data_mof_unit_40920.cif
_audit_creation_date              2012-10-26T19:03:31-0400
_audit_creation_method            fapswitch 2.2
_symmetry_space_group_name_H-M    P1
_symmetry_Int_Tables_number       1
_space_group_crystal_system       triclinic
_cell_length_a                    10.767872
_cell_length_b                    12.983938
_cell_length_c                    11.725835
_cell_angle_alpha                 99.220386
_cell_angle_beta                  93.301459
_cell_angle_gamma                 91.017084
_cell_volume                      1614.90865364

loop_
_atom_site_label
_atom_site_type_symbol
_atom_type_description
_atom_site_fract_x
_atom_site_fract_y
_atom_site_fract_z
_atom_type_partial_charge
C1    C     C_R   0.493922 0.299772 0.479305 0.555469
C2    C     C_R   0.392170 0.131462 0.386725 0.073620
C3    C     C_R   0.547367 0.136828 0.546888 -0.152972
C4    C     C_R   0.262587 0.497051 0.500327 0.534930
C5    C     C_R   0.532411 0.029731 0.542532 -0.019815
C6    C     C_R   0.445762 0.972342 0.460236 0.059155
C7    C     C_R   0.431613 0.864394 0.455666 0.040984
C8    C     C_R   0.592903 0.871653 0.613760 0.214924
C9    C     C_R   0.603763 0.979820 0.619326 -0.123854
C10   C     C_R   0.366141 0.419411 0.026034 -0.184701
C11   C     C_R   0.379831 0.425628 0.147047 0.018440
C12   C     C_R   0.066966 0.413948 0.551376 0.012297
C13   C     C_R   0.564273 0.530122 0.153550 0.407899
C14   C     C_R   0.553152 0.527078 0.031364 0.090479
C15   C     C_R   0.452200 0.470846 0.967385 -0.074700
C16   C     C_R   0.501774 0.700545 0.520636 0.582135
C17   C     C_R   0.439826 0.467371 0.845889 0.031883
C18   C     C_R   0.619982 0.575434 0.850638 0.045887
C19   C     C_R   0.638404 0.580648 0.971640 0.226676
C20   C     C_R   0.737208 0.496437 0.499014 0.540748
C21   C     C_R   0.132263 0.336257 0.599808 -0.145812
C22   C     C_R   0.068879 0.260535 0.647525 -0.119263
C23   C     C_R   0.128684 0.490470 0.500313 0.015283
C24   C     C_R   0.938576 0.259364 0.646684 0.258230
C25   C     C_R   0.872974 0.334862 0.597539 -0.041449
C26   C     C_R   0.935658 0.413147 0.549975 -0.024765
C27   C     C_R   0.061848 0.560812 0.444138 -0.142317
C28   C     C_R   0.933684 0.559971 0.442584 -0.117336
C29   C     C_R   0.870652 0.488766 0.497211 0.008889
C30   C     C_R   0.507596 0.813900 0.530998 0.055007
C31   C     C_R   0.478874 0.187477 0.468944 0.041048
C32   C     C_R   0.375850 0.024191 0.383040 -0.092204
Cu1   Cu    Cu3+1 0.509250 0.507730 0.615930 0.961060
Cu2   Cu    Cu3+1 0.490750 0.492270 0.384070 0.972296
H1    H     H_    0.109440 0.618016 0.403122 0.126413
H2    H     H_    0.772539 0.329884 0.595161 0.148821
H3    H     H_    0.883450 0.616919 0.401068 0.158547
H4    H     H_    0.308426 0.982292 0.319398 0.156549
H5    H     H_    0.223854 0.170809 0.324199 0.227258
H6    H     H_    0.332406 0.149999 0.224941 0.231970
H7    H     H_    0.786924 0.669894 0.976522 0.314702
H8    H     H_    0.636757 0.626588 0.281441 0.352668
H9    H     H_    0.932032 0.137064 0.722419 0.322700
H10   H     H_    0.283836 0.761540 0.420567 0.235003
H11   H     H_    0.380966 0.760764 0.309983 0.262356
H12   H     H_    0.669760 0.024785 0.682163 0.142327
H13   H     H_    0.721819 0.872253 0.737734 0.321068
H14   H     H_    0.613282 0.181031 0.610520 0.159692
H15   H     H_    0.363856 0.422623 0.795639 0.129287
H16   H     H_    0.684079 0.615939 0.804295 0.151682
H17   H     H_    0.287897 0.375243 0.978705 0.113208
H18   H     H_    0.312157 0.386135 0.190687 0.157707
H19   H     H_    0.232381 0.331752 0.599506 0.138400
H20   H     H_    0.121572 0.202026 0.683951 0.102300
N1    N     N_R   0.523180 0.519350 0.790130 -0.256281
N2    N     N_R   0.476820 0.480650 0.209890 -0.250283
N3    N     N_3   0.317384 0.183858 0.309927 -0.617851
N4    N     N_3   0.337990 0.807808 0.376275 -0.648270
O1    O     O_R   0.506570 0.354460 0.582000 -0.533250
O2    O     O_3   0.666458 0.581198 0.213833 -0.620322
O3    O     O_3   0.872572 0.184847 0.691708 -0.725810
O4    O     O_3   0.667238 0.820489 0.685617 -0.694773
O5    O     O_R   0.490940 0.341410 0.386200 -0.460603
O6    O     O_R   0.327470 0.506530 0.597920 -0.514047
O7    O     O_R   0.311840 0.493480 0.402120 -0.509489
O8    O     O_R   0.509060 0.658590 0.613800 -0.440659
O9    O     O_R   0.493430 0.645540 0.418000 -0.556589
O10   O     O_R   0.688160 0.506520 0.597880 -0.512921
O11   O     O_R   0.672530 0.493470 0.402080 -0.475001
O12   O     O_3   0.737768 0.638038 0.031489 -0.644656

loop_
_geom_bond_atom_site_label_1
_geom_bond_atom_site_label_2
_ccdc_geom_bond_type
Cu2   O9    S    
Cu1   N1    S    
C6    C32   A    
Cu2   N2    S    
C6    C7    A    
H6    N3    S    
C32   H4    S    
C8    C9    A    
C17   N1    A    
C7    N4    S    
H10   N4    S    
C12   C23   A    
C3    C31   A    
C13   N2    A    
C8    C30   A    
H13   O4    S    
Cu1   Cu2   S    
C25   C26   A    
C2    N3    S    
C9    H12   S    
Cu1   O1    S    
C13   O2    S    
C21   C22   A    
C21   H19   S    
C22   H20   S    
Cu2   O11   S    
C18   H16   S    
C5    C9    A    
C24   O3    S    
C12   C21   A    
C28   H3    S    
Cu1   O6    S    
C5    C6    A    
C10   H17   S    
C18   N1    A    
Cu2   O7    S    
C28   C29   A    
C8    O4    S    
Cu1   O8    S    
C23   C27   A    
C20   C29   S    
C1    O1    A    
C4    O7    A    
H11   N4    S    
C2    C31   A    
C22   C24   A    
C20   O11   A    
C16   O8    A    
C10   C11   A    
C25   H2    S    
C16   O9    A    
H5    N3    S    
C1    O5    A    
C3    H14   S    
C1    C31   S    
C24   C25   A    
H9    O3    S    
C26   C29   A    
C2    C32   A    
C18   C19   A    
H8    O2    S    
C27   C28   A    
C15   C17   A    
C4    C23   S    
C4    O6    A    
C14   C15   A    
Cu2   O5    S    
C19   O12   S    
C11   H18   S    
C27   H1    S    
C10   C15   A    
C13   C14   A    
C16   C30   S    
C14   C19   A    
C20   O10   A    
C17   H15   S    
C11   N2    A    
Cu1   O10   S    
C12   C26   A    
H7    O12   S    
C3    C5    A    
C7    C30   A    
