data_mof_unit_65622.cif
_audit_creation_date              2013-03-05T16:16:54-0500
_audit_creation_method            fapswitch 2.2
_symmetry_space_group_name_H-M    P1
_symmetry_Int_Tables_number       1
_space_group_crystal_system       triclinic
_cell_length_a                    10.549102
_cell_length_b                    13.074318
_cell_length_c                    13.620819
_cell_angle_alpha                 85.662293
_cell_angle_beta                  90.141123
_cell_angle_gamma                 93.184371
_cell_volume                      1870.33851211

loop_
_atom_site_label
_atom_site_type_symbol
_atom_site_description
_atom_site_fract_x
_atom_site_fract_y
_atom_site_fract_z
_atom_type_partial_charge
O1    O     O_R   0.492590 0.402510 0.634760 -0.584388
O2    O     O_R   0.507410 0.597490 0.365240 -0.584387
O3    O     O_R   0.505590 0.572960 0.644530 -0.622148
O4    O     O_R   0.494410 0.427040 0.355470 -0.622148
C1    C     C_R   0.498531 0.481183 0.685146 0.922554
C2    C     C_R   0.501469 0.518817 0.314854 0.922554
O5    O     O_R   0.679550 0.414790 0.495140 -0.595768
O6    O     O_R   0.320450 0.585210 0.504860 -0.595767
O7    O     O_R   0.692550 0.585240 0.504910 -0.626346
O8    O     O_R   0.307450 0.414760 0.495090 -0.626346
C3    C     C_R   0.742814 0.499801 0.500913 0.955338
C4    C     C_R   0.257186 0.500199 0.499087 0.955337
Zn1   Zn    Zn3+2 0.491320 0.386190 0.493470 1.021971
Zn2   Zn    Zn3+2 0.508680 0.613810 0.506530 1.021972
C5    C     C_3   0.957848 0.446999 0.580230 0.374096
C6    C     C_3   0.042152 0.553001 0.419770 0.374096
C7    C     C_3   0.047075 0.543674 0.580522 -0.284825
C8    C     C_3   0.952924 0.456326 0.419478 -0.284825
H1    H     H_    0.088343 0.577610 0.646575 0.181858
H2    H     H_    0.911657 0.422390 0.353424 0.181858
C9    C     C_3   0.122878 0.500015 0.498695 -0.132917
C10   C     C_3   0.877122 0.499985 0.501305 -0.132917
C11   C     C_3   0.035016 0.401819 0.500395 -0.236246
C12   C     C_3   0.964984 0.598181 0.499605 -0.236246
H3    H     H_    0.065762 0.321841 0.502263 0.189697
H4    H     H_    0.934238 0.678159 0.497737 0.189697
C13   C     C_1   0.502322 0.533803 0.211644 -0.111352
C14   C     C_1   0.497678 0.466197 0.788356 -0.111352
C15   C     C_2   0.502698 0.544551 0.020399 -0.142565
C16   C     C_2   0.497302 0.455449 0.979601 -0.142565
C17   C     C_1   0.497262 0.457379 0.875819 0.051039
C18   C     C_1   0.502738 0.542621 0.124181 0.051039
H5    H     H_    0.492992 0.382243 0.023362 0.170018
H6    H     H_    0.507008 0.617757 0.976638 0.170018
N1    N     N_1   0.479750 0.234530 0.484780 -0.086304
N2    N     N_1   0.520250 0.765470 0.515220 -0.086304
C19   C     C_2   0.463927 0.033089 0.473251 -0.229089
C20   C     C_2   0.536073 0.966911 0.526749 -0.229089
C21   C     C_1   0.525974 0.854735 0.519389 0.168009
C22   C     C_1   0.474026 0.145265 0.480611 0.168009
H7    H     H_    0.605224 0.996946 0.577906 0.177700
H8    H     H_    0.394776 0.003054 0.422093 0.177700
N3    N     N_R   0.912388 0.388418 0.669776 0.210063
O9    O     O_R   0.993343 0.345649 0.729782 -0.371812
O10   O     O_R   0.792247 0.380870 0.691872 -0.398585
N4    N     N_R   0.087612 0.611581 0.330224 0.210063
O11   O     O_R   0.006657 0.654350 0.270217 -0.371813
O12   O     O_R   0.207753 0.619130 0.308128 -0.398585

loop_
_geom_bond_atom_site_label_1
_geom_bond_atom_site_label_2
_geom_bond_distance
_ccdc_geom_bond_type
O7    Zn2   1.996061 S    
C6    C9    1.519592 S    
C19   C22   1.475548 S    
C1    C14   1.404618 S    
N3    O10   1.300022 A    
C3    C10   1.416699 S    
C2    C13   1.404618 S    
O6    C4    1.271796 A    
N3    O9    1.300199 A    
C5    C11   1.532659 S    
N1    C22   1.170946 T    
C5    N3    1.457735 S    
C6    C12   1.532659 S    
O5    C3    1.271794 A    
O7    C3    1.267710 A    
O2    C2    1.277643 A    
O3    Zn2   1.914678 S    
O8    C4    1.267709 A    
O1    C1    1.277643 A    
C15   H6    1.087396 S    
O4    C2    1.281117 A    
C7    H1    1.110328 S    
C19   C20   1.354212 D    
C12   H4    1.110337 S    
Zn1   N1    1.992272 S    
C15   C18   1.411915 S    
C8    H2    1.110328 S    
C9    C11   1.539894 S    
Zn2   N2    1.992273 S    
C16   C17   1.411915 S    
O2    Zn2   1.952183 S    
C10   C12   1.539894 S    
C7    C12   1.554864 S    
O1    Zn1   1.952185 S    
C15   C16   1.326482 D    
C8    C11   1.554864 S    
N4    O12   1.300023 A    
O5    Zn1   2.000437 S    
C11   H3    1.110337 S    
C20   C21   1.475548 S    
C20   H7    1.085789 S    
C6    C8    1.533683 S    
C5    C10   1.519592 S    
C6    N4    1.457735 S    
C19   H8    1.085789 S    
C5    C7    1.533683 S    
N4    O11   1.300199 A    
O6    Zn2   2.000437 S    
C16   H5    1.087396 S    
C13   C18   1.188163 T    
C8    C10   1.535851 S    
C4    C9    1.416699 S    
N2    C21   1.170947 T    
C14   C17   1.188163 T    
C7    C9    1.535851 S    
O4    Zn1   1.914677 S    
O3    C1    1.281118 A    
O8    Zn1   1.996061 S    
