data_mof_unit_6136.cif
_audit_creation_date              2013-03-05T15:47:05-0500
_audit_creation_method            fapswitch 2.2
_symmetry_space_group_name_H-M    P1
_symmetry_Int_Tables_number       1
_space_group_crystal_system       triclinic
_cell_length_a                    23.46734
_cell_length_b                    11.033098
_cell_length_c                    9.869316
_cell_angle_alpha                 111.269585
_cell_angle_beta                  97.748658
_cell_angle_gamma                 92.796648
_cell_volume                      2346.29010694

loop_
_atom_site_label
_atom_site_type_symbol
_atom_site_description
_atom_site_fract_x
_atom_site_fract_y
_atom_site_fract_z
_atom_type_partial_charge
O1    O     O_R   0.505330 0.332340 0.577400 -0.505689
O2    O     O_R   0.494670 0.667660 0.422600 -0.494216
O3    O     O_R   0.488470 0.295500 0.332650 -0.610799
O4    O     O_R   0.511530 0.704500 0.667350 -0.629799
C1    C     C_R   0.496879 0.253420 0.440598 0.804123
C2    C     C_R   0.507803 0.745626 0.559330 0.751759
O5    O     O_R   0.426310 0.518390 0.622390 -0.525917
O6    O     O_R   0.573690 0.481610 0.377610 -0.552656
O7    O     O_R   0.409450 0.481550 0.377650 -0.570400
O8    O     O_R   0.590550 0.518450 0.622350 -0.536273
C3    C     C_R   0.391051 0.497168 0.500032 0.927690
C4    C     C_R   0.608995 0.496782 0.497968 0.862759
Cu1   Cu    Cu3+1 0.509980 0.521810 0.644910 1.081329
Cu2   Cu    Cu3+1 0.490020 0.478190 0.355090 1.053279
C5    C     C_R   0.878400 0.573811 0.474527 0.592239
C6    C     C_R   0.111400 0.368507 0.367674 0.593019
N1    N     N_R   0.847003 0.454100 0.433599 -0.439183
N2    N     N_R   0.144861 0.484193 0.450814 -0.435847
C7    C     C_R   0.872450 0.340377 0.380846 0.630609
C8    C     C_R   0.119894 0.596050 0.517411 0.630589
C9    C     C_R   0.931276 0.344923 0.367338 -0.057583
C10   C     C_R   0.059532 0.594202 0.500580 -0.059458
C11   C     C_R   0.964860 0.467092 0.424100 -0.005891
C12   C     C_R   0.025252 0.473527 0.428486 -0.011465
C13   C     C_R   0.938409 0.582709 0.479618 -0.011728
C14   C     C_R   0.051308 0.359041 0.363221 -0.020104
C15   C     C_R   0.957715 0.230756 0.303375 -0.152759
C16   C     C_R   0.032758 0.709174 0.556824 -0.153957
C17   C     C_R   0.016927 0.238140 0.297897 -0.123540
C18   C     C_R   0.972636 0.703800 0.543013 -0.123929
O9    O     O_2   0.851723 0.684174 0.514116 -0.504157
O10   O     O_2   0.136220 0.262837 0.290536 -0.502232
O11   O     O_2   0.841569 0.223702 0.345475 -0.475219
O12   O     O_2   0.153319 0.708295 0.601389 -0.479309
H1    H     H_    0.932749 0.135649 0.256979 0.197407
H2    H     H_    0.058102 0.803522 0.610942 0.200776
H3    H     H_    0.035989 0.148466 0.247352 0.195685
H4    H     H_    0.953281 0.794191 0.587194 0.197134
C19   C     C_R   0.239011 0.571037 0.420429 0.467927
C20   C     C_R   0.742783 0.392501 0.333848 0.430041
C21   C     C_R   0.299077 0.576429 0.439155 -0.305972
C22   C     C_R   0.685470 0.408611 0.351719 -0.263504
H5    H     H_    0.323026 0.643710 0.404861 0.231542
H6    H     H_    0.651995 0.360905 0.256827 0.208833
C23   C     C_R   0.328250 0.493864 0.496837 -0.252196
C24   C     C_R   0.670888 0.481513 0.489242 -0.226499
C25   C     C_R   0.296709 0.403185 0.536951 0.204489
C26   C     C_R   0.715044 0.532241 0.614218 0.214975
C27   C     C_R   0.236091 0.404803 0.529570 0.232282
C28   C     C_R   0.773456 0.516793 0.597375 0.238380
C29   C     C_R   0.207123 0.488192 0.469420 0.086535
C30   C     C_R   0.787376 0.450857 0.455281 0.114841
C31   C     C_2   0.492309 0.112224 0.413142 0.196204
C32   C     C_2   0.526866 0.882321 0.588151 0.184389
C33   C     C_2   0.513427 0.075960 0.526223 0.279633
C34   C     C_2   0.490843 0.950692 0.532390 0.238314
N3    N     N_2   0.475010 0.445410 0.137370 -0.327341
N4    N     N_2   0.524990 0.554590 0.862630 -0.317246
C35   C     C_2   0.505324 0.513344 0.082231 0.356012
C36   C     C_2   0.491797 0.497297 0.922586 0.345266
H7    H     H_    0.562902 0.607456 0.926043 0.231248
H8    H     H_    0.442253 0.376602 0.068136 0.222246
O13   O     O_3   0.211500 0.651998 0.360005 -0.545550
C37   C     C_3   0.201079 0.588725 0.205148 0.058144
H9    H     H_    0.174333 0.492953 0.171219 0.154919
H10   H     H_    0.242701 0.572534 0.161813 0.174087
C38   C     C_3   0.168189 0.675434 0.138482 -0.326230
H11   H     H_    0.126501 0.691923 0.180731 0.233375
H12   H     H_    0.194125 0.771774 0.172447 0.265859
C39   C     C_3   0.155973 0.613128 0.970502 -0.763337
H13   H     H_    0.197152 0.597928 0.925738 0.283426
H14   H     H_    0.132095 0.678501 0.925738 0.265381
H15   H     H_    0.129124 0.517728 0.934084 0.275317
O14   O     O_3   0.754023 0.303747 0.202651 -0.567432
C40   C     C_3   0.764914 0.368512 0.108052 0.077148
H16   H     H_    0.800572 0.449443 0.162095 0.149503
H17   H     H_    0.725122 0.408490 0.074125 0.201024
C41   C     C_3   0.782963 0.268326 0.971550 -0.348579
H18   H     H_    0.819895 0.220855 0.006290 0.244932
H19   H     H_    0.746297 0.191482 0.911539 0.249028
C42   C     C_3   0.801273 0.331603 0.868463 -0.719493
H20   H     H_    0.764559 0.375492 0.827558 0.290942
H21   H     H_    0.815317 0.256570 0.772461 0.268853
H22   H     H_    0.837951 0.408388 0.927412 0.279143
N5    N     N_R   0.325215 0.304333 0.574355 0.197732
O15   O     O_R   0.360866 0.238476 0.492760 -0.304522
O16   O     O_R   0.311540 0.270406 0.680083 -0.209487
N6    N     N_R   0.700937 0.597012 0.758092 0.151993
O17   O     O_R   0.684146 0.529135 0.831934 -0.329415
O18   O     O_R   0.708058 0.723885 0.818941 -0.360064
N7    N     N_R   0.203454 0.318417 0.577014 0.179366
O19   O     O_R   0.167523 0.364142 0.668183 -0.367813
O20   O     O_R   0.204568 0.192470 0.516516 -0.236304
N8    N     N_R   0.818872 0.564896 0.723943 0.147147
O21   O     O_R   0.863039 0.499247 0.730898 -0.383012
O22   O     O_R   0.819206 0.679528 0.826350 -0.254984
N9    N     N_R   0.429705 0.909391 0.488535 0.100180
O23   O     O_R   0.393196 0.990783 0.544925 -0.256236
O24   O     O_R   0.410817 0.805126 0.372273 -0.316565
N10   N     N_R   0.557735 0.159632 0.643880 0.148245
O25   O     O_R   0.551006 0.189762 0.780492 -0.364284
O26   O     O_R   0.604401 0.206642 0.614223 -0.344522
O27   O     O_3   0.585590 0.929337 0.630928 -0.583783
C43   C     C_3   0.614611 0.891985 0.742609 0.180792
H23   H     H_    0.661304 0.924081 0.755639 0.203139
H24   H     H_    0.611823 0.784353 0.709579 0.162295
C44   C     C_3   0.595042 0.960067 0.892209 -0.445806
H25   H     H_    0.602604 0.067690 0.925171 0.272004
H26   H     H_    0.548297 0.932787 0.884027 0.216466
C45   C     C_3   0.628170 0.922756 0.012711 -0.715575
H27   H     H_    0.621188 0.815566 0.984043 0.283992
H28   H     H_    0.612520 0.972818 0.118420 0.244593
H29   H     H_    0.675137 0.953293 0.027698 0.291307
O28   O     O_3   0.453962 0.024677 0.293771 -0.546577
C46   C     C_3   0.470810 0.013957 0.157748 0.102360
H30   H     H_    0.479545 0.911177 0.100793 0.190096
H31   H     H_    0.511197 0.076464 0.167552 0.113794
C47   C     C_3   0.420706 0.044214 0.062480 -0.312095
H32   H     H_    0.382094 0.974271 0.044230 0.256323
H33   H     H_    0.409366 0.144477 0.120683 0.248033
C48   C     C_3   0.435749 0.034229 0.913467 -0.818363
H34   H     H_    0.474524 0.102596 0.928774 0.272721
H35   H     H_    0.398991 0.060770 0.850175 0.318007
H36   H     H_    0.443890 0.932607 0.849230 0.242194
N11   N     N_R   0.438837 0.423379 0.838747 0.138046
O29   O     O_R   0.390923 0.474187 0.867595 -0.344095
O30   O     O_R   0.437519 0.297203 0.774923 -0.293070
N12   N     N_R   0.551830 0.608286 0.175002 0.132039
O31   O     O_R   0.604314 0.575360 0.176241 -0.357586
O32   O     O_R   0.544386 0.731693 0.214803 -0.375855

loop_
_geom_bond_atom_site_label_1
_geom_bond_atom_site_label_2
_geom_bond_distance
_ccdc_geom_bond_type
C19   C29   1.407361 A    
C33   C34   1.480890 S    
C15   C17   1.397443 A    
C44   H26   1.107596 S    
O7    Cu2   1.933985 S    
N12   O31   1.300748 A    
C47   H33   1.110583 S    
C43   H24   1.107496 S    
O28   C46   1.415972 S    
N3    H8    1.029185 S    
C25   C27   1.415881 A    
N5    O15   1.301110 A    
O5    C3    1.305478 A    
O1    C1    1.295533 A    
C25   N5    1.438756 S    
C1    C31   1.476947 S    
C36   N11   1.424291 S    
C7    C9    1.404899 A    
C2    C32   1.464318 S    
C41   H19   1.112231 S    
N3    C35   1.308533 D    
N4    C36   1.305405 D    
C46   H30   1.111391 S    
C18   H4    1.083115 S    
C22   C24   1.402229 A    
C23   C25   1.414083 A    
O4    Cu1   1.944214 S    
C45   H27   1.109668 S    
C48   H36   1.110576 S    
C42   H21   1.110594 S    
C47   H32   1.111704 S    
C27   C29   1.417559 A    
C33   N10   1.443882 S    
C28   C30   1.417447 A    
C44   H25   1.109461 S    
C26   N6    1.431842 S    
C39   H13   1.110990 S    
C8    O12   1.349472 S    
N4    H7    1.028508 S    
C26   C28   1.413984 A    
C9    C15   1.405378 A    
C35   C36   1.507264 S    
C10   C16   1.404630 A    
Cu1   Cu2   2.692672 S    
C21   H5    1.083665 S    
O2    C2    1.294501 A    
C22   H6    1.083903 S    
C34   N9    1.441918 S    
C27   N7    1.436503 S    
N1    C30   1.444467 S    
C43   H23   1.110733 S    
N9    O24   1.300706 A    
N2    C29   1.444328 S    
N9    O23   1.300470 A    
C32   C34   1.350752 D    
C31   C33   1.358439 D    
C6    C14   1.402527 A    
C24   C26   1.416437 A    
O14   C40   1.406444 S    
N5    O16   1.301487 A    
C38   H11   1.111920 S    
C37   C38   1.528284 S    
C32   O27   1.400335 S    
C4    C24   1.480724 S    
C7    O11   1.348653 S    
N7    O19   1.300712 A    
C41   H18   1.112413 S    
C28   N8    1.443182 S    
Cu1   N4    2.022782 S    
C15   H1    1.083090 S    
C35   N12   1.431718 S    
C20   C30   1.407911 A    
C42   H20   1.108397 S    
C38   H12   1.111755 S    
C47   C48   1.525080 S    
C37   H10   1.114946 S    
C40   H16   1.115009 S    
N7    O20   1.301515 A    
C40   H17   1.114312 S    
O6    C4    1.304712 A    
C46   C47   1.531652 S    
C39   H15   1.110772 S    
N10   O26   1.301976 A    
N8    O22   1.300243 A    
O7    C3    1.293004 A    
C45   H29   1.110795 S    
C16   H2    1.083114 S    
C48   H34   1.110433 S    
O3    Cu2   1.944214 S    
O8    C4    1.300727 A    
O4    C2    1.296053 A    
N6    O18   1.299313 A    
C9    C11   1.407576 A    
N11   O29   1.300629 A    
C44   C45   1.524892 S    
C10   C12   1.407098 A    
C3    C23   1.468238 S    
O1    Cu1   1.942526 S    
C42   H22   1.110523 S    
C31   O28   1.390839 S    
C13   C18   1.405295 A    
C5    N1    1.374125 A    
Cu2   N3    2.022782 S    
C46   H31   1.116376 S    
O6    Cu2   1.942990 S    
C12   C14   1.405553 A    
C8    C10   1.402085 A    
O3    C1    1.304081 A    
O8    Cu1   1.933990 S    
N12   O32   1.300904 A    
C5    O9    1.349967 S    
C6    O10   1.349069 S    
C19   O13   1.381770 S    
C38   C39   1.526100 S    
C37   H9    1.115591 S    
C16   C18   1.395289 A    
C41   C42   1.520234 S    
C20   C22   1.391486 A    
N10   O25   1.300236 A    
N1    C7    1.372959 A    
C20   O14   1.379297 S    
N2    C8    1.372676 A    
C11   C13   1.405209 A    
N8    O21   1.301450 A    
O2    Cu2   1.942526 S    
C40   C41   1.528173 S    
C45   H28   1.110596 S    
C48   H35   1.110007 S    
C5    C13   1.399717 A    
C11   C12   1.409574 A    
O13   C37   1.411175 S    
O5    Cu1   1.942990 S    
N6    O17   1.300697 A    
C19   C21   1.392205 A    
C14   C17   1.405957 A    
C6    N2    1.373904 A    
C17   H3    1.083095 S    
O27   C43   1.415298 S    
N11   O30   1.300024 A    
C21   C23   1.398073 A    
C39   H14   1.110536 S    
C43   C44   1.538469 S    
