data_mof_unit_36406.cif
_audit_creation_date              2012-10-26T17:13:12-0400
_audit_creation_method            fapswitch 2.2
_symmetry_space_group_name_H-M    P1
_symmetry_Int_Tables_number       1
_space_group_crystal_system       triclinic
_cell_length_a                    16.796458
_cell_length_b                    16.789696
_cell_length_c                    16.828078
_cell_angle_alpha                 67.631483
_cell_angle_beta                  67.773542
_cell_angle_gamma                 67.850058
_cell_volume                      3908.9911503

loop_
_atom_site_label
_atom_site_type_symbol
_atom_type_description
_atom_site_fract_x
_atom_site_fract_y
_atom_site_fract_z
_atom_type_partial_charge
C1    C     C_R   0.310895 0.008762 0.428277 0.030557
C2    C     C_R   0.687659 0.994715 0.571958 0.032573
C3    C     C_R   0.008088 0.428133 0.310954 0.034039
C4    C     C_R   0.994204 0.570664 0.688073 0.031453
C5    C     C_R   0.426812 0.310902 0.009713 0.031506
C6    C     C_R   0.571534 0.687868 0.994684 0.030321
C7    C     C_R   0.547505 0.045679 0.677692 0.036117
C8    C     C_R   0.451530 0.958728 0.321983 0.040639
C9    C     C_R   0.676006 0.547167 0.048386 0.059508
C10   C     C_R   0.322092 0.451741 0.957039 0.032229
C11   C     C_R   0.045174 0.677229 0.547616 0.032249
C12   C     C_R   0.956673 0.322068 0.451299 0.039427
C13   C     C_R   0.452132 0.996506 0.449130 -0.005733
C14   C     C_R   0.545922 0.009189 0.550465 -0.008246
C15   C     C_R   0.995385 0.448429 0.452552 -0.004293
C16   C     C_R   0.008074 0.549582 0.546524 -0.007186
C17   C     C_R   0.447773 0.452383 0.997216 -0.008756
C18   C     C_R   0.548762 0.546066 0.010947 -0.000265
C19   C     C_R   0.030694 0.828135 0.563496 0.777578
C20   C     C_R   0.969541 0.171799 0.436312 0.778361
C21   C     C_R   0.828115 0.563242 0.031006 0.791068
C22   C     C_R   0.171859 0.436453 0.969512 0.776463
C23   C     C_R   0.563502 0.030847 0.828176 0.780304
C24   C     C_R   0.436177 0.970119 0.171897 0.779937
C25   C     C_R   0.431239 0.169834 0.982161 0.784701
C26   C     C_R   0.568790 0.830146 0.017998 0.790562
C27   C     C_R   0.982080 0.431258 0.169789 0.789137
C28   C     C_R   0.018278 0.568631 0.830025 0.787152
C29   C     C_R   0.169799 0.982112 0.431369 0.784716
C30   C     C_R   0.829979 0.018672 0.568571 0.780603
C31   C     C_R   0.404966 0.987537 0.400049 0.078632
C32   C     C_R   0.593539 0.017048 0.599778 0.075077
C33   C     C_R   0.986488 0.399700 0.405030 0.075723
C34   C     C_R   0.016293 0.598891 0.593950 0.076953
C35   C     C_R   0.399124 0.405121 0.987630 0.074260
C36   C     C_R   0.598444 0.593541 0.018607 0.080875
C37   C     C_R   0.265598 0.981157 0.390619 -0.174162
C38   C     C_R   0.733861 0.020747 0.609727 -0.175287
C39   C     C_R   0.980787 0.390387 0.265524 -0.172230
C40   C     C_R   0.020453 0.609045 0.733874 -0.175735
C41   C     C_R   0.390024 0.265607 0.981180 -0.175984
C42   C     C_R   0.609891 0.734137 0.020027 -0.177131
C43   C     C_R   0.597503 0.046613 0.729252 -0.182374
C44   C     C_R   0.401949 0.956177 0.270772 -0.179735
C45   C     C_R   0.728931 0.597224 0.047143 -0.178572
C46   C     C_R   0.270772 0.402265 0.954676 -0.182142
C47   C     C_R   0.046362 0.728912 0.597367 -0.181482
C48   C     C_R   0.954553 0.270782 0.401926 -0.187500
C49   C     C_R   0.453619 0.076214 0.699570 -0.150272
C50   C     C_R   0.545621 0.930128 0.299437 -0.162348
C51   C     C_R   0.075409 0.699539 0.453658 -0.148814
C52   C     C_R   0.925682 0.300207 0.544952 -0.118572
C53   C     C_R   0.696174 0.453246 0.081667 -0.188434
C54   C     C_R   0.300726 0.545719 0.926135 -0.139058
C55   C     C_R   0.265794 0.054537 0.494640 -0.180293
C56   C     C_R   0.732104 0.950130 0.505131 -0.164193
C57   C     C_R   0.491540 0.265690 0.057484 -0.171397
C58   C     C_R   0.506069 0.732581 0.947969 -0.161686
C59   C     C_R   0.053049 0.495372 0.266147 -0.163161
C60   C     C_R   0.948813 0.503687 0.732746 -0.185019
C61   C     C_R   0.313967 0.950725 0.313538 -0.081751
C62   C     C_R   0.685923 0.051015 0.686952 -0.079836
C63   C     C_R   0.949733 0.313357 0.313894 -0.079467
C64   C     C_R   0.050958 0.686416 0.685541 -0.077955
C65   C     C_R   0.313216 0.314087 0.949897 -0.078681
C66   C     C_R   0.687799 0.686311 0.049385 -0.109023
C67   C     C_R   0.687213 0.947344 0.451334 0.019682
C68   C     C_R   0.310700 0.062425 0.545839 0.011668
C69   C     C_R   0.941845 0.452129 0.687649 0.010781
C70   C     C_R   0.058961 0.547355 0.311367 0.016957
C71   C     C_R   0.453758 0.687610 0.942163 0.018980
C72   C     C_R   0.542181 0.310729 0.066485 0.012883
C73   C     C_R   0.594030 0.934731 0.349473 0.036697
C74   C     C_R   0.404466 0.071360 0.650205 0.032218
C75   C     C_R   0.350094 0.594442 0.931670 0.035698
C76   C     C_R   0.645309 0.404245 0.078425 -0.002443
C77   C     C_R   0.932015 0.348484 0.594041 0.039626
C78   C     C_R   0.070365 0.650062 0.404842 0.026659
C79   C     C_R   0.735328 0.916935 0.374322 -0.082658
C80   C     C_R   0.263058 0.097356 0.620592 -0.063943
C81   C     C_R   0.906781 0.377127 0.735157 -0.074397
C82   C     C_R   0.091789 0.623489 0.263551 -0.078178
C83   C     C_R   0.379896 0.735715 0.906064 -0.070462
C84   C     C_R   0.614020 0.262908 0.105793 -0.055479
C85   C     C_R   0.689021 0.908526 0.324539 -0.043609
C86   C     C_R   0.309581 0.101896 0.672851 -0.054162
C87   C     C_R   0.327891 0.689448 0.900587 -0.054643
C88   C     C_R   0.666369 0.309161 0.111069 -0.092015
C89   C     C_R   0.901551 0.325167 0.688876 -0.070589
C90   C     C_R   0.099313 0.673996 0.309897 -0.058685
C91   C     C_R   0.546486 0.969345 0.424246 0.044266
C92   C     C_R   0.451551 0.036698 0.575336 0.035361
C93   C     C_R   0.967697 0.423172 0.546923 0.033022
C94   C     C_R   0.035696 0.574790 0.452159 0.025188
C95   C     C_R   0.423873 0.546896 0.968277 0.028624
C96   C     C_R   0.571987 0.451579 0.041048 0.051166
C97   C     C_R   0.593139 0.975807 0.474929 0.038173
C98   C     C_R   0.404755 0.031450 0.523851 0.036642
C99   C     C_R   0.474977 0.593514 0.974364 0.030845
C100  C     C_R   0.521160 0.404865 0.034392 0.032829
C101  C     C_R   0.973213 0.474406 0.593721 0.036090
C102  C     C_R   0.029796 0.523776 0.405399 0.032742
Cu1   Cu    Cu3+1 0.995180 0.995180 0.424630 1.067469
Cu2   Cu    Cu3+1 0.004820 0.004820 0.575370 1.113686
Cu3   Cu    Cu3+1 0.995180 0.424630 0.995180 1.102186
Cu4   Cu    Cu3+1 0.004820 0.575370 0.004820 1.065870
Cu5   Cu    Cu3+1 0.424630 0.995180 0.995180 1.105021
Cu6   Cu    Cu3+1 0.575370 0.004820 0.004820 1.052761
H1    H     H_    0.419530 0.109395 0.751768 0.182871
H2    H     H_    0.581349 0.899640 0.245374 0.186599
H3    H     H_    0.108125 0.752470 0.418866 0.184295
H4    H     H_    0.890852 0.248989 0.578777 0.181508
H5    H     H_    0.749426 0.418877 0.113800 0.183500
H6    H     H_    0.249057 0.580441 0.891997 0.181981
H7    H     H_    0.195416 0.086556 0.505215 0.187635
H8    H     H_    0.801926 0.914666 0.496065 0.168914
H9    H     H_    0.501097 0.195121 0.090189 0.170680
H10   H     H_    0.497212 0.802714 0.913147 0.165263
H11   H     H_    0.086220 0.506363 0.195729 0.167522
H12   H     H_    0.916196 0.493010 0.802948 0.190778
O1    O     O_R   0.124540 0.978640 0.385460 -0.556157
O2    O     O_R   0.875460 0.021360 0.614540 -0.543507
O3    O     O_R   0.978640 0.385460 0.124540 -0.544910
O4    O     O_R   0.021360 0.614540 0.875460 -0.553013
O5    O     O_R   0.385460 0.124540 0.978640 -0.544588
O6    O     O_R   0.614540 0.875460 0.021360 -0.556719
O7    O     O_R   0.614540 0.021360 0.875460 -0.540462
O8    O     O_R   0.385460 0.978640 0.124540 -0.531065
O9    O     O_R   0.875460 0.614540 0.021360 -0.546635
O10   O     O_R   0.124540 0.385460 0.978640 -0.542483
O11   O     O_R   0.021360 0.875460 0.614540 -0.536004
O12   O     O_R   0.978640 0.124540 0.385460 -0.542257
O13   O     O_R   0.013780 0.867370 0.487190 -0.586143
O14   O     O_R   0.986220 0.132630 0.512810 -0.570467
O15   O     O_R   0.867370 0.487190 0.013780 -0.583476
O16   O     O_R   0.132630 0.512810 0.986220 -0.582592
O17   O     O_R   0.487190 0.013780 0.867370 -0.585634
O18   O     O_R   0.512810 0.986220 0.132630 -0.610434
O19   O     O_R   0.512810 0.132630 0.986220 -0.571952
O20   O     O_R   0.487190 0.867370 0.013780 -0.565444
O21   O     O_R   0.986220 0.512810 0.132630 -0.569026
O22   O     O_R   0.013780 0.487190 0.867370 -0.589579
O23   O     O_R   0.132630 0.986220 0.512810 -0.580895
O24   O     O_R   0.867370 0.013780 0.487190 -0.565403
C103  C     C_2   0.280417 0.898172 0.286104 0.911301
O25   O     O_2   0.233939 0.935670 0.234227 -0.544826
O26   O     O_R   0.303186 0.805093 0.320099 -0.752452
H13   H     H_    0.276909 0.775559 0.297409 0.350174
C104  C     C_2   0.719524 0.103928 0.713914 0.905653
O27   O     O_2   0.767578 0.066835 0.764326 -0.520813
O28   O     O_R   0.694584 0.197109 0.681285 -0.754936
H14   H     H_    0.721001 0.227192 0.703197 0.341202
C105  C     C_2   0.893914 0.288586 0.281830 0.901210
O29   O     O_2   0.927935 0.236115 0.236201 -0.522723
O30   O     O_R   0.801623 0.327083 0.304073 -0.752593
H15   H     H_    0.769436 0.307671 0.277630 0.341567
C106  C     C_2   0.102946 0.714352 0.719256 0.907498
O31   O     O_2   0.065112 0.765928 0.765894 -0.548596
O32   O     O_R   0.195939 0.681273 0.696306 -0.752728
H16   H     H_    0.225121 0.704253 0.722648 0.350674
C107  C     C_2   0.286421 0.281084 0.896402 0.900529
O33   O     O_2   0.235674 0.233165 0.932865 -0.521875
O34   O     O_R   0.319755 0.306182 0.803469 -0.755276
H17   H     H_    0.298108 0.279839 0.773095 0.339622
C108  C     C_2   0.723417 0.724355 0.090666 0.941873
O35   O     O_2   0.710162 0.700078 0.171717 -0.533917
O36   O     O_R   0.776366 0.783084 0.036649 -0.704335
H18   H     H_    0.800654 0.800608 0.072302 0.341898
C109  C     C_2   0.256983 0.139444 0.750624 0.851919
O37   O     O_2   0.268821 0.097726 0.824440 -0.563590
O38   O     O_R   0.191072 0.221127 0.739618 -0.748148
H19   H     H_    0.157576 0.238345 0.797572 0.365089
C110  C     C_2   0.741530 0.875726 0.244560 0.841502
O39   O     O_2   0.737874 0.805362 0.242479 -0.543963
O40   O     O_R   0.798971 0.922822 0.174295 -0.724427
H20   H     H_    0.834409 0.892094 0.125139 0.343913
C111  C     C_2   0.132333 0.754745 0.257738 0.840783
O41   O     O_2   0.204880 0.748607 0.201679 -0.534735
O42   O     O_R   0.079302 0.837978 0.271091 -0.749515
H21   H     H_    0.106649 0.888463 0.228455 0.368543
C112  C     C_2   0.862736 0.247635 0.741451 0.831589
O43   O     O_2   0.902040 0.174286 0.727750 -0.569267
O44   O     O_R   0.782285 0.258364 0.808895 -0.734692
H22   H     H_    0.764089 0.200593 0.842012 0.370090
C113  C     C_2   0.745691 0.256418 0.146285 0.832290
O45   O     O_2   0.820050 0.264390 0.100035 -0.550330
O46   O     O_R   0.735417 0.195841 0.231469 -0.707342
H23   H     H_    0.794352 0.161863 0.246827 0.378473
C114  C     C_2   0.247240 0.741650 0.867653 0.841289
O47   O     O_2   0.253356 0.797928 0.795082 -0.542973
O48   O     O_R   0.164068 0.727737 0.920788 -0.748438
H24   H     H_    0.113727 0.770008 0.893325 0.363484
C115  C     C_2   0.163969 0.119774 0.651497 0.899527
O49   O     O_2   0.119037 0.183078 0.606143 -0.585620
O50   O     O_R   0.122868 0.069298 0.734382 -0.695238
H25   H     H_    0.055399 0.091393 0.750057 0.376950
C116  C     C_2   0.833884 0.902028 0.341239 0.900430
O51   O     O_2   0.882991 0.830105 0.328608 -0.550243
O52   O     O_R   0.869469 0.971779 0.324288 -0.718975
H26   H     H_    0.936869 0.955461 0.301652 0.365605
C117  C     C_2   0.639246 0.163572 0.133894 0.872216
O53   O     O_2   0.625880 0.122943 0.213209 -0.555674
O54   O     O_R   0.673944 0.117333 0.069110 -0.726711
H27   H     H_    0.682619 0.050499 0.096115 0.345828
C118  C     C_2   0.350072 0.834803 0.885364 0.876234
O55   O     O_2   0.359466 0.881040 0.807871 -0.547993
O56   O     O_R   0.314102 0.874330 0.955493 -0.696891
H28   H     H_    0.298170 0.941976 0.934042 0.371179
C119  C     C_2   0.103838 0.658613 0.165705 0.886061
O57   O     O_2   0.178592 0.655149 0.113987 -0.534748
O58   O     O_R   0.028407 0.693284 0.133761 -0.718027
H29   H     H_    0.043415 0.714461 0.066309 0.356926
C120  C     C_2   0.880910 0.348884 0.834079 0.900202
O59   O     O_2   0.923349 0.277760 0.874044 -0.528991
O60   O     O_R   0.807509 0.403402 0.880983 -0.752518
H30   H     H_    0.798992 0.377823 0.947505 0.359616

loop_
_geom_bond_atom_site_label_1
_geom_bond_atom_site_label_2
_ccdc_geom_bond_type
C84   C117  S    
C68   C80   A    
Cu4   O9    S    
C83   C87   A    
O54   H27   S    
C9    C45   A    
C108  O35   D    
C79   C116  S    
C62   C104  S    
C86   C109  S    
C18   C96   A    
C117  O53   D    
C6    C58   A    
C11   C47   A    
O26   H13   S    
C50   H2    S    
C12   C48   A    
Cu1   O24   S    
C103  O25   D    
C113  O45   D    
C75   C95   A    
C59   H11   S    
C3    C33   A    
C112  O43   D    
C78   C90   A    
C80   C115  S    
C77   C89   A    
C106  O31   D    
Cu2   O14   S    
Cu4   O21   S    
C27   O21   A    
C57   H9    S    
C25   O19   A    
Cu5   O8    S    
C26   O20   A    
C104  O28   S    
C12   C33   A    
C19   C47   S    
C58   C71   A    
C113  O46   S    
Cu2   O2    S    
C52   H4    S    
C29   O23   A    
C5    C35   A    
C1    C31   A    
C30   O24   A    
Cu3   O3    S    
C2    C32   A    
C26   O6    A    
C74   C92   A    
Cu5   O20   S    
C116  O52   S    
C58   H10   S    
C25   O5    A    
C80   C86   A    
C107  O34   S    
C54   H6    S    
C81   C120  S    
C24   O8    A    
C4    C40   A    
C27   C39   S    
C115  O50   S    
Cu2   O11   S    
C29   O1    A    
C64   C106  S    
C10   C46   A    
C9    C36   A    
C85   C110  S    
Cu5   Cu6   S    
C10   C35   A    
C17   C95   A    
C7    C43   A    
C87   C114  S    
C105  O30   S    
Cu1   O12   S    
C76   C88   A    
C71   C83   A    
C1    C37   A    
Cu3   O15   S    
C82   C119  S    
C81   C89   A    
C118  O56   S    
C90   C111  S    
C3    C39   A    
O52   H26   S    
C57   C72   A    
C13   C91   A    
C117  O54   S    
C73   C91   A    
C114  O47   D    
C20   O12   A    
C10   C54   A    
C103  O26   S    
C53   H5    S    
C107  O33   D    
C21   C45   S    
C120  O60   S    
C19   O11   A    
C44   C61   A    
C4    C34   A    
O30   H15   S    
C21   O15   A    
C27   O3    A    
C92   C98   A    
O56   H28   S    
C109  O37   D    
C8    C44   A    
C67   C79   A    
C7    C49   A    
C46   C65   A    
C112  O44   S    
C25   C41   S    
Cu3   O22   S    
C55   C68   A    
C48   C63   A    
C41   C65   A    
C24   O18   A    
C110  O39   D    
C38   C62   A    
C71   C99   A    
C91   C97   A    
O48   H24   S    
C22   O16   A    
C29   C37   S    
C45   C66   A    
C89   C112  S    
Cu5   O17   S    
Cu5   O5    S    
O44   H22   S    
O58   H29   S    
C16   C34   A    
C2    C38   A    
O32   H16   S    
C61   C103  S    
C120  O59   D    
O28   H14   S    
C21   O9    A    
C4    C60   A    
C28   O4    A    
C119  O57   D    
C56   H8    S    
Cu2   O23   S    
C20   C48   S    
C74   C86   A    
O38   H19   S    
C73   C85   A    
C72   C84   A    
C110  O40   S    
C69   C81   A    
C118  O55   D    
C75   C87   A    
C88   C113  S    
C22   C46   S    
C14   C92   A    
C111  O41   D    
C24   C44   S    
C50   C73   A    
C53   C76   A    
C28   O22   A    
C18   C99   A    
C93   C101  A    
C52   C77   A    
Cu1   O1    S    
C8    C50   A    
O36   H18   S    
C26   C42   S    
C14   C97   A    
C23   O7    A    
C72   C100  A    
C20   O14   A    
C5    C41   A    
Cu4   O16   S    
C51   H3    S    
C7    C32   A    
C66   C108  S    
C8    C31   A    
C106  O32   S    
C23   O17   A    
C11   C34   A    
C15   C102  A    
C84   C88   A    
C14   C32   A    
C40   C64   A    
C15   C93   A    
Cu6   O19   S    
C37   C61   A    
C47   C64   A    
Cu3   O10   S    
C69   C101  A    
O42   H21   S    
C19   O13   A    
C56   C67   A    
C39   C63   A    
Cu3   Cu4   S    
C12   C52   A    
C16   C94   A    
C82   C90   A    
C5    C57   A    
Cu6   O6    S    
C1    C55   A    
C49   H1    S    
O46   H23   S    
C83   C118  S    
O40   H20   S    
C2    C56   A    
C104  O27   D    
C76   C96   A    
Cu6   O18   S    
C13   C31   A    
C70   C102  A    
C13   C98   A    
C55   H7    S    
C60   C69   A    
C78   C94   A    
C30   O2    A    
C96   C100  A    
C77   C93   A    
C119  O58   S    
C79   C85   A    
C6    C36   A    
C60   H12   S    
C95   C99   A    
Cu6   O7    S    
Cu1   O13   S    
C116  O51   D    
C70   C82   A    
C17   C100  A    
C68   C98   A    
C51   C78   A    
O34   H17   S    
C11   C51   A    
C67   C97   A    
C59   C70   A    
O50   H25   S    
C16   C101  A    
O60   H30   S    
C9    C53   A    
C94   C102  A    
C108  O36   S    
C115  O49   D    
C6    C42   A    
C65   C107  S    
Cu1   Cu2   S    
C42   C66   A    
Cu4   O4    S    
C28   C40   S    
C49   C74   A    
C17   C35   A    
C30   C38   S    
C114  O48   S    
C105  O29   D    
C23   C43   S    
C63   C105  S    
C18   C36   A    
C15   C33   A    
C22   O10   A    
C43   C62   A    
C54   C75   A    
C111  O42   S    
C109  O38   S    
C3    C59   A    
