data_mof_unit_58495.cif
_audit_creation_date              2013-03-05T15:46:48-0500
_audit_creation_method            fapswitch 2.2
_symmetry_space_group_name_H-M    P1
_symmetry_Int_Tables_number       1
_space_group_crystal_system       triclinic
_cell_length_a                    17.18613
_cell_length_b                    11.042712
_cell_length_c                    9.976276
_cell_angle_alpha                 111.548496
_cell_angle_beta                  94.486302
_cell_angle_gamma                 94.255197
_cell_volume                      1744.73822708

loop_
_atom_site_label
_atom_site_type_symbol
_atom_site_description
_atom_site_fract_x
_atom_site_fract_y
_atom_site_fract_z
_atom_type_partial_charge
O1    O     O_R   0.507280 0.332200 0.576490 -0.613560
O2    O     O_R   0.492720 0.667800 0.423510 -0.593912
O3    O     O_R   0.484240 0.295800 0.334620 -0.598815
O4    O     O_R   0.515760 0.704200 0.665380 -0.546868
C1    C     C_R   0.491526 0.253967 0.440595 0.723791
C2    C     C_R   0.508410 0.746120 0.559469 0.729986
O5    O     O_R   0.399260 0.520290 0.634950 -0.573619
O6    O     O_R   0.600740 0.479710 0.365050 -0.574462
O7    O     O_R   0.376220 0.483890 0.393080 -0.592366
O8    O     O_R   0.623780 0.516110 0.606920 -0.558615
C3    C     C_R   0.353214 0.519736 0.522486 0.828990
C4    C     C_R   0.647369 0.485077 0.477791 0.826411
Cu1   Cu    Cu3+1 0.513640 0.521550 0.643210 0.977939
Cu2   Cu    Cu3+1 0.486360 0.478450 0.356790 0.935155
C5    C     C_R   0.272445 0.561745 0.539412 -0.229067
C6    C     C_R   0.730567 0.460603 0.460729 -0.233856
C7    C     C_R   0.225135 0.567379 0.418727 0.154921
C8    C     C_R   0.776443 0.428946 0.565807 0.196511
C9    C     C_R   0.145962 0.585619 0.427362 0.257516
C10   C     C_R   0.859063 0.453600 0.577892 0.265542
C11   C     C_R   0.112546 0.600080 0.556085 -0.056517
C12   C     C_R   0.894546 0.480146 0.467207 -0.069368
C13   C     C_R   0.161446 0.618642 0.683963 -0.054182
C14   C     C_R   0.848254 0.484073 0.346297 -0.028058
C15   C     C_R   0.242331 0.602072 0.676109 0.172992
C16   C     C_R   0.765887 0.473318 0.342105 0.167874
C17   C     C_2   0.026566 0.596689 0.556382 -0.214193
C18   C     C_2   0.980369 0.489448 0.469143 -0.230739
H1    H     H_    0.005531 0.406759 0.394895 0.164638
H2    H     H_    0.001656 0.677789 0.633544 0.165445
H3    H     H_    0.443371 0.870302 0.418575 0.212917
H4    H     H_    0.556579 0.129389 0.580790 0.199755
C19   C     C_2   0.476115 0.113344 0.406664 -0.172106
C20   C     C_2   0.523354 0.886970 0.593625 -0.201023
C21   C     C_2   0.510804 0.065482 0.499579 -0.109184
C22   C     C_2   0.488762 0.934558 0.500371 -0.089587
N1    N     N_2   0.465840 0.446060 0.141630 -0.276927
N2    N     N_2   0.534160 0.553940 0.858370 -0.271255
C23   C     C_2   0.499666 0.523829 0.084324 0.071297
C24   C     C_2   0.486520 0.500369 0.923703 0.038780
N3    N     N_2   0.256768 0.564356 0.289655 -0.392567
H5    H     H_    0.309127 0.620154 0.298343 0.280985
C25   C     C_3   0.236365 0.447311 0.160175 -0.500989
H6    H     H_    0.288718 0.394226 0.132631 0.222295
H7    H     H_    0.215564 0.475552 0.068742 0.244679
H8    H     H_    0.189252 0.380030 0.174693 0.193164
N4    N     N_2   0.739870 0.367802 0.653834 -0.406187
H9    H     H_    0.680232 0.342581 0.628931 0.263310
C26   C     C_3   0.776076 0.260447 0.675249 -0.612626
H10   H     H_    0.730371 0.187643 0.683820 0.211226
H11   H     H_    0.815589 0.297763 0.778575 0.285210
H12   H     H_    0.808974 0.208577 0.583020 0.218822
N5    N     N_2   0.718407 0.476321 0.219653 -0.433797
H13   H     H_    0.740411 0.540266 0.174716 0.257145
C27   C     C_3   0.688462 0.348058 0.112970 -0.479707
H14   H     H_    0.737148 0.295063 0.060655 0.244412
H15   H     H_    0.647018 0.358611 0.028018 0.224706
H16   H     H_    0.656402 0.288571 0.164271 0.235462
N6    N     N_2   0.293455 0.624806 0.804348 -0.383149
H17   H     H_    0.269054 0.599791 0.882909 0.312204
C28   C     C_3   0.340759 0.750678 0.861805 -0.460303
H18   H     H_    0.303856 0.830141 0.912179 0.233229
H19   H     H_    0.369615 0.770616 0.775041 0.198525
H20   H     H_    0.387383 0.750182 0.944961 0.271334
C29   C     C_2   0.126684 0.653133 0.823669 0.329977
H21   H     H_    0.068325 0.610219 0.825903 0.082796
O9    O     O_2   0.161215 0.733645 0.936354 -0.553211
C30   C     C_2   0.886557 0.508370 0.229044 0.320158
H22   H     H_    0.931368 0.590388 0.256265 0.081959
O10   O     O_2   0.868904 0.436641 0.102205 -0.570686
N7    N     N_2   0.905798 0.450554 0.701200 -0.424524
H23   H     H_    0.962025 0.426053 0.686129 0.254176
C31   C     C_3   0.901305 0.560027 0.835091 -0.619867
H24   H     H_    0.938269 0.548267 0.924943 0.238669
H25   H     H_    0.839922 0.564415 0.862577 0.272614
H26   H     H_    0.922942 0.653391 0.825282 0.199366
N8    N     N_2   0.101604 0.594028 0.305020 -0.405552
H27   H     H_    0.053735 0.525134 0.260400 0.246924
C32   C     C_3   0.088722 0.725246 0.316739 -0.613866
H28   H     H_    0.059850 0.722029 0.211760 0.228839
H29   H     H_    0.145683 0.788076 0.342227 0.247593
H30   H     H_    0.050320 0.768470 0.402715 0.206010
C33   C     C_2   0.580960 0.964062 0.722020 0.387817
H31   H     H_    0.622909 0.913655 0.763105 0.107954
O11   O     O_2   0.580208 0.081315 0.787481 -0.522268
C34   C     C_2   0.417781 0.037138 0.279228 0.399904
H32   H     H_    0.375742 0.088154 0.239265 0.053493
O12   O     O_2   0.418056 0.919944 0.213154 -0.518805
C35   C     C_2   0.411807 0.422646 0.843059 0.489924
H33   H     H_    0.409288 0.354121 0.732805 0.119999
O13   O     O_2   0.351960 0.430013 0.902470 -0.628513
C36   C     C_2   0.545632 0.648339 0.180107 0.389003
H34   H     H_    0.591393 0.649633 0.261624 0.109463
O14   O     O_2   0.534642 0.750719 0.165015 -0.513289
C37   C     C_2   0.613994 0.597765 0.917651 0.698128
H35   H     H_    0.643697 0.557234 0.988631 -0.070272
O15   O     O_2   0.650358 0.681771 0.887681 -0.539013
C38   C     C_2   0.445974 0.309665 0.057291 0.617130
H36   H     H_    0.399360 0.255407 0.086136 0.034637
O16   O     O_2   0.483889 0.250676 0.959831 -0.566230

loop_
_geom_bond_atom_site_label_1
_geom_bond_atom_site_label_2
_geom_bond_distance
_ccdc_geom_bond_type
C27   H14   1.109770 S    
C37   H35   1.082818 S    
C31   H25   1.110638 S    
N3    H5    1.031101 S    
C21   C22   1.470165 S    
C25   H6    1.107842 S    
C8    N4    1.442599 S    
N4    C26   1.453594 S    
N8    H27   1.027031 S    
O5    C3    1.319260 A    
O1    C1    1.305814 A    
C18   H1    1.086872 S    
C9    C11   1.408109 A    
C14   C16   1.407776 A    
C34   O12   1.218231 D    
C5    C15   1.422832 A    
C38   H36   1.084011 S    
C9    N8    1.423963 S    
C31   H24   1.110234 S    
O4    Cu1   1.943831 S    
C28   H19   1.111117 S    
C19   C21   1.346908 D    
C3    C5    1.498403 S    
N4    H9    1.028006 S    
C30   H22   1.081768 S    
C29   O9    1.220472 D    
C1    C19   1.461144 S    
N2    C37   1.425045 S    
C10   N7    1.428061 S    
C24   C35   1.483317 S    
C35   O13   1.219907 D    
C20   C22   1.346866 D    
N8    C32   1.445505 S    
C11   C17   1.475620 S    
N6    H17   1.029409 S    
C12   C18   1.469036 S    
Cu1   Cu2   2.714665 S    
C17   H2    1.086240 S    
N3    C25   1.448289 S    
O2    C2    1.306486 A    
N1    C38   1.428592 S    
N5    C27   1.450008 S    
C6    C16   1.417914 A    
N6    C28   1.447639 S    
H4    C21   1.082218 S    
C4    C6    1.485971 S    
O4    C2    1.301432 A    
C23   C24   1.521704 S    
C32   H29   1.111314 S    
C34   H32   1.085635 S    
C26   H11   1.109255 S    
N5    H13   1.030553 S    
C2    C20   1.462513 S    
C28   H20   1.109196 S    
O7    Cu2   1.955961 S    
O7    C3    1.306664 A    
C33   H31   1.085594 S    
O6    C4    1.309094 A    
C26   H12   1.112051 S    
C36   O14   1.220164 D    
C25   H7    1.109769 S    
Cu1   N2    2.039272 S    
O3    Cu2   1.943832 S    
O8    C4    1.311231 A    
C30   O10   1.220104 D    
C33   O11   1.218930 D    
C10   C12   1.411981 A    
C29   H21   1.082458 S    
C38   O16   1.221114 D    
C27   H15   1.108870 S    
C31   H26   1.110720 S    
C12   C14   1.408269 A    
O1    Cu1   1.938905 S    
C20   C33   1.490335 S    
C16   N5    1.427278 S    
C23   C36   1.477565 S    
N7    C31   1.447538 S    
C5    C7    1.422643 A    
O6    Cu2   1.959823 S    
O3    C1    1.301323 A    
O8    Cu1   1.955961 S    
C32   H30   1.110702 S    
C37   O15   1.219606 D    
C13   C29   1.489489 S    
C11   C13   1.410831 A    
N7    H23   1.030165 S    
N1    C23   1.319410 D    
Cu2   N1    2.039273 S    
N2    C24   1.319075 D    
C36   H34   1.081576 S    
C7    C9    1.394879 A    
C8    C10   1.413011 A    
C13   C15   1.419941 A    
C28   H18   1.110524 S    
O2    Cu2   1.938905 S    
C25   H8    1.112069 S    
C7    N3    1.426669 S    
C14   C30   1.482712 S    
C32   H28   1.110437 S    
O5    Cu1   1.959826 S    
C6    C8    1.422509 A    
C26   H10   1.112617 S    
C27   H16   1.111032 S    
C17   C18   1.336212 D    
H3    C22   1.082055 S    
C15   N6    1.423802 S    
C35   H33   1.077306 S    
C19   C34   1.489651 S    
