data_mof_unit_60929.cif
_audit_creation_date              2012-12-10T19:04:19-0500
_audit_creation_method            fapswitch 2.2
_symmetry_space_group_name_H-M    P1
_symmetry_Int_Tables_number       1
_space_group_crystal_system       triclinic
_cell_length_a                    10.673808
_cell_length_b                    13.052276
_cell_length_c                    13.633806
_cell_angle_alpha                 85.658798
_cell_angle_beta                  90.082598
_cell_angle_gamma                 93.127661
_cell_volume                      1891.14998875

loop_
_atom_site_label
_atom_site_type_symbol
_atom_type_description
_atom_site_fract_x
_atom_site_fract_y
_atom_site_fract_z
_atom_type_partial_charge
C1    C     C_R   0.498602 0.481165 0.685118 0.886284
C2    C     C_3   0.120677 0.498366 0.498445 -0.081236
C3    C     C_3   0.076981 0.579138 0.417541 -0.520856
C4    C     C_3   0.072282 0.525458 0.601129 0.258772
C5    C     C_1   0.502299 0.534229 0.211841 -0.141489
C6    C     C_2   0.503052 0.548213 0.020137 0.485109
C7    C     C_2   0.496579 0.458650 0.979225 -0.197983
C8    C     C_1   0.496680 0.458542 0.875554 0.109312
C9    C     C_1   0.502891 0.544233 0.124514 -0.123687
C10   C     C_1   0.497375 0.466348 0.788188 -0.122858
C11   C     C_2   0.464626 0.032602 0.475170 0.513540
C12   C     C_R   0.742545 0.499774 0.497970 0.920735
C13   C     C_2   0.539180 0.967537 0.527539 0.228992
C14   C     C_1   0.527060 0.854756 0.519698 0.135446
C15   C     C_1   0.474204 0.145122 0.481221 0.191646
C16   C     C_R   0.501323 0.518873 0.314881 0.906996
C17   C     C_R   0.257216 0.499967 0.499233 0.945993
C18   C     C_3   0.919248 0.389542 0.475763 0.384147
C19   C     C_3   0.063521 0.387426 0.477587 0.674362
C20   C     C_3   0.933309 0.578565 0.416757 -0.395298
C21   C     C_3   0.927728 0.525146 0.599678 -0.578739
C22   C     C_3   0.878358 0.498315 0.497216 -0.083324
H1    H     H_    0.903979 0.656917 0.429993 0.209284
H2    H     H_    0.115942 0.657673 0.430422 0.232043
H3    H     H_    0.491329 0.385555 0.023369 0.132342
H4    H     H_    0.878954 0.332101 0.533490 0.116518
H5    H     H_    0.897627 0.560285 0.342987 0.219271
H6    H     H_    0.112566 0.564098 0.343786 0.184310
H7    H     H_    0.895160 0.601119 0.617731 0.234706
H8    H     H_    0.888613 0.467322 0.657439 0.163829
H9    H     H_    0.099738 0.464986 0.657781 0.182902
N1    N     N_1   0.479840 0.234530 0.484780 -0.077078
N2    N     N_1   0.520150 0.765470 0.515220 -0.081692
O1    O     O_R   0.492620 0.402510 0.634760 -0.618618
O2    O     O_R   0.505570 0.572960 0.644530 -0.582249
O3    O     O_R   0.678730 0.414780 0.495130 -0.587549
O4    O     O_R   0.691680 0.585220 0.504900 -0.636548
O5    O     O_R   0.494430 0.427040 0.355470 -0.586015
O6    O     O_R   0.507380 0.597490 0.365240 -0.617758
O7    O     O_R   0.308320 0.414780 0.495100 -0.551295
O8    O     O_R   0.321270 0.585220 0.504870 -0.591168
Zn1   Zn    Zn3+2 0.491360 0.386190 0.493470 1.065504
Zn2   Zn    Zn3+2 0.508640 0.613810 0.506530 1.019418
F1    F     F_    0.870963 0.361496 0.386285 -0.642634
O9    O     O_3   0.126417 0.619332 0.630328 -0.718967
H10   H     H_    0.089588 0.676742 0.590356 0.360244
O10   O     O_3   0.509717 0.640756 0.963293 -0.727602
H11   H     H_    0.513825 0.697207 0.008219 0.346579
O11   O     O_3   0.628281 0.008406 0.589321 -0.776712
H12   H     H_    0.674039 0.950859 0.621450 0.351110
F2    F     F_    0.376449 0.993636 0.414014 -0.657849
O12   O     O_3   0.097395 0.316010 0.554723 -0.795151
H13   H     H_    0.073186 0.246029 0.534722 0.375238
O13   O     O_3   0.110460 0.355052 0.388478 -0.694006
H14   H     H_    0.079451 0.399232 0.332399 0.353731

loop_
_geom_bond_atom_site_label_1
_geom_bond_atom_site_label_2
_ccdc_geom_bond_type
O4    Zn2   S    
C2    C4    S    
C5    C9    T    
C6    C7    D    
C20   H5    S    
C18   F1    S    
C12   O3    A    
C11   C13   D    
C21   H8    S    
O3    Zn1   S    
O10   H11   S    
C7    H3    S    
C20   H1    S    
C14   N2    T    
O7    Zn1   S    
C2    C3    S    
C15   N1    T    
C21   C22   S    
C2    C17   S    
C4    C21   S    
O8    Zn2   S    
C3    H2    S    
C11   C15   S    
C6    C9    S    
C13   O11   S    
C19   O13   S    
C3    H6    S    
C20   C22   S    
C1    O1    A    
O5    Zn1   S    
C4    O9    S    
C17   O8    A    
O9    H10   S    
C4    H9    S    
C11   F2    S    
C6    O10   S    
C16   O6    A    
N2    Zn2   S    
C12   C22   S    
C3    C20   S    
O2    Zn2   S    
O12   H13   S    
C1    O2    A    
C8    C10   T    
C18   C19   S    
C12   O4    A    
O11   H12   S    
C7    C8    S    
N1    Zn1   S    
O13   H14   S    
C5    C16   S    
O6    Zn2   S    
C13   C14   S    
C2    C19   S    
C18   C22   S    
C21   H7    S    
C19   O12   S    
C1    C10   S    
C16   O5    A    
O1    Zn1   S    
C17   O7    A    
C18   H4    S    
