data_mof_unit_11093.cif
_audit_creation_date              2012-12-10T18:09:32-0500
_audit_creation_method            fapswitch 2.2
_symmetry_space_group_name_H-M    P1
_symmetry_Int_Tables_number       1
_space_group_crystal_system       triclinic
_cell_length_a                    15.669407
_cell_length_b                    15.03909
_cell_length_c                    9.448599
_cell_angle_alpha                 88.591623
_cell_angle_beta                  90.430637
_cell_angle_gamma                 89.698394
_cell_volume                      2225.82800378

loop_
_atom_site_label
_atom_site_type_symbol
_atom_type_description
_atom_site_fract_x
_atom_site_fract_y
_atom_site_fract_z
_atom_type_partial_charge
C1    C     C_R   0.116530 0.376059 0.500755 0.828840
C2    C     C_R   0.118852 0.621658 0.499171 0.840762
C3    C     C_R   0.616530 0.876060 0.500756 0.828749
C4    C     C_R   0.618851 0.121658 0.499171 0.840672
C5    C     C_3   0.089059 0.505008 0.084183 -0.172793
C6    C     C_3   0.088657 0.508277 0.917479 -0.174857
C7    C     C_3   0.589059 0.005008 0.084183 -0.172805
C8    C     C_3   0.588656 0.008277 0.917479 -0.174842
C9    C     C_R   0.879010 0.381311 0.500430 0.860874
C10   C     C_R   0.879855 0.619521 0.499013 0.882078
C11   C     C_R   0.379009 0.881312 0.500431 0.860895
C12   C     C_R   0.379855 0.119521 0.499013 0.882043
C13   C     C_3   0.843474 0.223438 0.565321 0.168087
C14   C     C_3   0.781178 0.294910 0.344321 0.150269
C15   C     C_3   0.758626 0.677588 0.639799 0.158497
C16   C     C_3   0.846903 0.783022 0.494872 0.121021
C17   C     C_3   0.343476 0.723440 0.565317 0.168051
C18   C     C_3   0.281175 0.794915 0.344323 0.150257
C19   C     C_3   0.258599 0.177557 0.639764 0.158521
C20   C     C_3   0.346900 0.283022 0.494942 0.120994
C21   C     C_3   0.270798 0.653207 0.571690 -0.239608
C22   C     C_3   0.211986 0.721345 0.341668 -0.258554
C23   C     C_3   0.189334 0.251984 0.646216 -0.252356
C24   C     C_3   0.273041 0.351867 0.471569 -0.221996
C25   C     C_3   0.770797 0.153206 0.571691 -0.239645
C26   C     C_3   0.711987 0.221341 0.341666 -0.258537
C27   C     C_3   0.689357 0.752009 0.646245 -0.252371
C28   C     C_3   0.773040 0.851867 0.471529 -0.222062
C29   C     C_3   0.730341 0.345157 0.584669 -0.402119
C30   C     C_3   0.747556 0.673802 0.371037 -0.416587
C31   C     C_3   0.230342 0.845155 0.584675 -0.402085
C32   C     C_3   0.247579 0.173825 0.371002 -0.416572
C33   C     C_3   0.809562 0.313395 0.500157 -0.066083
C34   C     C_3   0.809809 0.686681 0.498859 -0.065552
C35   C     C_3   0.309561 0.813397 0.500158 -0.066090
C36   C     C_3   0.309808 0.186679 0.498860 -0.065578
C37   C     C_3   0.187228 0.691819 0.498103 -0.119621
C38   C     C_3   0.184558 0.305241 0.499960 -0.119862
C39   C     C_3   0.687227 0.191818 0.498103 -0.119645
C40   C     C_3   0.684559 0.805242 0.499967 -0.119780
C41   C     C_3   0.157894 0.775705 0.578815 -0.345961
C42   C     C_3   0.169185 0.236028 0.381609 -0.331113
C43   C     C_3   0.657894 0.275705 0.578814 -0.345895
C44   C     C_3   0.669164 0.736006 0.381655 -0.331077
C45   C     C_3   0.950948 0.575913 0.080561 0.263975
C46   C     C_3   0.950218 0.575402 0.912195 0.268473
C47   C     C_3   0.961282 0.418241 0.087909 0.329257
C48   C     C_3   0.964826 0.416402 0.920478 0.232120
C49   C     C_3   0.450947 0.075912 0.080562 0.263990
C50   C     C_3   0.450218 0.075402 0.912196 0.268523
C51   C     C_3   0.461283 0.918241 0.087909 0.329276
C52   C     C_3   0.464825 0.916403 0.920478 0.232114
Cu1   Cu    Cu3+1 0.000100 0.500000 0.642410 0.992725
Cu2   Cu    Cu3+1 0.000100 0.500000 0.357590 1.021024
Cu3   Cu    Cu3+1 0.500100 0.000000 0.642410 0.992723
Cu4   Cu    Cu3+1 0.500100 0.000000 0.357590 1.020981
H1    H     H_    0.893030 0.198078 0.492414 0.157378
H2    H     H_    0.837414 0.268490 0.287158 0.135154
H3    H     H_    0.802562 0.688803 0.730513 0.133512
H4    H     H_    0.875550 0.795436 0.600806 0.136528
H5    H     H_    0.393031 0.698082 0.492409 0.157321
H6    H     H_    0.337411 0.768498 0.287155 0.135149
H7    H     H_    0.302516 0.188744 0.730509 0.133529
H8    H     H_    0.375512 0.295419 0.600903 0.136538
H9    H     H_    0.292580 0.596787 0.508003 0.162261
H10   H     H_    0.241613 0.662180 0.293271 0.121558
H11   H     H_    0.209951 0.300235 0.727199 0.123215
H12   H     H_    0.281322 0.403663 0.552484 0.154112
H13   H     H_    0.792576 0.096786 0.508000 0.162267
H14   H     H_    0.741612 0.162174 0.293272 0.121529
H15   H     H_    0.709981 0.800276 0.727201 0.123229
H16   H     H_    0.781336 0.903661 0.552444 0.154114
H17   H     H_    0.746974 0.357480 0.696785 0.204936
H18   H     H_    0.706753 0.410444 0.542848 0.178707
H19   H     H_    0.726266 0.603541 0.365895 0.172362
H20   H     H_    0.780489 0.687520 0.269277 0.211565
H21   H     H_    0.246976 0.857474 0.696790 0.204942
H22   H     H_    0.206755 0.910443 0.542859 0.178757
H23   H     H_    0.226289 0.103567 0.365815 0.172393
H24   H     H_    0.280532 0.187559 0.269268 0.211586
H25   H     H_    0.137551 0.757589 0.687958 0.235144
H26   H     H_    0.100689 0.806632 0.528132 0.228703
H27   H     H_    0.111901 0.195194 0.402363 0.205575
H28   H     H_    0.155878 0.268640 0.277160 0.249664
H29   H     H_    0.637554 0.257589 0.687958 0.235140
H30   H     H_    0.600688 0.306631 0.528134 0.228730
H31   H     H_    0.611886 0.695171 0.402459 0.205537
H32   H     H_    0.655831 0.768594 0.277197 0.249740
H33   H     H_    0.883441 0.569852 0.116592 0.050709
H34   H     H_    0.882504 0.567230 0.877435 0.076182
H35   H     H_    0.892632 0.417447 0.118175 0.097039
H36   H     H_    0.897933 0.408096 0.881865 0.065436
H37   H     H_    0.383440 0.069850 0.116592 0.050692
H38   H     H_    0.382503 0.067228 0.877436 0.076104
H39   H     H_    0.392632 0.917446 0.118177 0.097030
H40   H     H_    0.397931 0.908099 0.881867 0.065428
H41   H     H_    0.122522 0.564396 0.123574 0.200894
H42   H     H_    0.116718 0.571955 0.882038 0.238816
H43   H     H_    0.127658 0.446878 0.121883 0.208830
H44   H     H_    0.130918 0.455117 0.877548 0.190512
H45   H     H_    0.622523 0.064395 0.123575 0.200881
H46   H     H_    0.616717 0.071955 0.882038 0.238816
H47   H     H_    0.627657 0.946878 0.121882 0.208909
H48   H     H_    0.630918 0.955117 0.877548 0.190524
N1    N     N_3   0.001260 0.500000 0.143650 -0.187827
N2    N     N_3   0.001260 0.500000 0.856350 -0.202922
N3    N     N_3   0.501260 0.000000 0.143650 -0.187836
N4    N     N_3   0.501260 1.000000 0.856350 -0.202929
O1    O     O_R   0.091250 0.408820 0.620260 -0.595312
O2    O     O_R   0.091250 0.408820 0.379740 -0.555322
O3    O     O_R   0.091250 0.591180 0.620260 -0.562342
O4    O     O_R   0.091250 0.591180 0.379740 -0.558626
O5    O     O_R   0.591250 0.908820 0.620260 -0.595305
O6    O     O_R   0.591250 0.908820 0.379740 -0.555341
O7    O     O_R   0.591250 0.091180 0.620260 -0.562320
O8    O     O_R   0.591250 0.091180 0.379740 -0.558693
O9    O     O_R   0.908940 0.408800 0.620260 -0.610489
O10   O     O_R   0.908940 0.408800 0.379740 -0.557983
O11   O     O_R   0.908940 0.591200 0.620260 -0.564476
O12   O     O_R   0.908940 0.591200 0.379740 -0.571690
O13   O     O_R   0.408940 0.908800 0.620260 -0.610488
O14   O     O_R   0.408940 0.908800 0.379740 -0.557980
O15   O     O_R   0.408940 0.091200 0.620260 -0.564476
O16   O     O_R   0.408940 0.091200 0.379740 -0.571740
O17   O     O_3   0.885000 0.232430 0.696922 -0.682211
H49   H     H_    0.848897 0.268045 0.759658 0.356773
O18   O     O_3   0.756631 0.373796 0.269783 -0.720395
H50   H     H_    0.704591 0.398235 0.313466 0.339206
O19   O     O_3   0.726829 0.590469 0.660648 -0.714948
H51   H     H_    0.682668 0.579527 0.587669 0.331291
O20   O     O_3   0.914260 0.795146 0.398907 -0.664115
H52   H     H_    0.897822 0.768163 0.308626 0.372709
O21   O     O_3   0.385003 0.732430 0.696916 -0.682173
H53   H     H_    0.348902 0.768045 0.759654 0.356771
O22   O     O_3   0.256625 0.873802 0.269793 -0.720394
H54   H     H_    0.204584 0.898236 0.313477 0.339206
O23   O     O_3   0.226789 0.090440 0.660537 -0.714974
H55   H     H_    0.182633 0.079527 0.587542 0.331303
O24   O     O_3   0.414284 0.295168 0.399042 -0.664195
H56   H     H_    0.397909 0.268134 0.308777 0.372801
C53   C     C_2   0.259762 0.613738 0.720020 0.944734
O25   O     O_2   0.238159 0.660493 0.817682 -0.597461
O26   O     O_R   0.279183 0.523979 0.745896 -0.793437
H57   H     H_    0.275543 0.506302 0.849872 0.318662
C54   C     C_2   0.140151 0.747673 0.240283 1.000591
O27   O     O_2   0.073739 0.779587 0.283114 -0.555189
O28   O     O_R   0.153567 0.740779 0.094760 -0.719210
H58   H     H_    0.103883 0.764639 0.035654 0.365327
C55   C     C_2   0.106472 0.213162 0.700337 0.960543
O29   O     O_2   0.044544 0.206486 0.622508 -0.617186
O30   O     O_R   0.102911 0.180677 0.840142 -0.692453
H59   H     H_    0.045259 0.154368 0.864542 0.362432
C56   C     C_2   0.277661 0.400286 0.327591 0.945489
O31   O     O_2   0.276845 0.359264 0.217450 -0.632179
O32   O     O_R   0.284625 0.492578 0.321286 -0.810860
H60   H     H_    0.288233 0.516959 0.220503 0.319849
C57   C     C_2   0.759760 0.113733 0.720018 0.944729
O33   O     O_2   0.738160 0.160487 0.817683 -0.597457
O34   O     O_R   0.779178 0.023973 0.745889 -0.793445
H61   H     H_    0.775539 0.006294 0.849864 0.318662
C58   C     C_2   0.640153 0.247672 0.240282 1.000603
O35   O     O_2   0.573743 0.279592 0.283112 -0.555263
O36   O     O_R   0.653567 0.240772 0.094759 -0.719203
H62   H     H_    0.603884 0.264634 0.035653 0.365335
C59   C     C_2   0.606506 0.713184 0.700418 0.960577
O37   O     O_2   0.544566 0.706484 0.622619 -0.617143
O38   O     O_R   0.602971 0.680723 0.840241 -0.692432
H63   H     H_    0.545327 0.654407 0.864679 0.362416
C60   C     C_2   0.777649 0.900289 0.327552 0.945361
O39   O     O_2   0.776700 0.859276 0.217396 -0.632222
O40   O     O_R   0.784781 0.992572 0.321267 -0.810755
H64   H     H_    0.788364 0.016957 0.220481 0.319877
O41   O     O_3   0.982845 0.656255 0.130216 -0.651058
H65   H     H_    0.939134 0.702503 0.107592 0.316800
O42   O     O_3   0.981135 0.656373 0.855154 -0.675145
H66   H     H_    0.933983 0.700506 0.859337 0.297837
O43   O     O_3   0.000721 0.342413 0.150036 -0.655985
H67   H     H_    0.962464 0.291326 0.132785 0.328949
O44   O     O_3   0.013585 0.342833 0.881582 -0.674912
H68   H     H_    0.996193 0.329285 0.784511 0.392872
O45   O     O_3   0.482844 0.156256 0.130215 -0.651104
H69   H     H_    0.439123 0.202499 0.107628 0.316818
O46   O     O_3   0.481131 0.156373 0.855155 -0.675126
H70   H     H_    0.433978 0.200505 0.859338 0.297851
O47   O     O_3   0.500722 0.842413 0.150035 -0.655973
H71   H     H_    0.462465 0.791327 0.132786 0.328935
O48   O     O_3   0.513582 0.842835 0.881581 -0.674917
H72   H     H_    0.496191 0.829288 0.784511 0.392885

loop_
_geom_bond_atom_site_label_1
_geom_bond_atom_site_label_2
_ccdc_geom_bond_type
C16   C28   S    
C9    C33   S    
O40   H64   S    
Cu3   O13   S    
C57   O33   D    
Cu2   O12   S    
C9    O9    A    
C60   O39   D    
C4    O7    A    
C50   O46   S    
Cu3   Cu4   S    
C30   C44   S    
C14   C33   S    
C58   O35   D    
C7    C8    S    
C49   N3    S    
C5    N1    S    
C45   C46   S    
C2    O4    A    
C59   O37   D    
Cu4   O16   S    
C20   O24   S    
C38   C42   S    
C19   C36   S    
C55   O30   S    
O34   H61   S    
C5    C6    S    
Cu1   O9    S    
C26   C39   S    
C29   H17   S    
C28   C40   S    
O26   H57   S    
C29   C33   S    
Cu2   O2    S    
C21   C37   S    
C16   H4    S    
C23   H11   S    
C16   O20   S    
C22   H10   S    
C10   O11   A    
O28   H58   S    
C58   O36   S    
C53   O25   D    
Cu1   N2    S    
C48   N2    S    
C11   O13   A    
C19   H7    S    
C47   N1    S    
C12   O16   A    
C46   H34   S    
C24   C38   S    
O30   H59   S    
C22   C54   S    
C31   H21   S    
C52   O48   S    
C12   C36   S    
C44   H31   S    
C45   H33   S    
C18   C35   S    
C15   C34   S    
C13   O17   S    
Cu1   O3    S    
C23   C55   S    
C41   H25   S    
C59   O38   S    
C7    H47   S    
C29   C43   S    
C50   N4    S    
C9    O10   A    
C60   O40   S    
C13   C25   S    
C28   H16   S    
C15   H3    S    
C8    N4    S    
C54   O28   S    
C45   N1    S    
C54   O27   D    
C6    N2    S    
C14   H2    S    
Cu3   O15   S    
C2    O3    A    
C30   C34   S    
C51   C52   S    
C43   H29   S    
C20   C24   S    
O22   H54   S    
C42   H28   S    
C3    O5    A    
O38   H63   S    
C50   H38   S    
C1    O1    A    
C29   H18   S    
Cu3   O5    S    
O45   H69   S    
C22   C37   S    
C17   C21   S    
C14   O18   S    
Cu4   O14   S    
C20   H8    S    
C19   C23   S    
O46   H70   S    
Cu4   N3    S    
C13   C33   S    
C51   O47   S    
C45   O41   S    
C1    O2    A    
C32   H24   S    
C30   H20   S    
C15   C27   S    
C47   C48   S    
C15   O19   S    
C4    C39   S    
C27   C40   S    
C19   O23   S    
C16   C34   S    
Cu1   O11   S    
Cu4   O8    S    
Cu2   O4    S    
C18   O22   S    
C10   C34   S    
C14   C26   S    
C8    H48   S    
C1    C38   S    
C27   C59   S    
C49   O45   S    
C51   N3    S    
C5    H41   S    
C3    C40   S    
C49   C50   S    
Cu2   O10   S    
C25   C57   S    
O21   H53   S    
C26   H14   S    
C7    N3    S    
C11   O14   A    
C56   O32   S    
C17   H5    S    
O20   H52   S    
C6    H42   S    
C27   H15   S    
C24   C56   S    
C31   H22   S    
O19   H51   S    
C25   H13   S    
Cu1   O1    S    
C32   C42   S    
C31   C41   S    
Cu2   N1    S    
C21   H9    S    
C18   C22   S    
C43   H30   S    
C47   H35   S    
C4    O8    A    
C18   H6    S    
C42   H27   S    
C3    O6    A    
C39   C43   S    
O24   H56   S    
C32   C36   S    
Cu1   Cu2   S    
C5    H43   S    
C23   C38   S    
O23   H55   S    
C26   C58   S    
Cu3   N4    S    
C53   O26   S    
C21   C53   S    
O48   H72   S    
C47   O43   S    
O42   H66   S    
C55   O29   D    
C25   C39   S    
C32   H23   S    
C17   O21   S    
C30   H19   S    
C2    C37   S    
O47   H71   S    
O17   H49   S    
C12   O15   A    
Cu3   O7    S    
C41   H26   S    
C46   N2    S    
C11   C35   S    
C52   H40   S    
C31   C35   S    
C37   C41   S    
O36   H62   S    
C10   O12   A    
C48   H36   S    
C24   H12   S    
O41   H65   S    
O44   H68   S    
C20   C36   S    
C28   C60   S    
C40   C44   S    
C13   H1    S    
C52   N4    S    
C57   O34   S    
O43   H67   S    
C7    H45   S    
C51   H39   S    
O32   H60   S    
Cu4   O6    S    
C46   O42   S    
C17   C35   S    
C49   H37   S    
C56   O31   D    
C44   H32   S    
C8    H46   S    
C48   O44   S    
O18   H50   S    
C6    H44   S    
