data_mof_unit_35056.cif
_audit_creation_date              2012-12-11T19:20:43-0500
_audit_creation_method            fapswitch 2.2
_symmetry_space_group_name_H-M    P1
_symmetry_Int_Tables_number       1
_space_group_crystal_system       triclinic
_cell_length_a                    8.248125
_cell_length_b                    15.057276
_cell_length_c                    18.902212
_cell_angle_alpha                 102.617331
_cell_angle_beta                  91.957196
_cell_angle_gamma                 99.001222
_cell_volume                      2256.95053729

loop_
_atom_site_label
_atom_site_type_symbol
_atom_type_description
_atom_site_fract_x
_atom_site_fract_y
_atom_site_fract_z
_atom_type_partial_charge
Ba1   Ba    Ba6+2 0.853510 0.540900 0.466480 1.651115
Ba2   Ba    Ba6+2 0.336320 0.459170 0.533530 1.660265
C1    C     C_3   0.666775 0.869200 0.301962 -0.130166
C2    C     C_R   0.888322 0.407572 0.089342 -0.037586
C3    C     C_R   0.722938 0.369358 0.063211 -0.049932
C4    C     C_3   0.206151 0.762891 0.275881 0.212513
C5    C     C_R   0.667572 0.366900 0.990797 -0.055569
C6    C     C_R   0.775492 0.407212 0.945338 -0.039619
C7    C     C_R   0.938731 0.447234 0.971347 0.036672
C8    C     C_R   0.720565 0.411266 0.874993 -0.119431
C9    C     C_R   0.823762 0.450962 0.828689 -0.029565
C10   C     C_R   0.987368 0.492482 0.854318 0.019658
C11   C     C_R   0.044411 0.489637 0.925877 0.013313
C12   C     C_3   0.652240 0.774211 0.321540 0.377441
C13   C     C_R   0.764891 0.451825 0.757857 -0.023478
C14   C     C_R   0.869091 0.493422 0.713150 -0.303218
C15   C     C_R   0.030563 0.536759 0.736192 0.029320
C16   C     C_3   0.170606 0.774125 0.197530 -0.022105
C17   C     C_R   0.090355 0.540411 0.810163 -0.062823
C18   C     C_R   0.159016 0.485939 0.069159 0.048302
C19   C     C_R   0.215771 0.488754 0.141931 0.016239
C20   C     C_R   0.108333 0.451068 0.189354 -0.026572
C21   C     C_R   0.949087 0.406746 0.160522 -0.035068
C22   C     C_R   0.245110 0.591417 0.843225 0.031110
C23   C     C_3   0.574208 0.267290 0.299131 0.385222
C24   C     C_R   0.310068 0.576731 0.909525 0.018871
C25   C     C_R   0.207143 0.528965 0.952119 0.012975
C26   C     C_R   0.265125 0.525418 0.022999 0.086678
C27   C     C_R   0.474394 0.613127 0.936420 -0.043160
C28   C     C_3   0.291055 0.756811 0.654551 0.263899
C29   C     C_R   0.533972 0.604397 0.003761 -0.067109
C30   C     C_R   0.429429 0.563217 0.048241 0.066218
C31   C     C_R   0.379978 0.530333 0.167160 -0.057190
C32   C     C_R   0.486498 0.563166 0.118620 -0.113420
C33   C     C_R   0.431972 0.540886 0.240856 -0.007690
C34   C     C_3   0.611479 0.196460 0.233451 -0.244734
C35   C     C_R   0.320984 0.510208 0.288479 -0.265025
C36   C     C_R   0.163116 0.461281 0.264255 0.053349
C37   C     C_R   0.342173 0.816435 0.446405 -0.013288
C38   C     C_R   0.578777 0.790002 0.515090 0.078248
C39   C     C_R   0.751086 0.231042 0.527013 -0.104632
C40   C     C_3   0.193948 0.797389 0.603479 -0.344792
C41   C     C_R   0.852926 0.174240 0.549151 -0.007258
C42   C     C_R   0.796857 0.079228 0.536831 -0.156380
C43   C     C_R   0.638921 0.039621 0.501780 0.008621
C44   C     C_R   0.547447 0.097552 0.472041 -0.046586
C45   C     C_3   0.013136 0.234229 0.722680 0.449044
C46   C     C_R   0.570195 0.944272 0.493503 0.007068
C47   C     C_R   0.413549 0.909606 0.454737 -0.024925
C48   C     C_R   0.330499 0.968508 0.424855 -0.109186
C49   C     C_R   0.396633 0.059938 0.432747 -0.051251
C50   C     C_R   0.648503 0.883077 0.524676 -0.091161
C51   C     C_R   0.428695 0.756633 0.474188 -0.288962
C52   C     C_3   0.982165 0.253956 0.374310 0.332396
C53   C     C_R   0.607366 0.192657 0.483178 0.043299
C54   C     C_3   0.996197 0.152147 0.354511 -0.350422
C55   C     C_3   0.759384 0.695778 0.693796 0.240352
C56   C     C_3   0.104378 0.276097 0.797328 -0.297766
C57   C     C_3   0.824544 0.753026 0.769838 -0.218747
C58   C     C_2   0.839494 0.695284 0.823996 0.430620
C59   C     C_2   0.318772 0.759968 0.154501 0.447864
C60   C     C_2   0.605771 0.335474 0.112664 0.523806
C61   C     C_2   0.496569 0.322145 0.962096 0.556754
C62   C     C_2   0.315663 0.677100 0.822005 0.510122
C63   C     C_2   0.140415 0.871417 0.199984 0.639207
C64   C     C_2   0.397109 0.835044 0.708010 0.503140
C65   C     C_3   0.528724 0.224681 0.682308 0.409112
C66   C     C_3   0.471505 0.128031 0.695063 -0.084080
C67   C     C_R   0.995322 0.446683 0.043232 0.028806
H1    H     H_    0.728977 0.779800 0.372184 0.092890
H2    H     H_    0.861110 0.667280 0.665247 0.014372
H3    H     H_    0.659569 0.638398 0.697317 0.057841
H4    H     H_    0.945628 0.795613 0.766313 0.105264
H5    H     H_    0.738700 0.801153 0.790610 0.154688
H6    H     H_    0.522552 0.751807 0.331639 -0.124569
H7    H     H_    0.566772 0.905087 0.325165 0.071207
H8    H     H_    0.691924 0.301310 0.328561 0.079974
H9    H     H_    0.497961 0.166115 0.197552 0.162064
H10   H     H_    0.659093 0.139678 0.251784 0.086553
H11   H     H_    0.706831 0.228630 0.202651 0.096783
H12   H     H_    0.271851 0.853687 0.584992 0.076159
H13   H     H_    0.652388 0.860791 0.242093 0.150098
H14   H     H_    0.945079 0.287559 0.709541 -0.025863
H15   H     H_    0.188843 0.340498 0.795585 0.142634
H16   H     H_    0.015635 0.293249 0.838988 0.067274
H17   H     H_    0.176963 0.226806 0.813653 0.121726
H18   H     H_    0.664810 0.237541 0.683649 -0.074348
H19   H     H_    0.477689 0.225217 0.627296 0.050285
H20   H     H_    0.535964 0.078493 0.658669 0.100352
H21   H     H_    0.234670 0.692576 0.273928 0.001135
H22   H     H_    0.337348 0.106101 0.680563 0.117093
H23   H     H_    0.145392 0.741362 0.555878 0.148092
H24   H     H_    0.820872 0.495629 0.659776 0.068943
H25   H     H_    0.593756 0.385694 0.856858 0.089125
H26   H     H_    0.870771 0.372358 0.194095 0.074672
H27   H     H_    0.559839 0.648481 0.905984 0.126839
H28   H     H_    0.661059 0.633281 0.022222 0.105965
H29   H     H_    0.613450 0.592888 0.135752 0.098384
H30   H     H_    0.314420 0.815273 0.299911 -0.096538
H31   H     H_    0.360835 0.521302 0.345315 0.068270
H32   H     H_    0.373814 0.685100 0.468346 0.074390
H33   H     H_    0.212686 0.945169 0.394404 0.081279
H34   H     H_    0.091088 0.826819 0.631104 0.127281
H35   H     H_    0.761788 0.906062 0.558371 0.090752
H36   H     H_    0.879738 0.038316 0.554296 0.085045
H37   H     H_    0.324274 0.100827 0.408719 0.114215
H38   H     H_    0.369791 0.711284 0.623569 0.029382
H39   H     H_    0.918340 0.898843 0.305755 0.241027
H40   H     H_    0.838585 0.935443 0.386101 0.182260
H41   H     H_    0.753997 0.631880 0.820043 0.018718
H42   H     H_    0.373293 0.306077 0.255031 0.179308
H43   H     H_    0.482401 0.386310 0.323085 0.156128
H44   H     H_    0.427986 0.743989 0.179183 -0.033093
H45   H     H_    0.863178 0.260879 0.397643 -0.110633
H46   H     H_    0.962495 0.101052 0.736059 0.187777
H47   H     H_    0.823137 0.167062 0.768488 0.183718
H48   H     H_    0.420819 0.154803 0.801902 0.197236
H49   H     H_    0.491387 0.055974 0.773717 0.215986
H50   H     H_    0.599529 0.378305 0.165982 0.010406
H51   H     H_    0.475518 0.275249 0.909103 -0.013267
H52   H     H_    0.242586 0.731489 0.825315 0.047204
H53   H     H_    0.881864 0.354332 0.518980 0.199249
H54   H     H_    0.821770 0.346783 0.605045 0.143377
H55   H     H_    0.922779 0.719390 0.185530 0.260328
H56   H     H_    0.079145 0.288971 0.416901 0.105467
H57   H     H_    0.045665 0.639995 0.165698 0.162093
H58   H     H_    0.229194 0.929801 0.229770 -0.085269
H59   H     H_    0.378824 0.846418 0.765611 0.031827
H60   H     H_    0.894361 0.113401 0.314487 0.134011
H61   H     H_    0.989681 0.123328 0.403790 0.074589
H62   H     H_    0.115203 0.143352 0.330466 0.137965
N1    N     N_3   0.822823 0.928991 0.329979 -0.499810
N2    N     N_3   0.492897 0.336444 0.276301 -0.501389
N3    N     N_3   0.896791 0.151205 0.725158 -0.510585
N4    N     N_3   0.508671 0.125196 0.770513 -0.487681
N5    N     N_3   0.789737 0.329069 0.549439 -0.448776
N6    N     N_3   0.029570 0.705796 0.160457 -0.432889
O1    O     O_2   0.871970 0.437290 0.322980 -0.468760
O2    O     O_2   0.189005 0.180080 0.536167 -0.494976
O3    O     O_3   0.129227 0.210306 0.672142 -0.572060
O4    O     O_3   0.121420 0.444460 0.412460 -0.504409
O5    O     O_3   0.580410 0.613230 0.540280 -0.492411
O6    O     O_2   0.337420 0.273080 0.457680 -0.456796
O7    O     O_3   0.470927 0.220852 0.341023 -0.656271
O8    O     O_2   0.428039 0.463088 0.754717 -0.474876
O9    O     O_3   0.473030 0.292101 0.735362 -0.596784
O10   O     O_3   0.661430 0.607560 0.372520 -0.476467
O11   O     O_2   0.776290 0.544252 0.246571 -0.484396
O12   O     O_3   0.695288 0.755639 0.657799 -0.599318
O13   O     O_3   0.993551 0.289544 0.311377 -0.645939
O14   O     O_3   0.700818 0.709355 0.264298 -0.607881
O15   O     O_2   0.852280 0.726960 0.542370 -0.476038
O16   O     O_3   0.083990 0.657360 0.410240 -0.457873
O17   O     O_2   0.002759 0.819445 0.455446 -0.504748
O18   O     O_2   0.942287 0.721820 0.875335 -0.565236
O19   O     O_2   0.317275 0.765794 0.091028 -0.523823
O20   O     O_2   0.517351 0.260155 0.094372 -0.554962
O21   O     O_2   0.378035 0.338682 0.996444 -0.573570
O22   O     O_2   0.454125 0.687997 0.801295 -0.640325
O23   O     O_3   0.072218 0.777559 0.318422 -0.586464
O24   O     O_2   0.018692 0.885870 0.168541 -0.535299
O25   O     O_2   0.502518 0.888039 0.687201 -0.620430
O26   O     O_2   0.317740 0.562750 0.677070 -0.434925
O27   O     O_3   0.068290 0.555610 0.587550 -0.489278
O28   O     O_3   0.528280 0.392520 0.627490 -0.453817
O29   O     O_3   0.178275 0.710375 0.693338 -0.691569
O30   O     O_3   0.609300 0.386850 0.459730 -0.458404
O31   O     O_3   0.105720 0.342720 0.589770 -0.480637
P1    P     P_3+3 0.039440 0.410950 0.333260 0.970055
P2    P     P_3+3 0.676740 0.714970 0.563520 1.009302
P3    P     P_3+3 0.127314 0.771779 0.407663 0.955806
P4    P     P_3+3 0.150270 0.589130 0.666750 0.985774
P5    P     P_3+3 0.066128 0.224510 0.586575 0.960089
P6    P     P_3+3 0.642004 0.598321 0.279569 0.965569
P7    P     P_3+3 0.515979 0.268706 0.433906 0.947559
P8    P     P_3+3 0.550395 0.401277 0.720312 0.960874

loop_
_geom_bond_atom_site_label_1
_geom_bond_atom_site_label_2
_ccdc_geom_bond_type
C56   H16   S    
H57   N6    S    
O29   P4    S    
C28   H38   S    
C39   C41   A    
O6    P7    D    
H43   N2    S    
C40   H34   S    
C38   P2    S    
O10   P6    S    
C5    C6    A    
C52   O13   S    
C37   C51   A    
C42   H36   S    
O28   P8    S    
C10   C11   A    
C64   O25   D    
C14   H24   S    
C13   P8    S    
C21   H26   S    
C23   H8    S    
C63   H58   S    
C33   C35   A    
C22   C24   A    
C55   C57   S    
O13   P1    S    
C19   C31   A    
C8    H25   S    
C13   C14   A    
C20   C36   A    
Ba1   P2    S    
C66   H22   S    
O7    P7    S    
Ba1   O15   S    
Ba1   Ba2   S    
Ba1   O10   S    
C7    C11   A    
C39   C53   A    
C37   P3    S    
Ba1   O5    S    
C31   C33   A    
C9    C13   A    
Ba1   O27   S    
C51   H32   S    
O3    P5    S    
C55   O12   S    
C44   C53   A    
O17   P3    D    
C45   H14   S    
C23   N2    S    
C57   H4    S    
C54   H60   S    
O5    P2    S    
C57   C58   S    
C22   C62   S    
O14   P6    S    
C19   C20   A    
O1    P1    D    
Ba2   O6    S    
C12   H1    S    
C40   H12   S    
C65   O9    S    
C56   H17   S    
C2    C67   A    
C66   H20   S    
O31   P5    S    
C4    C16   S    
C52   H56   S    
C52   C54   S    
C15   P4    S    
C35   H31   S    
O12   P2    S    
H55   N6    S    
C26   C30   A    
Ba1   O4    S    
C28   O29   S    
C34   H11   S    
Ba2   O27   S    
C3    C5    A    
C2    C21   A    
C6    C7    A    
C18   C26   A    
C48   C49   A    
C38   C50   A    
C44   C49   A    
O11   P6    D    
C65   C66   S    
O9    P8    S    
C16   C63   S    
C30   C32   A    
C12   O14   S    
C16   N6    S    
C41   C42   A    
C35   C36   A    
C1    H7    S    
C56   H15   S    
O15   P2    D    
C29   C30   A    
C57   H5    S    
O8    P8    D    
C9    C10   A    
C53   P7    S    
O16   P3    S    
C1    H13   S    
O4    P1    S    
C31   C32   A    
C24   C25   A    
C60   O20   D    
C55   H2    S    
Ba1   O16   S    
O26   P4    D    
Ba2   O28   S    
C5    C61   S    
C60   H50   S    
C28   C64   S    
C1    C12   S    
C46   C47   A    
C37   C47   A    
C48   H33   S    
C45   N3    S    
C59   H44   S    
Ba2   O5    S    
C18   C67   A    
O2    P5    D    
C23   O7    S    
H53   N5    S    
C15   C17   A    
H48   N4    S    
C59   O19   D    
Ba2   O31   S    
C42   C43   A    
C36   P1    S    
O30   P7    S    
C43   C46   A    
O27   P4    S    
C50   H35   S    
C33   P6    S    
C28   C40   S    
C66   N4    S    
H42   N2    S    
C7    C67   A    
C2    C3    A    
C34   H10   S    
Ba2   O26   S    
C27   H27   S    
C4    O23   S    
C1    N1    S    
C38   C51   A    
C16   C59   S    
C65   H19   S    
H46   N3    S    
H40   N1    S    
C65   H18   S    
H54   N5    S    
C4    H30   S    
C17   C22   A    
C58   O18   D    
C27   C29   A    
C4    H21   S    
C12   H6    S    
C45   C56   S    
C61   H51   S    
C41   P5    S    
C14   C15   A    
C49   H37   S    
C52   H45   S    
C10   C17   A    
Ba1   P1    S    
C32   H29   S    
O23   P3    S    
C64   H59   S    
C3    C60   S    
C40   H23   S    
C62   O22   D    
C29   H28   S    
C55   H3    S    
H39   N1    S    
C54   H62   S    
C58   H41   S    
C8    C9    A    
H49   N4    S    
C23   C34   S    
C43   C44   A    
C46   C50   A    
C45   O3    S    
H47   N3    S    
C18   C19   A    
C24   C27   A    
C6    C8    A    
C47   C48   A    
C63   O24   D    
C25   C26   A    
Ba2   O4    S    
Ba1   O30   S    
C20   C21   A    
C11   C25   A    
C34   H9    S    
C61   O21   D    
Ba2   O30   S    
C39   N5    S    
C54   H61   S    
Ba1   O1    S    
C62   H52   S    
Ba2   P4    S    
