data_mof_unit_22408.cif
_audit_creation_date              2013-03-05T16:35:44-0500
_audit_creation_method            fapswitch 2.2
_symmetry_space_group_name_H-M    P1
_symmetry_Int_Tables_number       1
_space_group_crystal_system       triclinic
_cell_length_a                    19.327057
_cell_length_b                    9.081593
_cell_length_c                    7.79208
_cell_angle_alpha                 90.095002
_cell_angle_beta                  89.999957
_cell_angle_gamma                 90.0
_cell_volume                      1367.66762924

loop_
_atom_site_label
_atom_site_type_symbol
_atom_site_description
_atom_site_fract_x
_atom_site_fract_y
_atom_site_fract_z
_atom_type_partial_charge
O1    O     O_R   0.500000 0.288390 0.642760 -0.580158
O2    O     O_R   0.500000 0.711610 0.357240 -0.580159
O3    O     O_R   0.500000 0.711610 0.642760 -0.575894
O4    O     O_R   0.500000 0.288390 0.357240 -0.575894
C1    C     C_R   0.500000 0.220059 0.499921 0.830890
C2    C     C_R   0.500000 0.779941 0.500079 0.830890
O5    O     O_R   0.400140 0.500000 0.642830 -0.577848
O6    O     O_R   0.599860 0.500000 0.357170 -0.577845
O7    O     O_R   0.599860 0.500000 0.642830 -0.577845
O8    O     O_R   0.400140 0.500000 0.357170 -0.577848
C3    C     C_R   0.367480 0.500000 0.500000 0.869418
C4    C     C_R   0.632521 0.500000 0.500000 0.869368
Cu1   Cu    Cu3+1 0.500000 0.500000 0.669080 1.003880
Cu2   Cu    Cu3+1 0.500000 0.500000 0.330920 1.003880
C5    C     C_1   0.500000 0.065400 0.499887 -0.173567
C6    C     C_1   0.500000 0.934600 0.500113 -0.173567
N1    N     N_1   0.500000 0.500000 0.076820 -0.042943
N2    N     N_1   0.500000 0.500000 0.923180 -0.042943
C7    C     C_R   0.255632 0.369573 0.540598 0.000069
C8    C     C_R   0.744372 0.630405 0.459378 0.000002
C9    C     C_R   0.744372 0.369596 0.540621 0.000002
C10   C     C_R   0.255632 0.630427 0.459403 0.000070
C11   C     C_R   0.183056 0.370638 0.540306 0.605138
C12   C     C_R   0.816948 0.629345 0.459670 0.605147
C13   C     C_R   0.816948 0.370656 0.540330 0.605147
C14   C     C_R   0.183056 0.629363 0.459696 0.605138
C15   C     C_R   0.146518 0.500000 0.500001 -0.276203
C16   C     C_R   0.853488 0.500001 0.500001 -0.276109
C17   C     C_R   0.291816 0.500000 0.500000 -0.190840
C18   C     C_R   0.708188 0.500000 0.500000 -0.190739
N3    N     N_R   0.034410 0.590600 0.393842 -0.118652
N4    N     N_R   0.965599 0.409402 0.606160 -0.118636
N5    N     N_R   0.965599 0.590599 0.393842 -0.118636
N6    N     N_R   0.034410 0.409401 0.606160 -0.118652
C19   C     C_R   0.929827 0.500001 0.500001 0.502603
C20   C     C_R   0.070181 0.500000 0.500001 0.502600
C21   C     C_3   0.294365 0.229084 0.580887 -0.712535
H1    H     H_    0.259286 0.134863 0.606189 0.287109
H2    H     H_    0.327996 0.198705 0.470795 0.200723
H3    H     H_    0.327014 0.245351 0.696602 0.225174
C22   C     C_3   0.705635 0.770858 0.419057 -0.712634
H4    H     H_    0.740716 0.865060 0.393745 0.287148
H5    H     H_    0.672991 0.754552 0.303349 0.225212
H6    H     H_    0.671997 0.801233 0.529130 0.200743
C23   C     C_3   0.705635 0.229141 0.580939 -0.712634
H7    H     H_    0.671997 0.198769 0.470865 0.200742
H8    H     H_    0.740716 0.134939 0.606247 0.287148
H9    H     H_    0.672991 0.245445 0.696648 0.225213
C24   C     C_3   0.294365 0.770917 0.419113 -0.712534
H10   H     H_    0.327997 0.801295 0.529205 0.200723
H11   H     H_    0.327014 0.754649 0.303398 0.225174
H12   H     H_    0.259287 0.865137 0.393812 0.287109
F1    F     F_    0.147948 0.244411 0.574990 -0.592771
F2    F     F_    0.852058 0.755549 0.424947 -0.592803
F3    F     F_    0.852058 0.244452 0.575053 -0.592803
F4    F     F_    0.147948 0.755590 0.425012 -0.592771

loop_
_geom_bond_atom_site_label_1
_geom_bond_atom_site_label_2
_geom_bond_distance
_ccdc_geom_bond_type
C7    C11   1.402708 A    
N3    N5    1.329928 A    
C21   H1    1.109619 S    
C10   C17   1.411873 A    
C11   C15   1.406682 A    
C15   C20   1.475358 S    
C9    C18   1.411743 A    
N6    C20   1.357000 A    
O3    Cu1   1.933006 S    
O6    C4    1.279499 A    
O3    C2    1.274138 A    
C22   H6    1.110680 S    
C24   H12   1.109618 S    
C8    C22   1.512473 S    
C21   H2    1.110727 S    
O4    Cu2   1.933007 S    
C8    C18   1.411744 A    
C23   H7    1.110681 S    
C13   C16   1.406602 A    
O5    C3    1.279481 A    
C22   H5    1.110146 S    
Cu2   N1    1.979967 S    
C14   C15   1.406681 A    
O2    C2    1.273419 A    
Cu1   N2    1.979967 S    
C10   C24   1.512655 S    
O1    C1    1.273419 A    
N5    C19   1.357003 A    
C13   F3    1.359532 S    
C11   F1    1.359629 S    
C21   H3    1.110198 S    
C9    C23   1.512473 S    
C23   H8    1.109527 S    
C10   C14   1.402708 A    
O2    Cu2   1.932330 S    
O7    C4    1.279499 A    
C1    C5    1.404550 S    
O1    Cu1   1.932331 S    
O8    C3    1.279481 A    
C12   F2    1.359531 S    
C5    C6    1.187879 T    
C7    C17   1.411872 A    
N4    C19   1.357003 A    
C8    C12   1.402702 A    
O5    Cu1   1.940810 S    
O7    Cu1   1.940808 S    
C3    C17   1.462370 S    
N1    N2    1.197176 T    
C24   H10   1.110728 S    
C22   H4    1.109528 S    
C23   H9    1.110145 S    
C9    C13   1.402702 A    
N3    C20   1.357000 A    
O6    Cu2   1.940809 S    
C7    C21   1.512656 S    
C4    C18   1.462418 S    
N4    N6    1.329930 A    
Cu1   Cu2   2.634971 S    
C2    C6    1.404550 S    
C12   C16   1.406601 A    
C16   C19   1.475420 S    
O8    Cu2   1.940810 S    
O4    C1    1.274138 A    
C24   H11   1.110198 S    
C14   F4    1.359630 S    
