data_mof_unit_36674.cif
_audit_creation_date              2012-10-26T21:00:42-0400
_audit_creation_method            fapswitch 2.2
_symmetry_space_group_name_H-M    P1
_symmetry_Int_Tables_number       1
_space_group_crystal_system       triclinic
_cell_length_a                    10.883667
_cell_length_b                    9.528047
_cell_length_c                    10.821805
_cell_angle_alpha                 89.819711
_cell_angle_beta                  90.232168
_cell_angle_gamma                 89.948905
_cell_volume                      1122.20693221

loop_
_atom_site_label
_atom_site_type_symbol
_atom_type_description
_atom_site_fract_x
_atom_site_fract_y
_atom_site_fract_z
_atom_type_partial_charge
C1    C     C_R   0.262128 0.500516 0.497365 0.594113
C2    C     C_R   0.503267 0.499770 0.737489 0.652733
C3    C     C_R   0.722143 0.605364 0.128319 0.338797
C4    C     C_R   0.723878 0.598256 0.871031 0.391557
C5    C     C_R   0.824101 0.653394 0.063453 0.431281
C6    C     C_R   0.825042 0.649571 0.935555 0.461467
C7    C     C_R   0.617115 0.551728 0.934208 -0.155642
C8    C     C_R   0.616622 0.554018 0.065424 -0.162054
C9    C     C_R   0.512216 0.500706 0.128712 -0.008282
C10   C     C_R   0.512325 0.498909 0.871098 -0.005385
C11   C     C_R   0.412878 0.444148 0.063682 0.430423
C12   C     C_R   0.737894 0.500417 0.498294 0.677450
C13   C     C_R   0.412763 0.443663 0.936073 0.404719
C14   C     C_R   0.063684 0.378967 0.516550 -0.108567
C15   C     C_R   0.936697 0.378976 0.516791 -0.130403
C16   C     C_R   0.871788 0.503396 0.494675 0.108503
C17   C     C_R   0.128196 0.503126 0.493057 0.072123
C18   C     C_R   0.935521 0.629601 0.469546 0.166321
C19   C     C_R   0.064007 0.628858 0.466924 0.109345
C20   C     C_R   0.426639 0.074719 0.420114 0.457805
C21   C     C_R   0.573983 0.074045 0.579318 0.451657
C22   C     C_R   0.427374 0.926089 0.419474 0.460141
C23   C     C_R   0.573785 0.925394 0.579503 0.465748
C24   C     C_R   0.503829 0.500277 0.262470 0.655193
Cu1   Cu    Cu3+1 0.500000 0.640660 0.500000 1.247621
Cu2   Cu    Cu3+1 0.500000 0.359340 0.500000 1.205396
F1    F     F_    0.313758 0.392276 0.124641 -0.508695
F2    F     F_    0.648473 0.855628 0.659101 -0.521189
F3    F     F_    0.313398 0.391765 0.875017 -0.549558
F4    F     F_    0.730205 0.606856 0.252588 -0.624049
F5    F     F_    0.734634 0.589862 0.747116 -0.570553
F6    F     F_    0.924185 0.701005 0.125549 -0.545546
F7    F     F_    0.926001 0.693300 0.873190 -0.504535
F8    F     F_    0.352425 0.144701 0.340095 -0.518550
F9    F     F_    0.648825 0.143394 0.658692 -0.555775
F10   F     F_    0.356124 0.856995 0.336829 -0.542878
H1    H     H_    0.111391 0.281541 0.536247 0.180128
H2    H     H_    0.889322 0.281495 0.536340 0.183485
H3    H     H_    0.892689 0.796728 0.359063 0.289487
H4    H     H_    0.895099 0.832091 0.513301 0.261668
H5    H     H_    0.102939 0.787889 0.347349 0.304836
H6    H     H_    0.107293 0.833400 0.499624 0.243039
N1    N     N_R   0.500000 0.852070 0.500000 -0.313339
N2    N     N_R   0.500000 0.147940 0.500000 -0.319053
N3    N     N_3   0.870087 0.758299 0.446549 -0.509113
N4    N     N_3   0.129064 0.755144 0.435893 -0.516018
O1    O     O_R   0.319640 0.618740 0.499990 -0.458068
O2    O     O_R   0.680360 0.618740 0.500010 -0.374354
O3    O     O_R   0.319620 0.381170 0.499990 -0.480212
O4    O     O_R   0.680380 0.381170 0.500010 -0.505655
O5    O     O_R   0.500000 0.618810 0.319650 -0.424262
O6    O     O_R   0.500000 0.618810 0.680350 -0.446007
O7    O     O_R   0.499970 0.381240 0.319640 -0.448604
O8    O     O_R   0.500030 0.381240 0.680360 -0.438691

loop_
_geom_bond_atom_site_label_1
_geom_bond_atom_site_label_2
_ccdc_geom_bond_type
C7    C10   A    
C12   O4    A    
H5    N4    S    
Cu1   O5    S    
C15   H2    S    
C21   F9    S    
C3    F4    S    
C21   N2    A    
C22   F10   S    
Cu1   O1    S    
C1    C17   S    
C22   N1    A    
C14   C17   A    
C6    F7    S    
C11   F1    S    
H3    N3    S    
C5    F6    S    
C20   F8    S    
Cu1   N1    S    
C24   O5    A    
Cu2   O4    S    
Cu1   Cu2   S    
C19   N4    S    
Cu2   N2    S    
C7    C8    A    
C9    C24   S    
C23   F2    S    
C14   H1    S    
C11   C13   A    
Cu1   O2    S    
C5    C6    A    
C2    O6    A    
C4    C7    A    
Cu2   O8    S    
C13   F3    S    
C17   C19   A    
C12   O2    A    
C20   C22   A    
C3    C8    A    
C9    C11   A    
C21   C23   A    
H6    N4    S    
H4    N3    S    
Cu1   O6    S    
C4    F5    S    
C4    C6    A    
C15   C16   A    
C2    C10   S    
C18   N3    S    
Cu2   O7    S    
C23   N1    A    
C16   C18   A    
C18   C19   A    
C2    O8    A    
Cu2   O3    S    
C14   C15   A    
C1    O1    A    
C20   N2    A    
C24   O7    A    
C1    O3    A    
C12   C16   S    
C8    C9    A    
C3    C5    A    
C10   C13   A    
