data_mof_unit_43204.cif
_audit_creation_date              2012-12-10T19:43:26-0500
_audit_creation_method            fapswitch 2.2
_symmetry_space_group_name_H-M    P1
_symmetry_Int_Tables_number       1
_space_group_crystal_system       triclinic
_cell_length_a                    10.895078
_cell_length_b                    10.855953
_cell_length_c                    9.679533
_cell_angle_alpha                 89.612733
_cell_angle_beta                  91.945519
_cell_angle_gamma                 92.355006
_cell_volume                      1143.21802465

loop_
_atom_site_label
_atom_site_type_symbol
_atom_type_description
_atom_site_fract_x
_atom_site_fract_y
_atom_site_fract_z
_atom_type_partial_charge
C1    C     C_R   0.506920 0.262028 0.501727 0.877333
C2    C     C_R   0.121780 0.755181 0.025837 0.461001
C3    C     C_R   0.931866 0.547324 0.397849 -0.122153
C4    C     C_R   0.871343 0.489610 0.506678 -0.096379
C5    C     C_R   0.940206 0.428091 0.610862 0.104706
C6    C     C_R   0.069795 0.428643 0.603138 0.403850
C7    C     C_R   0.128607 0.492978 0.495372 -0.086773
C8    C     C_R   0.058609 0.551740 0.391628 0.156974
C9    C     C_R   0.861956 0.408292 0.849989 0.290811
C10   C     C_R   0.847878 0.332846 0.970103 0.164008
C11   C     C_R   0.869860 0.205472 0.962335 0.273285
C12   C     C_R   0.262746 0.499570 0.497850 0.829005
C13   C     C_R   0.893109 0.153411 0.834632 0.573190
C14   C     C_R   0.892611 0.224709 0.714580 0.460818
C15   C     C_R   0.882935 0.352984 0.721894 -0.221086
C16   C     C_R   0.520906 0.104316 0.764763 0.275620
C17   C     C_R   0.468348 0.046074 0.879696 0.422597
C18   C     C_R   0.399484 0.936575 0.864573 0.595563
C19   C     C_R   0.386581 0.879324 0.736396 0.311309
C20   C     C_R   0.446014 0.933577 0.620865 -0.189755
C21   C     C_R   0.492865 0.056739 0.630705 -0.071851
C22   C     C_R   0.509412 0.125574 0.506010 -0.241125
C23   C     C_R   0.484943 0.736007 0.498734 0.865076
C24   C     C_R   0.503378 0.063022 0.379542 0.716216
C25   C     C_R   0.474857 0.937727 0.373293 0.391925
C26   C     C_R   0.461268 0.869439 0.496477 -0.282299
C27   C     C_R   0.629084 0.699624 0.140646 0.334266
C28   C     C_R   0.654325 0.808173 0.065781 0.460600
C29   C     C_R   0.659266 0.802593 0.924063 0.159429
C30   C     C_R   0.631669 0.691644 0.859944 0.620953
C31   C     C_R   0.564206 0.594130 0.926313 -0.097139
C32   C     C_R   0.563095 0.596190 0.075365 -0.114884
C33   C     C_R   0.437668 0.412208 0.071601 0.803533
C34   C     C_R   0.737092 0.493674 0.502591 0.903553
C35   C     C_R   0.437568 0.412599 0.924569 -0.040230
C36   C     C_R   0.111168 0.817193 0.150598 0.558485
C37   C     C_R   0.105641 0.751155 0.274639 0.321458
C38   C     C_R   0.109769 0.622003 0.274338 -0.346670
C39   C     C_R   0.128195 0.560596 0.149949 0.543125
C40   C     C_R   0.135864 0.626598 0.025559 0.109288
Cu1   Cu    Cu3+1 0.499990 0.499990 0.640660 1.091719
Cu2   Cu    Cu3+1 0.500010 0.500010 0.359340 1.109107
H1    H     H_    0.385633 0.340739 0.868677 0.192402
H2    H     H_    0.880353 0.591616 0.315683 0.191779
N1    N     N_R   0.501190 0.501210 0.147910 -0.228709
N2    N     N_R   0.501230 0.501290 0.852040 -0.195805
O1    O     O_R   0.499990 0.319640 0.618810 -0.559002
O2    O     O_R   0.500000 0.319660 0.381240 -0.484472
O3    O     O_R   0.319640 0.500000 0.618780 -0.535687
O4    O     O_R   0.319650 0.500020 0.381210 -0.560846
O5    O     O_R   0.500000 0.680340 0.618760 -0.514057
O6    O     O_R   0.500010 0.680360 0.381190 -0.554859
O7    O     O_R   0.680350 0.499980 0.618790 -0.488352
O8    O     O_R   0.680360 0.500000 0.381220 -0.534368
F1    F     F_    0.115663 0.820152 0.905700 -0.491312
O9    O     O_3   0.868816 0.128606 0.076666 -0.520763
H3    H     H_    0.852993 0.176546 0.160358 0.420253
F2    F     F_    0.922950 0.033575 0.827684 -0.472218
F3    F     F_    0.919112 0.171319 0.593209 -0.539478
F4    F     F_    0.524172 0.123865 0.259623 -0.498294
O10   O     O_3   0.612451 0.195069 0.783080 -0.727966
H4    H     H_    0.617765 0.220814 0.881094 0.348664
F5    F     F_    0.486763 0.093919 0.007421 -0.519140
F6    F     F_    0.351005 0.881957 0.977343 -0.583736
O11   O     O_3   0.308807 0.776057 0.726272 -0.630051
H5    H     H_    0.277738 0.768020 0.629207 0.342709
O12   O     O_3   0.454357 0.886694 0.244504 -0.579635
H6    H     H_    0.386590 0.823371 0.251182 0.326080
F7    F     F_    0.371380 0.322417 0.136750 -0.525104
F8    F     F_    0.100185 0.941211 0.150495 -0.462812
O13   O     O_3   0.688421 0.689360 0.266651 -0.679100
H7    H     H_    0.735083 0.766208 0.293843 0.379229
F9    F     F_    0.696122 0.912587 0.132033 -0.564357
O14   O     O_3   0.705671 0.899222 0.845928 -0.590273
H8    H     H_    0.713582 0.973922 0.903996 0.400187
F10   F     F_    0.689739 0.680452 0.741380 -0.542409
F11   F     F_    0.085781 0.811740 0.393585 -0.550716
F12   F     F_    0.128109 0.435507 0.147711 -0.538236
O15   O     O_3   0.150718 0.561877 0.905705 -0.643522
H9    H     H_    0.146670 0.619041 0.825740 0.409441
O16   O     O_3   0.141761 0.361281 0.694712 -0.673264
H10   H     H_    0.101737 0.350977 0.784322 0.356493
O17   O     O_3   0.867645 0.535501 0.855877 -0.629827
H11   H     H_    0.885718 0.562262 0.952126 0.328866
O18   O     O_3   0.817526 0.380674 0.095652 -0.684862
H12   H     H_    0.768065 0.453880 0.078501 0.328671

loop_
_geom_bond_atom_site_label_1
_geom_bond_atom_site_label_2
_ccdc_geom_bond_type
C10   O18   S    
C16   C21   A    
C33   N1    A    
Cu1   Cu2   S    
C19   C20   A    
C25   O12   S    
C12   O3    A    
C7    C8    A    
O18   H12   S    
C14   F3    S    
C37   C38   A    
C36   C37   A    
C2    F1    S    
C5    C6    A    
O9    H3    S    
C18   C19   A    
C32   N1    A    
C23   C26   S    
C31   C32   A    
C16   C17   A    
C31   N2    A    
Cu1   N2    S    
C35   H1    S    
C9    C10   A    
C33   F7    S    
C1    C22   S    
C6    O16   S    
C21   C22   A    
C8    C38   S    
C28   F9    S    
Cu1   O3    S    
C36   F8    S    
O16   H10   S    
C7    C12   S    
C4    C34   S    
C3    H2    S    
O14   H8    S    
O12   H6    S    
C39   F12   S    
C38   C39   A    
C24   C25   A    
C3    C8    A    
C39   C40   A    
C1    O1    A    
C13   F2    S    
C25   C26   A    
C37   F11   S    
Cu2   N1    S    
C29   C30   A    
C30   F10   S    
C23   O5    A    
O17   H11   S    
C24   F4    S    
C17   C18   A    
Cu1   O1    S    
C40   O15   S    
Cu2   O2    S    
Cu1   O7    S    
Cu2   O4    S    
C9    O17   S    
C34   O8    A    
C22   C24   A    
C16   O10   S    
C3    C4    A    
C27   O13   S    
C2    C36   A    
C28   C29   A    
C27   C32   A    
C4    C5    A    
C12   O4    A    
C1    O2    A    
C6    C7    A    
C29   O14   S    
C9    C15   A    
O13   H7    S    
Cu2   O8    S    
C11   C13   A    
C18   F6    S    
C23   O6    A    
C30   C31   A    
C20   C26   A    
C33   C35   A    
C19   O11   S    
O10   H4    S    
C5    C15   S    
C10   C11   A    
O15   H9    S    
C2    C40   A    
C20   C21   A    
C34   O7    A    
O11   H5    S    
C27   C28   A    
C14   C15   A    
C13   C14   A    
C35   N2    A    
Cu1   O5    S    
C17   F5    S    
C11   O9    S    
Cu2   O6    S    
