data_mof_unit_29900.cif
_audit_creation_date              2013-03-05T16:04:28-0500
_audit_creation_method            fapswitch 2.2
_symmetry_space_group_name_H-M    P1
_symmetry_Int_Tables_number       1
_space_group_crystal_system       triclinic
_cell_length_a                    10.931491
_cell_length_b                    9.496131
_cell_length_c                    15.075925
_cell_angle_alpha                 90.087501
_cell_angle_beta                  90.424422
_cell_angle_gamma                 90.261573
_cell_volume                      1564.92344332

loop_
_atom_site_label
_atom_site_type_symbol
_atom_site_description
_atom_site_fract_x
_atom_site_fract_y
_atom_site_fract_z
_atom_type_partial_charge
O1    O     O_R   0.319640 0.618740 0.499990 -0.561913
O2    O     O_R   0.680360 0.381260 0.500010 -0.553006
O3    O     O_R   0.680360 0.618740 0.500010 -0.557506
O4    O     O_R   0.319640 0.381260 0.499990 -0.536054
C1    C     C_R   0.262208 0.499481 0.503309 0.939696
C2    C     C_R   0.737996 0.500295 0.498606 0.962588
O5    O     O_R   0.499970 0.618800 0.370260 -0.596881
O6    O     O_R   0.500030 0.381200 0.629740 -0.569342
O7    O     O_R   0.500030 0.618800 0.629740 -0.573858
O8    O     O_R   0.499970 0.381200 0.370260 -0.557653
C3    C     C_R   0.498986 0.499875 0.329130 0.894805
C4    C     C_R   0.499168 0.499959 0.670871 0.887797
Cu1   Cu    Cu3+1 0.500000 0.640660 0.500000 1.078545
Cu2   Cu    Cu3+1 0.500000 0.359340 0.500000 1.099236
C5    C     C_R   0.608029 0.527721 0.813332 0.284359
C6    C     C_R   0.388807 0.477223 0.186813 0.289277
C7    C     C_R   0.498862 0.498266 0.767221 -0.218042
C8    C     C_R   0.499547 0.498363 0.232789 -0.223382
C9    C     C_R   0.389882 0.467382 0.812140 -0.082237
C10   C     C_R   0.609953 0.520049 0.187742 -0.091660
C11   C     C_R   0.390446 0.465202 0.905557 0.042913
C12   C     C_R   0.610157 0.516761 0.094388 0.038758
C13   C     C_R   0.500825 0.490316 0.953011 0.041719
C14   C     C_R   0.499946 0.490371 0.047001 0.040874
C15   C     C_R   0.612020 0.514524 0.906723 -0.048461
C16   C     C_R   0.389249 0.463497 0.093353 -0.045911
C17   C     C_R   0.284109 0.429848 0.952210 -0.162381
C18   C     C_R   0.720152 0.530085 0.047784 -0.161931
C19   C     C_R   0.283162 0.423204 0.044430 -0.023684
C20   C     C_R   0.723258 0.523743 0.955660 -0.044258
H1    H     H_    0.201586 0.398924 0.916925 0.180914
H2    H     H_    0.806634 0.537310 0.083026 0.206728
C21   C     C_R   0.062945 0.371259 0.492132 0.258949
C22   C     C_R   0.937568 0.626863 0.515163 0.240316
C23   C     C_R   0.936045 0.372758 0.486970 0.241546
C24   C     C_R   0.064507 0.624845 0.521805 0.207564
C25   C     C_R   0.872060 0.500582 0.498453 -0.321123
C26   C     C_R   0.128418 0.497987 0.507334 -0.345224
C27   C     C_R   0.429549 0.073986 0.440768 0.083461
C28   C     C_R   0.570282 0.926020 0.559329 0.086270
C29   C     C_R   0.570393 0.074996 0.559271 0.080221
C30   C     C_R   0.429409 0.925002 0.440842 0.068212
H3    H     H_    0.373315 0.129890 0.393307 0.180671
H4    H     H_    0.626304 0.870120 0.606911 0.184874
H5    H     H_    0.626806 0.131689 0.606667 0.164295
H6    H     H_    0.372752 0.868309 0.393592 0.162315
N1    N     N_R   0.500000 0.852070 0.500000 -0.199779
N2    N     N_R   0.500000 0.147930 0.500000 -0.197827
N3    N     N_R   0.710402 0.583659 0.765340 0.113048
O9    O     O_R   0.760126 0.511374 0.701842 -0.369867
O10   O     O_R   0.748765 0.711138 0.781416 -0.294991
N4    N     N_R   0.275825 0.488154 0.234570 0.104544
O11   O     O_R   0.251945 0.403100 0.299802 -0.340911
O12   O     O_R   0.200576 0.590310 0.216838 -0.320954
C31   C     C_2   0.274553 0.445379 0.760755 0.814321
O13   O     O_2   0.264916 0.345710 0.709739 -0.540330
O14   O     O_R   0.177510 0.539197 0.771074 -0.690742
H7    H     H_    0.104897 0.514708 0.731651 0.353358
C32   C     C_2   0.723882 0.550272 0.239038 0.845079
O15   O     O_2   0.763130 0.463565 0.291678 -0.562664
O16   O     O_R   0.785552 0.678021 0.226937 -0.701439
H8    H     H_    0.861421 0.686398 0.265732 0.374422
C33   C     C_2   0.174125 0.356899 0.085198 0.952053
O17   O     O_2   0.071466 0.395904 0.064021 -0.549459
O18   O     O_R   0.188887 0.245435 0.144784 -0.698430
H9    H     H_    0.107926 0.208238 0.167597 0.377922
C34   C     C_2   0.845688 0.508637 0.915207 0.983179
O19   O     O_2   0.927833 0.591202 0.934682 -0.496293
O20   O     O_R   0.868485 0.395611 0.858247 -0.701384
H10   H     H_    0.956079 0.394179 0.836708 0.354718
N5    N     N_R   0.123707 0.238830 0.481055 0.181963
O21   O     O_R   0.162129 0.170594 0.550578 -0.232552
O22   O     O_R   0.119772 0.175175 0.404605 -0.259198
N6    N     N_R   0.876527 0.758545 0.528173 0.176728
O23   O     O_R   0.842399 0.832061 0.459631 -0.271175
O24   O     O_R   0.875530 0.816025 0.606538 -0.236061
N7    N     N_R   0.873660 0.241818 0.470608 0.179957
O25   O     O_R   0.829578 0.214195 0.392082 -0.244671
O26   O     O_R   0.875370 0.143341 0.530492 -0.249750
N8    N     N_R   0.127135 0.753161 0.544894 0.182494
O27   O     O_R   0.181411 0.765240 0.621647 -0.275207
O28   O     O_R   0.121598 0.861534 0.492359 -0.232496

loop_
_geom_bond_atom_site_label_1
_geom_bond_atom_site_label_2
_geom_bond_distance
_ccdc_geom_bond_type
C28   N1    1.366161 A    
C31   O13   1.222337 D    
C19   C33   1.483268 S    
C3    C8    1.452544 S    
C17   C19   1.391931 A    
C22   C25   1.415226 A    
O3    C2    1.291941 A    
C33   O18   1.398461 S    
N7    O25   1.300755 A    
O5    C3    1.287488 A    
N6    O24   1.300805 A    
O1    C1    1.293581 A    
C9    C11   1.408498 A    
C14   C16   1.424071 A    
O20   H10   1.013512 S    
C5    C15   1.414084 A    
C30   H6    1.081711 S    
O7    Cu1   1.967248 S    
C7    C9    1.404709 A    
N3    O10   1.301162 A    
C4    C7    1.452721 S    
C13   C14   1.417089 A    
C22   C24   1.390720 A    
C20   C34   1.482312 S    
O3    Cu1   1.983504 S    
C5    N3    1.437279 S    
C11   C17   1.402821 A    
C32   O15   1.221467 D    
C12   C18   1.402435 A    
Cu1   Cu2   2.671452 S    
O2    C2    1.291861 A    
N4    O12   1.301539 A    
C27   C30   1.414769 A    
N7    O26   1.300921 A    
C11   C13   1.417275 A    
C6    C16   1.414869 A    
C32   O16   1.398021 S    
N6    O23   1.301234 A    
C17   H1    1.083043 S    
C34   O19   1.223220 D    
C18   H2    1.082863 S    
N8    O28   1.300913 A    
C24   N8    1.436031 S    
N5    O22   1.300981 A    
O4    C1    1.289849 A    
C27   H3    1.081342 S    
C23   N7    1.435571 S    
C34   O20   1.397959 S    
C28   H4    1.081212 S    
O6    C4    1.286255 A    
C2    C25   1.465538 S    
C10   C32   1.487702 S    
C22   N6    1.433945 S    
C28   C29   1.414700 A    
C10   C12   1.407715 A    
N3    O9    1.300823 A    
C31   O14   1.397822 S    
O8    Cu2   1.967248 S    
C12   C14   1.417251 A    
O1    Cu1   1.981615 S    
N4    O11   1.300740 A    
Cu1   N1    2.007577 S    
C9    C31   1.488563 S    
C15   C20   1.419912 A    
C5    C7    1.403442 A    
O6    Cu2   1.966617 S    
C23   C25   1.414733 A    
C6    N4    1.438277 S    
N8    O27   1.301123 A    
Cu2   N2    2.007578 S    
C21   C26   1.414879 A    
C24   C26   1.412810 A    
N5    O21   1.301108 A    
O14   H7    1.014044 S    
C18   C20   1.390730 A    
C21   C23   1.388961 A    
C29   N2    1.366326 A    
C8    C10   1.403756 A    
C30   N1    1.366416 A    
C13   C15   1.424018 A    
O4    Cu2   1.983505 S    
O16   H8    1.014052 S    
O2    Cu2   1.981614 S    
O7    C4    1.288527 A    
O8    C3    1.287156 A    
C21   N5    1.434974 S    
C33   O17   1.223664 D    
O5    Cu1   1.966617 S    
C16   C19   1.420463 A    
C6    C8    1.403953 A    
O18   H9    1.014082 S    
C29   H5    1.081639 S    
C1    C26   1.464238 S    
C27   N2    1.366215 A    
