data_mof_unit_53097.cif
_audit_creation_date              2012-12-11T17:14:07-0500
_audit_creation_method            fapswitch 2.2
_symmetry_space_group_name_H-M    P1
_symmetry_Int_Tables_number       1
_space_group_crystal_system       triclinic
_cell_length_a                    8.407541
_cell_length_b                    16.438438
_cell_length_c                    17.318917
_cell_angle_alpha                 99.681292
_cell_angle_beta                  97.608954
_cell_angle_gamma                 94.030629
_cell_volume                      2328.2116499

loop_
_atom_site_label
_atom_site_type_symbol
_atom_type_description
_atom_site_fract_x
_atom_site_fract_y
_atom_site_fract_z
_atom_type_partial_charge
Ba1   Ba    Ba6+2 0.836100 0.536190 0.461710 1.638904
Ba2   Ba    Ba6+2 0.353720 0.463880 0.538300 1.632912
C1    C     C_3   0.592266 0.777291 0.154607 -0.174014
C2    C     C_3   0.567009 0.733235 0.225298 0.391000
C3    C     C_3   0.439580 0.337975 0.300424 0.315333
C4    C     C_3   0.404405 0.314550 0.210681 -0.382282
C5    C     C_3   0.175321 0.236454 0.763886 0.462093
C6    C     C_3   0.179312 0.150281 0.787708 -0.369676
C7    C     C_3   0.630850 0.251167 0.739873 0.400529
C8    C     C_3   0.673227 0.212749 0.813986 -0.401985
C9    C     C_2   0.250793 0.515836 0.276363 -0.232388
C10   C     C_3   0.332021 0.566912 0.225428 -0.044653
C11   C     C_2   0.284666 0.534751 0.138351 -0.099009
C12   C     C_3   0.116238 0.751813 0.261670 0.433014
C13   C     C_2   0.144212 0.487158 0.111246 0.014436
C14   C     C_2   0.053013 0.454898 0.170944 -0.137221
C15   C     C_1   0.113519 0.469429 0.247763 0.055387
C16   C     C_R   0.898701 0.457226 0.857621 -0.128980
C17   C     C_R   0.831478 0.449589 0.778335 -0.015061
C18   C     C_R   0.073740 0.524498 0.750349 0.037880
C19   C     C_R   0.140799 0.531056 0.830427 -0.138667
C20   C     C_R   0.055081 0.496787 0.884532 0.030679
C21   C     C_2   0.077536 0.467681 0.024579 -0.077201
C22   C     C_2   0.126251 0.510830 0.969987 -0.079246
C23   C     C_3   0.178780 0.829639 0.232082 -0.189452
C24   C     C_R   0.921090 0.480891 0.724672 -0.248256
C25   C     C_R   0.356172 0.737291 0.493929 -0.226005
C26   C     C_R   0.522574 0.759697 0.516419 0.036179
C27   C     C_R   0.585272 0.840554 0.515021 -0.138756
C28   C     C_R   0.483961 0.897451 0.487170 0.250979
C29   C     C_R   0.323122 0.870131 0.454510 -0.186245
C30   C     C_R   0.260621 0.789152 0.455405 0.000673
C31   C     C_R   0.631463 0.138759 0.463782 -0.032540
C32   C     C_R   0.669206 0.225489 0.483295 -0.002753
C33   C     C_R   0.730077 0.086057 0.502336 0.280196
C34   C     C_3   0.261310 0.717210 0.773495 0.277045
C35   C     C_R   0.812961 0.258039 0.533930 -0.290284
C36   C     C_R   0.924885 0.206118 0.562271 -0.021024
C37   C     C_R   0.881944 0.119106 0.546808 -0.048653
C38   C     C_3   0.294982 0.810823 0.784459 -0.377339
C39   C     C_3   0.968372 0.282295 0.366869 0.316227
C40   C     C_3   0.947461 0.188139 0.345615 -0.398035
C41   C     C_3   0.760400 0.653979 0.698803 0.333014
C42   C     C_3   0.832737 0.689548 0.784805 -0.222823
H1    H     H_    0.181635 0.839122 0.768892 0.115747
H2    H     H_    0.345427 0.836306 0.847113 0.067532
H3    H     H_    0.383323 0.826912 0.745768 0.119516
H4    H     H_    0.860577 0.304753 0.390729 0.000815
H5    H     H_    0.076151 0.300555 0.412532 0.081891
H6    H     H_    0.832720 0.167441 0.305068 0.119319
H7    H     H_    0.945478 0.160752 0.399662 0.068624
H8    H     H_    0.049676 0.165441 0.316206 0.121223
H9    H     H_    0.859944 0.632912 0.666767 0.005799
H10   H     H_    0.671034 0.600260 0.696697 0.054776
H11   H     H_    0.913769 0.746346 0.786361 0.118024
H12   H     H_    0.904317 0.643810 0.809895 0.046988
H13   H     H_    0.435686 0.715899 0.218680 -0.064537
H14   H     H_    0.499507 0.749142 0.103388 0.074746
H15   H     H_    0.324864 0.350025 0.323459 0.010031
H16   H     H_    0.524357 0.395145 0.315688 0.084363
H17   H     H_    0.314448 0.259496 0.193317 0.112277
H18   H     H_    0.355837 0.366740 0.185098 0.071483
H19   H     H_    0.517003 0.300085 0.186351 0.133643
H20   H     H_    0.709789 0.765085 0.135451 0.118517
H21   H     H_    0.244003 0.810587 0.181383 0.070881
H22   H     H_    0.303532 0.131558 0.794108 0.100376
H23   H     H_    0.133032 0.150210 0.844952 0.082239
H24   H     H_    0.104015 0.102359 0.742385 0.093843
H25   H     H_    0.734663 0.276025 0.717576 -0.032595
H26   H     H_    0.563951 0.183734 0.831372 0.107325
H27   H     H_    0.729721 0.261435 0.864532 0.095771
H28   H     H_    0.221071 0.561117 0.987938 0.062520
H29   H     H_    0.937620 0.418526 0.150760 0.082846
H30   H     H_    0.825402 0.435423 0.898118 0.052563
H31   H     H_    0.981799 0.417712 0.006481 0.067549
H32   H     H_    0.359617 0.557557 0.098910 0.057034
H33   H     H_    0.258634 0.564307 0.851036 0.062352
H34   H     H_    0.295627 0.527534 0.339254 0.057598
H35   H     H_    0.867618 0.476007 0.663570 0.067267
H36   H     H_    0.222812 0.726419 0.291146 -0.101231
H37   H     H_    0.246423 0.912224 0.429410 0.076197
H38   H     H_    0.709850 0.860212 0.539728 0.114897
H39   H     H_    0.844690 0.324361 0.545488 0.068444
H40   H     H_    0.264748 0.868754 0.280484 0.075569
N1    N     N_2   0.535749 0.983122 0.495342 -0.239878
N2    N     N_2   0.683221 0.999342 0.495223 -0.239713
O1    O     O_2   0.836060 0.445790 0.307930 -0.439904
O2    O     O_3   0.686242 0.716152 0.665394 -0.635559
O3    O     O_3   0.001203 0.772911 0.311846 -0.589252
O4    O     O_2   0.353650 0.554240 0.692110 -0.458025
O5    O     O_3   0.081100 0.548460 0.594090 -0.490675
O6    O     O_3   0.584850 0.404680 0.643890 -0.458812
O7    O     O_3   0.198800 0.685949 0.693960 -0.632940
O8    O     O_3   0.621030 0.400630 0.459910 -0.476716
O9    O     O_3   0.161970 0.361060 0.604300 -0.451408
O10   O     O_2   0.237742 0.216632 0.542716 -0.481935
O11   O     O_3   0.248336 0.235190 0.693697 -0.559234
O12   O     O_3   0.108600 0.451610 0.405920 -0.515948
O13   O     O_3   0.568670 0.599440 0.540100 -0.494787
O14   O     O_2   0.371480 0.300500 0.461810 -0.450950
O15   O     O_3   0.507941 0.272292 0.330697 -0.647238
O16   O     O_2   0.506741 0.474523 0.779325 -0.487417
O17   O     O_3   0.531626 0.314659 0.758039 -0.563873
O18   O     O_3   0.604850 0.595390 0.356120 -0.476485
O19   O     O_2   0.629436 0.502222 0.218739 -0.477599
O20   O     O_3   0.987485 0.314077 0.298278 -0.635845
O21   O     O_3   0.656115 0.662793 0.220198 -0.582693
O22   O     O_2   0.818230 0.699530 0.538240 -0.451557
O23   O     O_3   0.027730 0.639010 0.395710 -0.480533
O24   O     O_2   0.928235 0.785960 0.452788 -0.478447
P1    P     P_3+3 0.011660 0.422550 0.320180 0.978960
P2    P     P_3+3 0.650900 0.688870 0.561900 0.993726
P3    P     P_3+3 0.055940 0.747737 0.405212 0.966902
P4    P     P_3+3 0.178040 0.577520 0.679830 0.961184
P5    P     P_3+3 0.135103 0.254223 0.604767 0.960072
P6    P     P_3+3 0.554974 0.581108 0.253733 0.960200
P7    P     P_3+3 0.543462 0.297096 0.434271 0.950427
P8    P     P_3+3 0.617307 0.410975 0.745013 0.958388
C43   C     C_3   0.616547 0.789301 0.306631 -0.257794
H41   H     H_    0.530392 0.836660 0.316531 0.027104
H42   H     H_    0.615937 0.752451 0.354572 0.108962
H43   H     H_    0.737849 0.821831 0.311355 0.158223
C44   C     C_3   0.585223 0.871561 0.168753 -0.486539
H44   H     H_    0.690701 0.903191 0.211076 0.135317
H45   H     H_    0.588434 0.894076 0.111969 0.133715
H46   H     H_    0.474127 0.889682 0.191857 0.133456
C45   C     C_3   0.705336 0.711038 0.837658 -0.408993
H47   H     H_    0.634686 0.759678 0.816736 0.142706
H48   H     H_    0.625144 0.654600 0.838293 0.128812
H49   H     H_    0.764997 0.735410 0.899152 0.113238
C46   C     C_3   0.268063 0.301398 0.833315 -0.234573
H50   H     H_    0.202081 0.310397 0.885242 0.032887
H51   H     H_    0.384970 0.281430 0.856558 0.119126
H52   H     H_    0.285305 0.362486 0.814797 0.149754
C47   C     C_3   0.005329 0.257565 0.754938 -0.376772
H53   H     H_    0.996712 0.316491 0.732229 0.064069
H54   H     H_    0.931352 0.204982 0.714573 0.064709
H55   H     H_    0.963486 0.266870 0.813319 0.077639
C48   C     C_3   0.552627 0.183476 0.671023 -0.232429
H56   H     H_    0.644112 0.141564 0.652915 0.027522
H57   H     H_    0.454932 0.144038 0.687480 0.125830
H58   H     H_    0.507982 0.211735 0.619625 0.148798
H59   H     H_    0.755488 0.163439 0.803148 0.086373
C49   C     C_3   0.037740 0.684716 0.192411 -0.269336
H60   H     H_    0.000745 0.627966 0.214785 0.123745
H61   H     H_    0.929748 0.705015 0.160494 0.118140
H62   H     H_    0.122909 0.670103 0.149505 0.032790
C50   C     C_3   0.496492 0.103338 0.396753 -0.350197
H63   H     H_    0.514182 0.129360 0.343348 0.119885
H64   H     H_    0.494965 0.035816 0.375957 0.126639
H65   H     H_    0.377987 0.117658 0.414519 0.134128
C51   C     C_3   0.995344 0.059164 0.574576 -0.371249
H66   H     H_    0.113541 0.089273 0.605393 0.126249
H67   H     H_    0.939496 0.024761 0.615653 0.111654
H68   H     H_    0.018512 0.014112 0.522791 0.128694
C52   C     C_3   0.275962 0.665416 0.521756 -0.207210
H69   H     H_    0.152719 0.677117 0.533923 0.145054
H70   H     H_    0.274579 0.607722 0.478040 0.126364
H71   H     H_    0.338819 0.658610 0.579775 0.123396
C53   C     C_3   0.047298 0.883038 0.205749 -0.379053
H72   H     H_    0.961885 0.847922 0.154912 0.116675
H73   H     H_    0.103748 0.937989 0.186625 0.107873
H74   H     H_    0.981384 0.905435 0.255450 0.148835
H75   H     H_    0.174360 0.702666 0.813192 -0.030172
H76   H     H_    0.375277 0.690866 0.790838 0.037364

loop_
_geom_bond_atom_site_label_1
_geom_bond_atom_site_label_2
_ccdc_geom_bond_type
Ba1   O1    S    
C47   H55   S    
C42   C45   S    
C6    H22   S    
Ba2   O8    S    
C38   H3    S    
C32   C35   A    
Ba2   P4    S    
C39   C40   S    
O19   P6    D    
C50   H65   S    
C46   H52   S    
Ba1   O13   S    
C47   H53   S    
N1    N2    D    
C26   P2    S    
C38   H2    S    
C35   C36   A    
C41   O2    S    
C4    H17   S    
C26   C27   A    
C9    H34   S    
C7    H25   S    
Ba1   Ba2   S    
Ba1   P2    S    
C28   C29   A    
O8    P7    S    
C44   H45   S    
O1    P1    D    
C13   C14   S    
C48   H56   S    
O3    P3    S    
C16   C17   A    
Ba2   O4    S    
C17   C24   A    
O6    P8    S    
Ba1   O23   S    
O18   P6    S    
C34   O7    S    
C41   H9    S    
C9    C15   D    
C17   P8    S    
O9    P5    S    
Ba1   O8    S    
C2    H13   S    
C23   H40   S    
C21   C22   D    
C51   H68   S    
C2    C43   S    
C12   H36   S    
C30   P3    S    
O11   P5    S    
C7    C8    S    
C5    C46   S    
O16   P8    D    
O23   P3    S    
C40   H7    S    
C8    H59   S    
C8    H27   S    
C48   H57   S    
C32   P7    S    
C13   C21   S    
Ba2   O14   S    
C16   H30   S    
C19   C20   A    
C49   H62   S    
C15   P1    S    
C39   H5    S    
C1    C44   S    
C3    O15   S    
O20   P1    S    
C43   H42   S    
C38   H1    S    
C2    O21   S    
C12   C49   S    
C39   O20   S    
C3    H15   S    
C14   H29   S    
C53   H74   S    
C44   H44   S    
C23   H21   S    
C50   H63   S    
C49   H61   S    
C14   C15   D    
C44   H46   S    
C1    H20   S    
C37   C51   S    
O22   P2    D    
C53   H73   S    
C4    H19   S    
C33   C37   A    
C41   C42   S    
C45   H48   S    
C12   O3    S    
C5    C47   S    
C27   C28   A    
C31   C50   S    
C42   H12   S    
C41   H10   S    
C29   C30   A    
O24   P3    D    
C11   H32   S    
C34   C38   S    
C7    O17   S    
C50   H64   S    
C23   C53   S    
C31   C32   A    
O10   P5    D    
C10   C11   S    
C28   N1    S    
Ba2   O6    S    
Ba1   O18   S    
C40   H6    S    
C8    H26   S    
C51   H67   S    
Ba2   O13   S    
C6    H24   S    
C11   C13   D    
C20   C22   S    
O17   P8    S    
C1    C2    S    
C22   H28   S    
C43   H43   S    
C25   C52   S    
C47   H54   S    
C52   H69   S    
O12   P1    S    
C5    O11   S    
C3    H16   S    
C25   C30   A    
C16   C20   A    
C52   H71   S    
C21   H31   S    
C49   H60   S    
C46   H51   S    
Ba2   O9    S    
Ba1   O12   S    
C43   H41   S    
O14   P7    D    
C24   H35   S    
C29   H37   S    
O5    P4    S    
O15   P7    S    
C53   H72   S    
C4    H18   S    
C52   H70   S    
C45   H49   S    
C27   H38   S    
C46   H50   S    
Ba1   P1    S    
C18   P4    S    
C36   P5    S    
C7    C48   S    
C42   H11   S    
C3    C4    S    
C18   C24   A    
C48   H58   S    
O13   P2    S    
C36   C37   A    
C34   H76   S    
C31   C33   A    
C39   H4    S    
O7    P4    S    
O4    P4    D    
C12   C23   S    
Ba2   O5    S    
O21   P6    S    
C5    C6    S    
Ba1   O22   S    
O2    P2    S    
C1    H14   S    
C18   C19   A    
Ba2   O12   S    
C6    H23   S    
Ba1   O5    S    
C19   H33   S    
C25   C26   A    
C34   H75   S    
C35   H39   S    
C51   H66   S    
C33   N2    S    
C45   H47   S    
C9    C10   S    
C40   H8    S    
C10   P6    S    
