data_mof_unit_17548.cif
_audit_creation_date              2012-12-11T16:09:23-0500
_audit_creation_method            fapswitch 2.2
_symmetry_space_group_name_H-M    P1
_symmetry_Int_Tables_number       1
_space_group_crystal_system       triclinic
_cell_length_a                    7.07535
_cell_length_b                    21.259743
_cell_length_c                    23.682002
_cell_angle_alpha                 90.077217
_cell_angle_beta                  90.025417
_cell_angle_gamma                 89.320953
_cell_volume                      3561.99590969

loop_
_atom_site_label
_atom_site_type_symbol
_atom_type_description
_atom_site_fract_x
_atom_site_fract_y
_atom_site_fract_z
_atom_type_partial_charge
O1    O     O_R   0.494270 0.443530 0.442350 -0.536579
O2    O     O_R   0.824060 0.436290 0.557250 -0.531968
O3    O     O_R   0.994370 0.556470 0.557650 -0.535294
C1    C     C_R   0.656516 0.421403 0.576370 0.724174
O4    O     O_R   0.823990 0.436120 0.442760 -0.539691
O5    O     O_R   0.994300 0.556300 0.442340 -0.535237
C2    C     C_R   0.656630 0.421225 0.423552 0.723788
O6    O     O_R   0.494350 0.443700 0.557660 -0.533528
O7    O     O_3   0.660800 0.539430 0.500000 -0.370101
V1    V     V_3+5 0.935650 0.492690 0.500000 1.477327
O8    O     O_R   0.324020 0.563710 0.442750 -0.535637
C3    C     C_R   0.154787 0.578573 0.423561 0.721699
O9    O     O_R   0.324090 0.563880 0.557240 -0.530243
C4    C     C_R   0.155099 0.578782 0.576412 0.724420
V2    V     V_3+5 0.435660 0.507310 0.500000 1.482250
O10   O     O_3   0.160640 0.460570 0.500000 -0.371619
C5    C     C_3   0.021530 0.722602 0.793515 -0.158592
C6    C     C_3   0.210606 0.699561 0.766689 -0.118500
H1    H     H_    0.294583 0.658015 0.780742 0.150185
H2    H     H_    0.947651 0.700319 0.829529 0.139701
H3    H     H_    0.425040 0.784037 0.779036 0.123918
C7    C     C_1   0.145650 0.624518 0.621910 -0.128916
C8    C     C_1   0.073887 0.874702 0.877291 -0.170722
C9    C     C_3   0.939395 0.731944 0.733635 -0.034800
C10   C     C_3   0.125583 0.708893 0.707110 0.114961
C11   C     C_3   0.007408 0.800799 0.732315 -0.243045
C12   C     C_3   0.093569 0.790942 0.791728 0.133360
C13   C     C_3   0.195658 0.777086 0.706273 0.023005
C14   C     C_3   0.282522 0.768478 0.765718 -0.162019
C15   C     C_1   0.137788 0.662541 0.660217 0.055786
C16   C     C_1   0.081632 0.836806 0.838867 -0.026490
H4    H     H_    0.922827 0.842190 0.718167 0.132089
C17   C     C_3   0.307371 0.782409 0.228225 -0.135695
C18   C     C_3   0.974327 0.809202 0.254985 -0.368780
C19   C     C_3   0.979556 0.759643 0.303321 -0.346059
H5    H     H_    0.359989 0.761803 0.317663 0.160433
H6    H     H_    0.346600 0.829633 0.244741 0.154536
H7    H     H_    0.825649 0.816595 0.240894 0.182296
H8    H     H_    0.023414 0.855245 0.271527 0.167660
H9    H     H_    0.021365 0.783105 0.343392 0.167831
H10   H     H_    0.835188 0.740904 0.310050 0.152872
C20   C     C_1   0.144057 0.623590 0.377556 -0.149034
C21   C     C_3   0.100678 0.787806 0.204496 0.128149
C22   C     C_3   0.316474 0.735689 0.279085 -0.421191
C23   C     C_3   0.120799 0.704984 0.289523 0.193142
C24   C     C_3   0.055098 0.671063 0.233518 -0.125086
C25   C     C_3   0.024010 0.722067 0.185306 -0.233156
C26   C     C_1   0.134072 0.660499 0.338438 -0.044912
C27   C     C_1   0.086274 0.835728 0.158353 0.026007
C28   C     C_1   0.075667 0.874408 0.120647 -0.098109
H11   H     H_    0.868552 0.729422 0.179859 0.176116
H12   H     H_    0.427023 0.698714 0.272804 0.164212
C29   C     C_3   0.423992 0.257114 0.703315 -0.135508
C30   C     C_3   0.784999 0.240326 0.706500 -0.225791
C31   C     C_3   0.749019 0.188060 0.752047 -0.194128
H13   H     H_    0.349028 0.167106 0.745925 0.147972
H14   H     H_    0.916422 0.263657 0.719540 0.137793
H15   H     H_    0.879332 0.185263 0.778205 0.095557
C32   C     C_1   0.567745 0.123799 0.877727 -0.163277
C33   C     C_3   0.621794 0.291816 0.707607 0.056655
C34   C     C_3   0.395028 0.215049 0.758179 -0.206998
C35   C     C_3   0.584741 0.208976 0.792730 0.123136
C36   C     C_3   0.640077 0.275669 0.816283 -0.270966
C37   C     C_3   0.635941 0.326687 0.767412 -0.156224
C38   C     C_1   0.572113 0.162006 0.839696 -0.053146
C39   C     C_1   0.642712 0.338077 0.660043 -0.033879
C40   C     C_1   0.650703 0.375851 0.621744 -0.123255
H16   H     H_    0.786338 0.270626 0.832216 0.161031
C41   C     C_3   0.522321 0.322365 0.241978 -0.188528
C42   C     C_3   0.838914 0.271631 0.267337 -0.115123
C43   C     C_3   0.815937 0.228723 0.210734 -0.066020
H17   H     H_    0.538602 0.292781 0.152266 0.099908
H18   H     H_    0.912959 0.315673 0.256284 0.159143
C44   C     C_1   0.568025 0.124204 0.120804 -0.148534
C45   C     C_3   0.639937 0.292720 0.290996 0.059614
C46   C     C_3   0.494354 0.272597 0.193434 -0.120955
C47   C     C_3   0.604047 0.209490 0.205899 0.020840
C48   C     C_3   0.552116 0.180952 0.265876 -0.154424
C49   C     C_3   0.533603 0.233350 0.311005 -0.323873
C50   C     C_1   0.577113 0.162468 0.158834 -0.111024
C51   C     C_1   0.650825 0.338366 0.339031 -0.085238
C52   C     C_1   0.652890 0.375874 0.377776 -0.151409
H19   H     H_    0.382810 0.245342 0.319275 0.181812
H20   H     H_    0.592045 0.216010 0.351845 0.175441
H21   H     H_    0.383916 0.338118 0.259764 0.151530
H22   H     H_    0.671753 0.150656 0.279593 0.157602
O11   O     O_R   0.724990 0.055630 0.941600 -0.539243
O12   O     O_R   0.395220 0.063160 0.056480 -0.535801
O13   O     O_R   0.225040 0.942970 0.056870 -0.528164
C53   C     C_R   0.562657 0.078185 0.075609 0.730655
O14   O     O_R   0.395270 0.063000 0.941990 -0.537978
O15   O     O_R   0.225080 0.942800 0.941570 -0.536027
C54   C     C_R   0.562767 0.077956 0.922906 0.712431
O16   O     O_R   0.724940 0.055790 0.056910 -0.535202
O17   O     O_3   0.558580 0.959880 0.999250 -0.364430
V3    V     V_3+5 0.283680 0.006590 0.999220 1.472015
O18   O     O_R   0.895380 0.935350 0.941950 -0.537269
C55   C     C_R   0.064406 0.920420 0.922824 0.718258
O19   O     O_R   0.895330 0.935520 0.056440 -0.527767
C56   C     C_R   0.064588 0.920599 0.075586 0.729418
V4    V     V_3+5 0.783690 0.991900 0.999180 1.478382
O20   O     O_3   0.058660 0.038680 0.999200 -0.375166
C57   C     C_2   0.092731 0.701763 0.127201 0.426914
H23   H     H_    0.239776 0.690067 0.119676 0.068226
O21   O     O_2   0.981647 0.697920 0.087902 -0.501268
C58   C     C_1   0.195457 0.621898 0.217335 0.283369
N1    N     N_1   0.304836 0.583461 0.204756 -0.283125
C59   C     C_2   0.452896 0.765637 0.183905 0.316840
H24   H     H_    0.491162 0.716892 0.175812 0.085745
O22   O     O_2   0.529537 0.806882 0.156713 -0.523575
C60   C     C_1   0.875764 0.637509 0.243123 0.297638
N2    N     N_1   0.735693 0.611247 0.250681 -0.321090
C61   C     C_1   0.414252 0.216625 0.652564 0.364567
N3    N     N_1   0.404389 0.185289 0.612664 -0.260013
C62   C     C_1   0.830988 0.215521 0.649630 0.375082
N4    N     N_1   0.867946 0.196271 0.605200 -0.286175
C63   C     C_2   0.731260 0.121284 0.729638 0.402148
H25   H     H_    0.834356 0.085877 0.742485 0.042342
O23   O     O_2   0.604351 0.106068 0.697773 -0.513500
C64   C     C_1   0.481557 0.373621 0.775144 0.341466
N5    N     N_1   0.363057 0.410926 0.781607 -0.271417
C65   C     C_1   0.808700 0.364854 0.771661 0.324034
N6    N     N_1   0.941991 0.395499 0.775759 -0.256340
C66   C     C_1   0.535608 0.294733 0.868022 0.369672
N7    N     N_1   0.454964 0.309612 0.908495 -0.291171
C67   C     C_1   0.269656 0.303376 0.692619 0.269018
N8    N     N_1   0.153069 0.340248 0.682361 -0.325791
C68   C     C_1   0.243173 0.238772 0.795498 0.282886
N9    N     N_1   0.128212 0.257823 0.825837 -0.350420
C69   C     C_1   0.606879 0.380768 0.220161 0.363281
N10   N     N_1   0.672445 0.426661 0.203247 -0.246149
C70   C     C_2   0.958814 0.243830 0.314911 0.453334
H26   H     H_    0.047971 0.274950 0.339314 0.038546
O24   O     O_2   0.952599 0.188424 0.328057 -0.520521
C71   C     C_2   0.874202 0.262988 0.156620 0.345186
H27   H     H_    0.873797 0.237729 0.116686 0.047991
O25   O     O_2   0.918485 0.318334 0.156267 -0.512574
C72   C     C_1   0.928422 0.169333 0.209473 0.391003
N11   N     N_1   0.007602 0.121759 0.205214 -0.317603
C73   C     C_1   0.398758 0.135540 0.269911 0.413687
N12   N     N_1   0.285654 0.097424 0.276093 -0.267504
C74   C     C_2   0.294635 0.809562 0.658901 0.415841
H28   H     H_    0.338307 0.857952 0.664065 0.045513
O26   O     O_2   0.326774 0.782103 0.614607 -0.509758
C75   C     C_2   0.295028 0.259144 0.184800 0.400624
H29   H     H_    0.239478 0.251056 0.142771 0.065113
O27   O     O_2   0.198518 0.252547 0.226169 -0.570302
C76   C     C_1   0.754133 0.710164 0.714696 0.300732
N13   N     N_1   0.609359 0.692319 0.699176 -0.341263

loop_
_geom_bond_atom_site_label_1
_geom_bond_atom_site_label_2
_ccdc_geom_bond_type
C49   H19   S    
O12   V3    S    
C11   H4    S    
V4    O20   S    
H13   C34   S    
V3    O20   S    
C12   C14   S    
C30   C31   S    
C60   N2    T    
C1    O6    A    
C68   N9    T    
C75   H29   S    
O15   C55   A    
C71   H27   S    
C30   C33   S    
C47   C48   S    
C22   C23   S    
C10   C13   S    
C6    C10   S    
C11   C12   S    
C67   N8    T    
C13   C14   S    
C9    C11   S    
C6    H1    S    
C63   O23   D    
O5    C3    A    
C49   H20   S    
C23   C26   S    
C58   N1    T    
V2    O10   S    
C31   C35   S    
O18   C55   A    
O15   V3    S    
C5    H2    S    
C59   H24   S    
C41   C46   S    
C18   C19   S    
C3    C20   S    
C57   H23   S    
O14   V3    S    
O11   V4    S    
C29   C34   S    
O17   V3    S    
O16   V4    S    
C41   C69   S    
C42   C43   S    
O1    V2    S    
C70   H26   S    
O7    V1    S    
H17   C46   S    
C48   H22   S    
C39   C40   T    
C33   C39   S    
O1    C2    A    
O9    C4    A    
C17   C59   S    
O8    V2    S    
C75   O27   D    
C29   C33   S    
C29   C61   S    
C53   O16   A    
C43   C72   S    
C46   C47   S    
C5    C9    S    
C25   C57   S    
O13   C56   A    
C12   C16   S    
C18   H8    S    
C5    C12   S    
C9    C10   S    
C9    C76   S    
O4    C2    A    
C48   C49   S    
C45   C51   S    
C25   H11   S    
C23   C24   S    
H3    C14   S    
C51   C52   T    
C8    C16   T    
O2    C1    A    
C35   C36   S    
O14   C54   A    
O19   C56   A    
C30   C62   S    
C8    C55   S    
C42   H18   S    
C42   C70   S    
C5    C6    S    
C29   C67   S    
C57   O21   D    
C6    C14   S    
C20   C26   T    
C73   N12   T    
O3    C4    A    
C19   H9    S    
O19   V4    S    
O12   C53   A    
C46   C75   S    
O6    V2    S    
O9    V2    S    
C4    C7    S    
C74   O26   D    
H5    C22   S    
C13   C74   S    
C19   C23   S    
C43   C47   S    
C41   H21   S    
C64   N5    T    
C61   N3    T    
C31   C63   S    
C47   C50   S    
C10   C15   S    
C71   O25   D    
C24   C25   S    
C7    C15   T    
C35   C38   S    
C18   H7    S    
C17   C22   S    
C11   C13   S    
C21   C27   S    
C18   C21   S    
C48   C73   S    
O5    V1    S    
C1    C40   S    
O8    C3    A    
C36   H16   S    
C28   C56   S    
C37   C64   S    
C33   C37   S    
C44   C53   S    
O13   V3    S    
C69   N10   T    
O7    V2    S    
O4    V1    S    
O3    V1    S    
V1    O10   S    
C63   H25   S    
C32   C38   T    
C36   C66   S    
C43   C71   S    
C22   H12   S    
C45   C49   S    
C37   C65   S    
O11   C54   A    
C59   O22   D    
C41   C45   S    
C34   C68   S    
C76   N13   T    
C34   C35   S    
C19   H10   S    
C17   H6    S    
C72   N11   T    
C24   C58   S    
C36   C37   S    
O17   V4    S    
C2    C52   S    
C70   O24   D    
C27   C28   T    
C31   H15   S    
C42   C45   S    
C74   H28   S    
C44   C50   T    
C32   C54   S    
C65   N6    T    
C24   C60   S    
C17   C21   S    
C21   C25   S    
O18   V4    S    
C62   N4    T    
C66   N7    T    
C30   H14   S    
O2    V1    S    
