data_mof_unit_53203.cif
_audit_creation_date              2013-03-05T15:53:05-0500
_audit_creation_method            fapswitch 2.2
_symmetry_space_group_name_H-M    P1
_symmetry_Int_Tables_number       1
_space_group_crystal_system       triclinic
_cell_length_a                    6.953221
_cell_length_b                    20.460735
_cell_length_c                    24.376535
_cell_angle_alpha                 89.613579
_cell_angle_beta                  90.464641
_cell_angle_gamma                 89.442502
_cell_volume                      3467.64224896

loop_
_atom_site_label
_atom_site_type_symbol
_atom_site_description
_atom_site_fract_x
_atom_site_fract_y
_atom_site_fract_z
_atom_type_partial_charge
O1    O     O_R   0.507320 0.423560 0.460500 -0.589430
O2    O     O_R   0.170760 0.556250 0.437010 -0.590829
O3    O     O_R   0.004030 0.576440 0.539500 -0.590065
C1    C     C_R   0.338779 0.576414 0.421037 0.977133
O4    O     O_R   0.177370 0.422820 0.454110 -0.590931
O5    O     O_R   0.010680 0.442050 0.556720 -0.589468
C2    C     C_R   0.346278 0.398945 0.443332 0.923461
O6    O     O_R   0.500680 0.557950 0.443280 -0.589576
O7    O     O_3   0.340380 0.506470 0.533650 -0.271274
V1    V     V_3+5 0.064130 0.498800 0.493760 1.161975
O8    O     O_R   0.681160 0.443750 0.562990 -0.591614
C3    C     C_R   0.850912 0.423703 0.578911 0.979909
O9    O     O_R   0.674560 0.577180 0.545890 -0.590772
C4    C     C_R   0.842608 0.601149 0.556472 0.924575
V2    V     V_3+5 0.564560 0.501200 0.506240 1.162699
O10   O     O_3   0.838180 0.493530 0.466350 -0.272115
C5    C     C_R   0.976725 0.838100 0.911349 -0.091989
C6    C     C_R   0.847171 0.661848 0.588632 -0.097019
C7    C     C_R   0.043929 0.722236 0.906052 -0.175583
C8    C     C_R   0.033920 0.779486 0.936397 -0.164012
C9    C     C_R   0.930052 0.839232 0.855098 -0.248948
C10   C     C_R   0.942526 0.781525 0.822766 0.110209
C11   C     C_R   0.000284 0.722750 0.849731 0.182930
C12   C     C_R   0.902572 0.780074 0.764821 0.062837
C13   C     C_R   0.921212 0.719867 0.735167 0.060525
C14   C     C_R   0.978496 0.663146 0.764480 -0.196930
C15   C     C_R   0.016625 0.664743 0.820418 -0.235267
C16   C     C_R   0.845239 0.836792 0.735510 -0.198452
C17   C     C_R   0.807082 0.835192 0.679574 -0.242387
C18   C     C_R   0.823467 0.777189 0.650259 0.187986
C19   C     C_R   0.881281 0.718418 0.677220 0.109728
C20   C     C_R   0.779810 0.777701 0.593938 -0.180161
C21   C     C_R   0.789885 0.720454 0.563589 -0.164656
C22   C     C_R   0.893845 0.660717 0.644883 -0.246351
H1    H     H_    0.060782 0.619832 0.840987 0.136350
H2    H     H_    0.934473 0.613918 0.662080 0.102091
H3    H     H_    0.751532 0.721752 0.520418 0.108755
H4    H     H_    0.762876 0.880099 0.659007 0.130280
H5    H     H_    0.088783 0.677411 0.926597 0.119915
H6    H     H_    0.072272 0.778188 0.979569 0.110011
H7    H     H_    0.889522 0.886038 0.837896 0.099463
H8    H     H_    0.996039 0.616230 0.745373 0.132203
H9    H     H_    0.827645 0.883703 0.754620 0.129608
H10   H     H_    0.734903 0.822522 0.573396 0.114590
C23   C     C_3   0.857893 0.308911 0.769756 -0.147980
C24   C     C_3   0.044895 0.271449 0.786155 -0.134283
H11   H     H_    0.154792 0.288560 0.815920 0.136207
H12   H     H_    0.813065 0.357421 0.785588 0.126237
H13   H     H_    0.222173 0.260615 0.703914 0.118293
C25   C     C_1   0.960654 0.122057 0.875457 -0.228350
C26   C     C_1   0.863636 0.378298 0.624831 -0.296048
C27   C     C_3   0.742166 0.244864 0.775638 -0.131471
C28   C     C_3   0.928952 0.208035 0.791413 0.211643
C29   C     C_3   0.779187 0.229274 0.714442 -0.173536
C30   C     C_3   0.895132 0.292689 0.709172 0.218441
C31   C     C_3   0.966182 0.191822 0.730833 -0.171519
C32   C     C_3   0.081914 0.255860 0.724958 -0.165738
C33   C     C_1   0.947278 0.160679 0.837506 0.001927
C34   C     C_1   0.876908 0.339894 0.662950 -0.037220
H14   H     H_    0.011008 0.143310 0.715005 0.116138
H15   H     H_    0.669277 0.212147 0.684689 0.115949
H16   H     H_    0.601948 0.240101 0.796706 0.135184
C35   C     C_3   0.542925 0.726351 0.214965 -0.158251
C36   C     C_3   0.351009 0.692845 0.229998 -0.158144
H17   H     H_    0.300287 0.645507 0.213578 0.116294
H18   H     H_    0.651326 0.706959 0.185949 0.114630
H19   H     H_    0.104927 0.767152 0.201647 0.116945
C37   C     C_1   0.348723 0.622069 0.375042 -0.295675
C38   C     C_1   0.475465 0.878032 0.125023 -0.289114
C39   C     C_3   0.580233 0.740766 0.276503 -0.157376
C40   C     C_3   0.388554 0.707852 0.290956 0.226601
C41   C     C_3   0.473165 0.807276 0.270081 -0.160660
C42   C     C_3   0.435619 0.792269 0.209123 0.226918
C43   C     C_3   0.281249 0.773770 0.285114 -0.160252
C44   C     C_3   0.243941 0.759355 0.223576 -0.156568
C45   C     C_1   0.364204 0.660583 0.337022 -0.042620
C46   C     C_1   0.459974 0.839531 0.163052 -0.045169
H20   H     H_    0.172848 0.793161 0.314130 0.112724
H21   H     H_    0.523888 0.854613 0.286501 0.113611
H22   H     H_    0.719247 0.732969 0.298431 0.116718
C47   C     C_R   0.472680 0.163401 0.087066 -0.277404
C48   C     C_R   0.352071 0.338331 0.410881 -0.098848
C49   C     C_R   0.546629 0.278558 0.093867 -0.281362
C50   C     C_R   0.531513 0.222177 0.061946 0.363330
C51   C     C_R   0.428307 0.162514 0.143354 -0.293951
C52   C     C_R   0.444274 0.219541 0.176252 0.131914
C53   C     C_R   0.504763 0.277729 0.150051 0.128790
C54   C     C_R   0.405207 0.220840 0.234138 0.072734
C55   C     C_R   0.426785 0.280508 0.264360 0.058355
C56   C     C_R   0.487446 0.336695 0.235754 -0.203930
C57   C     C_R   0.525021 0.335157 0.179959 -0.195155
C58   C     C_R   0.345675 0.164538 0.262845 -0.200243
C59   C     C_R   0.307954 0.166059 0.318652 -0.242931
C60   C     C_R   0.326364 0.223623 0.348425 0.187333
C61   C     C_R   0.386373 0.281984 0.322131 0.109548
C62   C     C_R   0.282113 0.223120 0.404504 -0.180193
C63   C     C_R   0.293064 0.280041 0.435225 -0.163082
C64   C     C_R   0.399882 0.339372 0.354876 -0.245736
H23   H     H_    0.571605 0.379710 0.159957 0.133368
H24   H     H_    0.441241 0.385938 0.338086 0.102728
H25   H     H_    0.253675 0.278774 0.478136 0.109199
H26   H     H_    0.262028 0.121473 0.338728 0.130930
H27   H     H_    0.591379 0.323770 0.074589 0.168454
H28   H     H_    0.387164 0.116015 0.160323 0.117657
H29   H     H_    0.508277 0.383099 0.255344 0.129827
H30   H     H_    0.325992 0.118022 0.243350 0.130281
H31   H     H_    0.235603 0.178601 0.424534 0.114688
O11   O     O_R   0.323550 0.942140 0.056770 -0.595479
O12   O     O_R   0.647080 0.077200 0.045890 -0.590918
O13   O     O_R   0.813610 0.057920 0.943260 -0.569595
C65   C     C_R   0.478262 0.101308 0.056420 1.040180
O14   O     O_R   0.653470 0.943760 0.063000 -0.596357
O15   O     O_R   0.820050 0.923540 0.960490 -0.594715
C66   C     C_R   0.485436 0.923656 0.079007 0.961237
O16   O     O_R   0.317110 0.076520 0.039540 -0.577956
O17   O     O_3   0.483830 0.993580 0.966380 -0.268415
V3    V     V_3+5 0.760140 0.001190 0.006240 1.191469
O18   O     O_R   0.149510 0.922740 0.954070 -0.595970
C67   C     C_R   0.981413 0.898802 0.943503 0.911395
O19   O     O_R   0.143120 0.056170 0.936970 -0.579559
C68   C     C_R   0.973397 0.076382 0.921167 0.999068
V4    V     V_3+5 0.259690 0.998700 0.993700 1.195284
O20   O     O_3   0.986130 0.006420 0.033620 -0.279422
N1    N     N_R   0.577376 0.225547 0.004402 0.227401
O21   O     O_R   0.488219 0.189192 0.968942 -0.413696
O22   O     O_R   0.695924 0.269480 0.986439 -0.404145

loop_
_geom_bond_atom_site_label_1
_geom_bond_atom_site_label_2
_geom_bond_distance
_ccdc_geom_bond_type
C13   C19   1.437915 A    
C49   C53   1.402496 A    
C59   C60   1.394015 A    
C53   C57   1.394682 A    
C48   C64   1.407775 A    
C4    C6    1.473620 S    
C38   C46   1.218589 T    
C7    C8    1.391081 A    
C1    O6    1.297320 A    
C3    C26   1.451420 S    
O14   C66   1.304274 A    
C61   C64   1.427685 A    
O12   V3    1.994919 S    
V1    O10   1.706928 S    
C23   C24   1.551143 S    
C31   C32   1.550715 S    
C14   C15   1.387655 A    
O17   V4    1.702350 S    
C7    H5    1.083957 S    
N1    O22   1.301606 A    
C16   C17   1.387660 A    
C41   H21   1.110085 S    
C30   C34   1.482902 S    
O12   C65   1.297071 A    
O13   C68   1.297019 A    
O5    C3    1.297219 A    
C18   C19   1.419577 A    
C8    H6    1.083620 S    
C52   C54   1.439527 A    
C28   C31   1.539134 S    
V2    O10   2.148501 S    
C5    C8    1.395037 A    
H13   C32   1.110414 S    
O17   V3    2.153396 S    
O18   V4    1.991760 S    
C36   C40   1.540089 S    
O11   C66   1.297285 A    
O18   C67   1.296273 A    
O15   C67   1.298394 A    
O8    V2    1.973344 S    
C47   C65   1.478515 S    
O19   V4    1.973163 S    
C17   H4    1.084378 S    
C39   C40   1.541368 S    
O1    V2    1.988506 S    
C11   C15   1.393635 A    
O7    V1    2.153452 S    
C22   H2    1.076959 S    
C35   H18   1.110156 S    
O16   V4    1.993098 S    
O9    C4    1.296286 A    
C42   C44   1.541369 S    
C25   C68   1.451036 S    
O13   V3    1.958597 S    
C27   C29   1.550617 S    
C10   C11   1.419579 A    
C29   C31   1.550956 S    
C38   C66   1.457011 S    
C43   C44   1.551033 S    
C39   H22   1.110387 S    
C25   C33   1.215025 T    
C54   C58   1.411089 A    
C12   C13   1.437818 A    
C41   C43   1.551568 S    
C1    C37   1.457009 S    
C52   C53   1.416374 A    
C35   C42   1.540170 S    
C23   C27   1.550883 S    
C15   H1    1.084380 S    
C13   C14   1.411154 A    
C51   C52   1.424976 A    
C21   H3    1.083619 S    
C31   H14   1.110109 S    
C55   C61   1.438720 A    
O2    C1    1.304326 A    
C17   C18   1.393635 A    
C49   C50   1.400163 A    
C35   C39   1.551031 S    
C28   C33   1.482613 S    
C63   H25   1.083632 S    
C62   C63   1.391264 A    
C20   H10   1.083953 S    
C19   C22   1.426345 A    
C24   H11   1.110207 S    
C37   C45   1.218589 T    
C60   C62   1.403618 A    
C6    C22   1.406500 A    
C51   H28   1.077048 S    
C49   H27   1.084212 S    
O15   V3    1.989980 S    
C58   H30   1.076092 S    
C62   H31   1.083971 S    
O6    V2    1.963635 S    
C64   H24   1.077030 S    
O9    V2    1.991833 S    
C24   C32   1.550624 S    
C48   C63   1.395280 A    
C9    H7    1.076959 S    
C26   C34   1.215229 T    
O2    V1    1.963877 S    
C47   C50   1.411486 A    
C27   C28   1.539941 S    
C14   H8    1.076071 S    
O4    C2    1.297142 A    
C23   H12   1.110102 S    
C29   C30   1.539417 S    
O1    C2    1.299565 A    
C12   C16   1.411151 A    
C56   H29   1.076182 S    
O11   V4    1.963421 S    
C41   C42   1.540087 S    
C59   H26   1.084393 S    
O5    V1    1.958428 S    
C40   C43   1.540168 S    
C65   O16   1.299422 A    
O8    C3    1.301168 A    
C29   H15   1.110189 S    
O3    C4    1.298400 A    
C50   N1    1.442372 S    
C16   H9    1.076073 S    
O14   V3    1.963909 S    
C20   C21   1.391084 A    
C30   C32   1.539995 S    
V3    O20   1.706841 S    
O4    V1    1.994931 S    
O3    V1    1.989953 S    
C27   H16   1.110440 S    
C36   H17   1.110085 S    
C18   C20   1.403598 A    
C56   C57   1.387538 A    
C40   C45   1.488846 S    
C24   C28   1.539360 S    
C58   C59   1.388024 A    
C36   C44   1.551182 S    
C10   C12   1.437915 A    
O7    V2    1.703653 S    
C60   C61   1.419347 A    
C6    C21   1.395036 A    
C5    C9    1.406499 A    
C5    C67   1.473615 S    
C35   C36   1.551559 S    
C7    C11   1.403593 A    
C2    C48   1.475899 S    
H19   C44   1.110388 S    
C54   C55   1.438611 A    
C23   C30   1.539292 S    
C43   H20   1.110156 S    
V4    O20   2.148537 S    
C42   C46   1.488850 S    
O19   C68   1.301186 A    
C39   C41   1.551187 S    
C57   H23   1.084415 S    
C55   C56   1.410381 A    
C9    C10   1.426349 A    
C47   C51   1.408840 A    
N1    O21   1.301445 A    
