data_mof_unit_47940.cif
_audit_creation_date              2012-12-10T16:55:49-0500
_audit_creation_method            fapswitch 2.2
_symmetry_space_group_name_H-M    P1
_symmetry_Int_Tables_number       1
_space_group_crystal_system       triclinic
_cell_length_a                    7.860436
_cell_length_b                    8.552556
_cell_length_c                    10.480024
_cell_angle_alpha                 92.53432
_cell_angle_beta                  84.526242
_cell_angle_gamma                 93.564155
_cell_volume                      699.449506752

loop_
_atom_site_label
_atom_site_type_symbol
_atom_type_description
_atom_site_fract_x
_atom_site_fract_y
_atom_site_fract_z
_atom_type_partial_charge
Br1   Br    Br    0.040499 0.305395 0.348393 -0.431488
Br2   Br    Br    0.959425 0.694164 0.652018 -0.456416
C1    C     C_R   0.545339 0.794362 0.497126 0.945091
C2    C     C_3   0.499162 0.498954 0.876811 -0.070276
C3    C     C_3   0.395707 0.376849 0.045311 -0.242565
C4    C     C_3   0.605336 0.619127 0.954640 -0.245856
C5    C     C_2   0.569166 0.957991 0.495917 -0.371442
C6    C     C_2   0.430872 0.042099 0.505524 -0.367868
C7    C     C_3   0.326161 0.883130 0.026127 -0.735493
C8    C     C_3   0.787887 0.208864 0.848197 -0.717787
C9    C     C_R   0.454673 0.205668 0.503388 0.944509
C10   C     C_R   0.499888 0.499680 0.742074 0.873040
C11   C     C_R   0.499990 0.498661 0.257887 0.874034
C12   C     C_3   0.337794 0.514223 0.971092 -0.171255
C13   C     C_3   0.662891 0.481425 0.029236 -0.168575
C14   C     C_3   0.445457 0.631076 0.049759 0.247973
C15   C     C_3   0.555531 0.364638 0.949874 0.248612
C16   C     C_3   0.501263 0.497014 0.123009 -0.068517
H1    H     H_    0.206420 0.529217 0.944710 0.172433
H2    H     H_    0.431961 0.922765 0.954844 0.235677
H3    H     H_    0.527222 0.169148 0.826039 0.211759
H4    H     H_    0.811701 0.090435 0.804906 0.244745
H5    H     H_    0.866463 0.228856 0.930619 0.240699
H6    H     H_    0.827650 0.297212 0.775177 0.267385
H7    H     H_    0.793802 0.467358 0.056904 0.175755
H8    H     H_    0.313404 0.277772 0.086141 0.172505
H9    H     H_    0.687223 0.718898 0.914320 0.180718
H10   H     H_    0.699981 0.008659 0.486942 0.213612
H11   H     H_    0.300057 0.991448 0.514648 0.214231
H12   H     H_    0.471659 0.827782 0.171568 0.222082
H13   H     H_    0.277880 0.986686 0.082612 0.243396
H14   H     H_    0.219386 0.826486 0.975396 0.253097
N1    N     N_2   0.950320 0.457950 0.465730 0.083776
N2    N     N_2   0.049680 0.542050 0.534270 0.082617
N3    N     N_2   0.386701 0.775186 0.111438 -0.287633
N4    N     N_2   0.608202 0.216563 0.891255 -0.318030
O1    O     O_R   0.389250 0.738570 0.508410 -0.598713
O2    O     O_R   0.610750 0.261430 0.491590 -0.602892
O3    O     O_R   0.678390 0.711620 0.486450 -0.586717
O4    O     O_R   0.321610 0.288380 0.513550 -0.593388
O5    O     O_R   0.355460 0.513510 0.697030 -0.617887
O6    O     O_R   0.644540 0.486490 0.302970 -0.613071
O7    O     O_R   0.644600 0.486560 0.675070 -0.598970
O8    O     O_R   0.355400 0.513440 0.324930 -0.579647
Zn1   Zn    Zn3+2 0.306940 0.517990 0.514670 1.050818
Zn2   Zn    Zn3+2 0.693060 0.482010 0.485330 1.045921

loop_
_geom_bond_atom_site_label_1
_geom_bond_atom_site_label_2
_ccdc_geom_bond_type
C13   C16   S    
C8    N4    S    
C10   O5    A    
C15   N4    S    
C8    H5    S    
C9    O2    A    
C4    C14   S    
C7    H2    S    
C4    H9    S    
Br2   N2    S    
N1    N2    D    
C1    O3    A    
C5    C6    D    
N2    Zn1   S    
C8    H4    S    
O2    Zn2   S    
H3    N4    S    
N1    Zn2   S    
C3    C12   S    
C9    O4    A    
H12   N3    S    
C6    C9    S    
C6    H11   S    
C11   C16   S    
C2    C4    S    
C11   O6    A    
C10   O7    A    
C1    C5    S    
O3    Zn2   S    
C14   N3    S    
C2    C12   S    
O4    Zn1   S    
O7    Zn2   S    
C12   C14   S    
C13   H7    S    
C2    C10   S    
C2    C15   S    
Br1   N1    S    
C3    H8    S    
C3    C15   S    
O8    Zn1   S    
C1    O1    A    
C14   C16   S    
O6    Zn2   S    
C13   C15   S    
C7    H13   S    
C7    N3    S    
O5    Zn1   S    
C3    C16   S    
C7    H14   S    
C8    H6    S    
C4    C13   S    
O1    Zn1   S    
C12   H1    S    
C11   O8    A    
C5    H10   S    
