data_mof_unit_8389.cif
_audit_creation_date              2012-12-11T15:13:41-0500
_audit_creation_method            fapswitch 2.2
_symmetry_space_group_name_H-M    P1
_symmetry_Int_Tables_number       1
_space_group_crystal_system       triclinic
_cell_length_a                    6.944639
_cell_length_b                    13.526481
_cell_length_c                    20.100349
_cell_angle_alpha                 103.973334
_cell_angle_beta                  90.46984
_cell_angle_gamma                 90.552618
_cell_volume                      1832.08996196

loop_
_atom_site_label
_atom_site_type_symbol
_atom_type_description
_atom_site_fract_x
_atom_site_fract_y
_atom_site_fract_z
_atom_type_partial_charge
O1    O     O_R   0.506780 0.600060 0.449950 -0.540429
O2    O     O_R   0.179840 0.597110 0.589410 -0.545000
O3    O     O_R   0.004570 0.399940 0.550050 -0.539212
C1    C     C_R   0.349086 0.619010 0.616850 0.678400
O4    O     O_R   0.177380 0.612160 0.452890 -0.534449
O5    O     O_R   0.002100 0.415100 0.412560 -0.532843
C2    C     C_R   0.346000 0.638094 0.435711 0.707282
O6    O     O_R   0.509250 0.584900 0.587440 -0.543368
O7    O     O_3   0.337570 0.435330 0.486930 -0.363761
V1    V     V_3+5 0.064650 0.512000 0.502430 1.474623
O8    O     O_R   0.672090 0.402890 0.410590 -0.544894
C3    C     C_R   0.839402 0.382265 0.382938 0.720528
O9    O     O_R   0.674540 0.387840 0.547110 -0.541708
C4    C     C_R   0.843373 0.360468 0.563166 0.701524
V2    V     V_3+5 0.564040 0.488000 0.497570 1.459662
O10   O     O_3   0.840990 0.564670 0.513070 -0.370529
C5    C     C_R   0.876355 0.105616 0.605934 -0.024765
H1    H     H_    0.870277 0.158269 0.512899 0.122192
H2    H     H_    0.889355 0.979992 0.692180 0.130660
C6    C     C_R   0.852416 0.282462 0.602184 -0.044050
C7    C     C_R   0.851788 0.320282 0.932389 -0.050992
C8    C     C_R   0.848210 0.395790 0.896175 -0.129841
C9    C     C_R   0.851250 0.370557 0.824860 -0.161615
C10   C     C_R   0.858095 0.267690 0.786947 0.079137
C11   C     C_R   0.864793 0.190383 0.824063 0.065466
C12   C     C_R   0.859788 0.239273 0.713567 0.073341
C13   C     C_R   0.872285 0.134319 0.678655 0.092314
C14   C     C_R   0.880215 0.060315 0.716924 -0.210683
C15   C     C_R   0.875702 0.087652 0.787954 -0.196813
C16   C     C_R   0.848800 0.311892 0.673575 -0.218486
C17   C     C_R   0.866762 0.180019 0.568491 -0.197553
C18   C     C_R   0.861051 0.217274 0.896829 -0.126843
H3    H     H_    0.836548 0.392327 0.695961 0.093766
H4    H     H_    0.849314 0.434045 0.801339 0.126521
H5    H     H_    0.843353 0.475322 0.923408 0.155354
H6    H     H_    0.881462 0.026776 0.814348 0.113855
C19   C     C_3   0.817898 0.157034 0.252979 0.197346
C20   C     C_3   0.984112 0.222129 0.291587 -0.031279
C21   C     C_3   0.845820 0.312279 0.312692 -0.092228
C22   C     C_3   0.676477 0.246163 0.274258 -0.232740
C23   C     C_3   0.728975 0.280732 0.207770 -0.183923
C24   C     C_3   0.897674 0.344811 0.247135 0.247513
C25   C     C_3   0.039297 0.255798 0.225665 -0.189692
C26   C     C_3   0.868751 0.189791 0.187166 -0.058814
H7    H     H_    0.529230 0.240526 0.294177 0.146391
H8    H     H_    0.625979 0.306573 0.173148 0.140205
H9    H     H_    0.187033 0.261123 0.205991 0.120483
C27   C     C_3   0.539149 0.725049 0.731176 -0.156924
C28   C     C_3   0.459236 0.835079 0.749868 -0.146847
H10   H     H_    0.543374 0.905443 0.750285 0.116935
H11   H     H_    0.689475 0.703740 0.716135 0.112974
C29   C     C_3   0.355820 0.811932 0.812224 -0.046417
C30   C     C_3   0.434193 0.703311 0.793497 0.005938
C31   C     C_3   0.253057 0.665654 0.749552 -0.169332
C32   C     C_3   0.173937 0.775839 0.768185 -0.127045
C33   C     C_3   0.277131 0.798333 0.705133 -0.122543
C34   C     C_3   0.356802 0.689129 0.687380 -0.014443
H12   H     H_    0.169369 0.595197 0.749341 0.107367
H13   H     H_    0.023755 0.797106 0.783443 0.113718
H14   H     H_    0.212371 0.837536 0.667942 0.114085
C35   C     C_R   0.351229 0.890531 0.390084 -0.134549
H15   H     H_    0.350639 0.842038 0.484053 0.119295
H16   H     H_    0.348460 0.014646 0.306843 0.155598
H17   H     H_    0.349657 0.970478 0.416561 0.139157
C36   C     C_R   0.353733 0.714568 0.395639 -0.037202
C37   C     C_R   0.363396 0.678367 0.065180 -0.161343
C38   C     C_R   0.362065 0.601422 0.100205 -0.093266
C39   C     C_R   0.357310 0.625161 0.171653 -0.152893
C40   C     C_R   0.352581 0.727753 0.210163 0.079270
C41   C     C_R   0.350050 0.806041 0.173664 0.076226
C42   C     C_R   0.352093 0.755569 0.283511 0.074879
C43   C     C_R   0.350162 0.860496 0.318180 0.136921
C44   C     C_R   0.346366 0.934980 0.281002 -0.191932
C45   C     C_R   0.343305 0.908560 0.210102 -0.192362
C46   C     C_R   0.354143 0.683351 0.323976 -0.207221
C47   C     C_R   0.352236 0.817850 0.428585 -0.136381
C48   C     C_R   0.357499 0.780448 0.101204 -0.080936
H18   H     H_    0.353819 0.602435 0.301682 0.108102
H19   H     H_    0.369334 0.658295 0.009700 0.133044
H20   H     H_    0.358430 0.561415 0.195014 0.115644
H21   H     H_    0.366310 0.522535 0.071757 0.135199
H22   H     H_    0.339088 0.969924 0.184121 0.118168
O11   O     O_R   0.203580 0.914920 0.912610 -0.542996
O12   O     O_R   0.535710 0.887810 0.047120 -0.537248
O13   O     O_R   0.710730 0.084950 0.087430 -0.544002
C49   C     C_R   0.366562 0.859338 0.062368 0.692895
O14   O     O_R   0.533010 0.902850 0.910600 -0.542926
O15   O     O_R   0.708010 0.100090 0.949930 -0.540412
C50   C     C_R   0.363781 0.881551 0.882969 0.683901
O16   O     O_R   0.206300 0.899780 0.050100 -0.537507
O17   O     O_3   0.375170 0.064580 0.013100 -0.372457
V3    V     V_3+5 0.648200 0.988020 0.997570 1.447688
O18   O     O_R   0.038030 0.112330 0.952840 -0.541539
C51   C     C_R   0.869346 0.138481 0.935884 0.699513
O19   O     O_R   0.040730 0.097300 0.089360 -0.544552
C52   C     C_R   0.873553 0.118983 0.116871 0.733953
V4    V     V_3+5 0.148780 0.012220 0.002360 1.442293
O20   O     O_3   0.871930 0.935430 0.986900 -0.369498
N1    N     N_3   0.780932 0.052193 0.255981 -0.658975
H23   H     H_    0.724103 0.053918 0.304213 0.235547
H24   H     H_    0.673703 0.023295 0.219693 0.227749
N2    N     N_3   0.942444 0.449649 0.245632 -0.674553
H25   H     H_    0.982100 0.449700 0.195644 0.256647
H26   H     H_    0.815197 0.490993 0.255675 0.225695
C53   C     C_1   0.519755 0.650881 0.842229 0.255111
N3    N     N_1   0.587176 0.609695 0.880785 -0.392778
C54   C     C_1   0.890821 0.000450 0.568109 0.269678
N4    N     N_1   0.902448 0.916346 0.537798 -0.365241
C55   C     C_1   0.846129 0.350308 0.006354 0.277731
N5    N     N_1   0.841320 0.374379 0.065577 -0.404122
C56   C     C_1   0.116858 0.194755 0.341220 0.285215
N6    N     N_1   0.220038 0.175456 0.381643 -0.395746

loop_
_geom_bond_atom_site_label_1
_geom_bond_atom_site_label_2
_ccdc_geom_bond_type
C39   H20   S    
C18   C51   S    
C32   C33   S    
O18   C51   A    
C32   H13   S    
C23   C24   S    
O19   C52   A    
C19   N1    S    
C1    O6    A    
V4    O20   S    
V3    O20   S    
C27   C34   S    
C6    C16   A    
C30   C31   S    
C8    H5    S    
C15   H6    S    
C12   C13   A    
C36   C47   A    
C7    C8    A    
C14   C15   A    
O12   C49   A    
C19   C22   S    
C5    C54   S    
O5    C3    A    
C20   C21   S    
O13   C52   A    
V2    O10   S    
C33   C34   S    
C44   C45   A    
C40   C42   A    
N2    H25   S    
O8    V2    S    
C27   H11   S    
O15   V3    S    
C39   C40   A    
C37   H19   S    
C1    C34   S    
C41   C45   A    
C54   N4    T    
O1    V2    S    
O7    V1    S    
O16   V4    S    
C16   H3    S    
C29   C32   S    
C9    H4    S    
C11   C18   A    
C37   C38   A    
O9    C4    A    
C41   C48   A    
H15   C47   S    
C29   C50   S    
C22   H7    S    
C45   H22   S    
C24   N2    S    
O13   V3    S    
C21   C24   S    
C35   C47   A    
C11   C15   A    
C27   C30   S    
O11   C50   A    
C7    C18   A    
O15   C51   A    
C38   C39   A    
C5    C13   A    
C4    C6    S    
C10   C11   A    
C49   O16   A    
C21   C22   S    
O4    C2    A    
H16   C44   S    
C33   H14   S    
C35   H17   S    
O2    C1    A    
C25   C26   S    
C19   C20   S    
C26   C52   S    
C2    C36   S    
N1    H23   S    
C23   H8    S    
C28   C29   S    
O17   V4    S    
N2    H26   S    
H2    C14   S    
O3    C4    A    
C35   C43   A    
C27   C28   S    
N1    H24   S    
C48   C49   S    
C38   H21   S    
O6    V2    S    
O14   C50   A    
C5    C17   A    
C23   C26   S    
C24   C25   S    
O2    V1    S    
O18   V4    S    
O17   V3    S    
C29   C30   S    
C31   H12   S    
C37   C48   A    
C31   C32   S    
C22   C23   S    
C56   N6    T    
O1    C2    A    
C10   C12   A    
C43   C44   A    
O5    V1    S    
C7    C55   S    
O8    C3    A    
O19   V4    S    
C12   C16   A    
C28   C33   S    
C53   N3    T    
C36   C46   A    
C3    C21   S    
O9    V2    S    
O7    V2    S    
C20   C25   S    
O3    V1    S    
V1    O10   S    
C55   N5    T    
C42   C46   A    
C19   C26   S    
C40   C41   A    
C46   H18   S    
C9    C10   A    
C30   C53   S    
O4    V1    S    
C42   C43   A    
C28   H10   S    
O11   V4    S    
C13   C14   A    
C8    C9    A    
H1    C17   S    
O12   V3    S    
C20   C56   S    
O14   V3    S    
C25   H9    S    
C6    C17   A    
C31   C34   S    
