data_mof_unit_54293.cif
_audit_creation_date              2012-12-11T15:55:50-0500
_audit_creation_method            fapswitch 2.2
_symmetry_space_group_name_H-M    P1
_symmetry_Int_Tables_number       1
_space_group_crystal_system       triclinic
_cell_length_a                    6.952129
_cell_length_b                    14.531496
_cell_length_c                    16.109883
_cell_angle_alpha                 89.977159
_cell_angle_beta                  89.912873
_cell_angle_gamma                 89.998393
_cell_volume                      1627.49625636

loop_
_atom_site_label
_atom_site_type_symbol
_atom_type_description
_atom_site_fract_x
_atom_site_fract_y
_atom_site_fract_z
_atom_type_partial_charge
O1    O     O_R   0.505680 0.583900 0.413320 -0.546291
O2    O     O_R   0.176010 0.594950 0.586080 -0.545468
O3    O     O_R   0.005680 0.416100 0.586680 -0.535347
C1    C     C_R   0.344957 0.617078 0.615049 0.704445
O4    O     O_R   0.175960 0.594930 0.413930 -0.538895
O5    O     O_R   0.005640 0.416080 0.413300 -0.510550
C2    C     C_R   0.344987 0.617151 0.385190 0.728025
O6    O     O_R   0.505720 0.583920 0.586700 -0.544040
O7    O     O_3   0.339190 0.441320 0.500000 -0.363424
V1    V     V_3+5 0.064350 0.510890 0.500000 1.464614
O8    O     O_R   0.675920 0.405050 0.413920 -0.549453
C3    C     C_R   0.845139 0.384038 0.384373 0.772488
O9    O     O_R   0.675960 0.405070 0.586070 -0.526459
C4    C     C_R   0.844802 0.382979 0.614836 0.704922
V2    V     V_3+5 0.564340 0.489110 0.500000 1.467588
O10   O     O_3   0.839370 0.558680 0.500000 -0.385475
C5    C     C_R   0.014627 0.255553 0.691731 -0.049308
C6    C     C_R   0.853976 0.312718 0.681681 -0.128965
C7    C     C_R   0.704914 0.304033 0.740147 -0.104644
H1    H     H_    0.586258 0.351291 0.738386 0.199509
C8    C     C_R   0.715831 0.239966 0.805604 -0.182463
H2    H     H_    0.603384 0.237977 0.851604 0.192124
C9    C     C_R   0.878374 0.183993 0.816089 -0.099217
C10   C     C_R   0.027613 0.193695 0.758487 -0.072821
C11   C     C_3   0.233239 0.218280 0.775181 0.163128
C12   C     C_3   0.221266 0.283373 0.700986 0.576515
C13   C     C_R   0.022617 0.255088 0.191787 0.232020
C14   C     C_R   0.008190 0.322500 0.255762 0.277692
C15   C     C_R   0.857715 0.317318 0.314584 -0.177687
C16   C     C_R   0.716524 0.249481 0.305786 -0.235192
C17   C     C_R   0.722095 0.186602 0.240262 0.284766
C18   C     C_R   0.877026 0.187609 0.182714 -0.189381
C19   C     C_R   0.188435 0.724388 0.717920 -0.151113
C20   C     C_R   0.199627 0.787961 0.783096 -0.147405
H3    H     H_    0.067221 0.816586 0.807377 0.117052
C21   C     C_R   0.378790 0.814271 0.816278 -0.043622
C22   C     C_R   0.546427 0.775155 0.782370 -0.150429
H4    H     H_    0.686845 0.793659 0.806078 0.115570
C23   C     C_R   0.535235 0.711585 0.717192 -0.145448
H5    H     H_    0.667640 0.682957 0.692912 0.116289
C24   C     C_R   0.356083 0.685336 0.683966 -0.045700
C25   C     C_R   0.195738 0.706793 0.268078 -0.126790
C26   C     C_R   0.208625 0.771353 0.203767 -0.166319
C27   C     C_R   0.381232 0.819230 0.188067 -0.147855
C28   C     C_R   0.541524 0.801962 0.240791 0.361592
C29   C     C_R   0.528980 0.734063 0.302386 -0.151894
H6    H     H_    0.653803 0.721227 0.340902 0.140993
C30   C     C_R   0.356370 0.686642 0.317548 -0.131431
O11   O     O_R   0.229200 0.915950 0.913350 -0.547406
O12   O     O_R   0.559090 0.905000 0.086080 -0.535505
O13   O     O_R   0.729280 0.083880 0.086680 -0.549048
C31   C     C_R   0.390734 0.885011 0.116799 0.698749
O14   O     O_R   0.558920 0.904980 0.913920 -0.547016
O15   O     O_R   0.729110 0.083860 0.913300 -0.546020
C32   C     C_R   0.389945 0.882695 0.885071 0.673143
O16   O     O_R   0.229360 0.915970 0.086730 -0.540331
O17   O     O_3   0.395680 0.058580 0.000030 -0.356014
V3    V     V_3+5 0.670570 0.989070 0.999990 1.444934
O18   O     O_R   0.058820 0.094950 0.913870 -0.523216
C33   C     C_R   0.889948 0.117397 0.885583 0.714543
O19   O     O_R   0.058990 0.094970 0.086020 -0.509160
C34   C     C_R   0.889528 0.117399 0.114873 0.787796
V4    V     V_3+5 0.170560 0.010930 0.999930 1.499131
O20   O     O_3   0.895590 0.941310 0.999960 -0.380560
O21   O     O_3   0.579766 0.121134 0.237098 -0.639899
H7    H     H_    0.501010 0.136281 0.187732 0.308799
H8    H     H_    0.048019 0.705874 0.694217 0.114999
H9    H     H_    0.060580 0.671351 0.278030 0.141766
H10   H     H_    0.082888 0.783045 0.165581 0.168025
O22   O     O_3   0.710845 0.851009 0.236056 -0.648291
H11   H     H_    0.678489 0.915779 0.223054 0.310191
H12   H     H_    0.331897 0.158884 0.766250 0.123800
O23   O     O_3   0.261275 0.262729 0.852177 -0.642423
H13   H     H_    0.149655 0.303001 0.864680 0.295548
O24   O     O_3   0.335187 0.253138 0.634472 -0.646443
H14   H     H_    0.293345 0.288593 0.585134 0.312610
O25   O     O_3   0.251436 0.377418 0.719035 -0.642628
H15   H     H_    0.146747 0.399905 0.755674 0.264726
O26   O     O_3   0.175847 0.254557 0.137079 -0.639063
H16   H     H_    0.290630 0.279556 0.165598 0.291142
O27   O     O_3   0.134293 0.395857 0.260286 -0.646344
H17   H     H_    0.180796 0.410705 0.203719 0.288271
H18   H     H_    0.599581 0.245169 0.350184 0.174955

loop_
_geom_bond_atom_site_label_1
_geom_bond_atom_site_label_2
_ccdc_geom_bond_type
O11   V4    S    
C3    C15   S    
O23   H13   S    
C4    C6    S    
C7    H1    S    
C1    O6    A    
O27   H17   S    
C23   C24   A    
O15   C33   A    
O25   H15   S    
C15   C16   A    
C5    C12   S    
C21   C22   A    
C7    C8    A    
C20   H3    S    
C13   O26   S    
O5    C3    A    
C16   C17   A    
C1    C24   S    
V2    O10   S    
C5    C6    A    
C6    C7    A    
C16   H18   S    
O19   V4    S    
O8    V2    S    
O12   C31   A    
C9    C10   A    
O22   H11   S    
O1    V2    S    
O7    V1    S    
C11   O23   S    
C27   C31   S    
C14   O27   S    
O18   C33   A    
C26   H10   S    
O9    C4    A    
C25   H9    S    
O13   C34   A    
O17   V4    S    
O14   C32   A    
V3    O20   S    
C9    C33   S    
C29   C30   A    
C5    C10   A    
C28   O22   S    
C12   O25   S    
C10   C11   S    
C23   H5    S    
O4    C2    A    
C11   C12   S    
O11   C32   A    
V4    O20   S    
O12   V3    S    
O2    C1    A    
O24   H14   S    
C22   H4    S    
C17   C18   A    
O8    C3    A    
C12   O24   S    
O16   V4    S    
O13   V3    S    
C25   C30   A    
O3    C4    A    
O6    V2    S    
O9    V2    S    
C26   C27   A    
C25   C26   A    
O2    V1    S    
C27   C28   A    
C19   H8    S    
O15   V3    S    
C17   O21   S    
C29   H6    S    
C14   C15   A    
C13   C18   A    
O1    C2    A    
O5    V1    S    
O14   V3    S    
O18   V4    S    
C19   C24   A    
C2    C30   S    
C8    C9    A    
O7    V2    S    
C18   C34   S    
O4    V1    S    
C22   C23   A    
O3    V1    S    
V1    O10   S    
O17   V3    S    
C11   H12   S    
C19   C20   A    
C20   C21   A    
O19   C34   A    
O26   H16   S    
C28   C29   A    
O21   H7    S    
C13   C14   A    
C21   C32   S    
C8    H2    S    
C31   O16   A    
