data_mof_unit_56001.cif
_audit_creation_date              2012-12-11T16:26:24-0500
_audit_creation_method            fapswitch 2.2
_symmetry_space_group_name_H-M    P1
_symmetry_Int_Tables_number       1
_space_group_crystal_system       triclinic
_cell_length_a                    6.95468
_cell_length_b                    17.583668
_cell_length_c                    19.453458
_cell_angle_alpha                 108.306654
_cell_angle_beta                  89.994735
_cell_angle_gamma                 90.479637
_cell_volume                      2258.45201863

loop_
_atom_site_label
_atom_site_type_symbol
_atom_type_description
_atom_site_fract_x
_atom_site_fract_y
_atom_site_fract_z
_atom_type_partial_charge
O1    O     O_R   0.494330 0.415720 0.413720 -0.544359
O2    O     O_R   0.819330 0.430070 0.560210 -0.538361
O3    O     O_R   0.994320 0.584280 0.586280 -0.520828
C1    C     C_R   0.650242 0.411060 0.578430 0.737598
O4    O     O_R   0.823730 0.406300 0.412670 -0.544766
O5    O     O_R   0.998760 0.560340 0.437690 -0.537918
C2    C     C_R   0.654447 0.383242 0.385179 0.670568
O6    O     O_R   0.489890 0.439660 0.562310 -0.533730
O7    O     O_3   0.662340 0.550560 0.508380 -0.364906
V1    V     V_3+5 0.935370 0.490620 0.498450 1.479667
O8    O     O_R   0.328750 0.569930 0.439790 -0.546603
C3    C     C_R   0.161460 0.581016 0.414817 0.726134
O9    O     O_R   0.324340 0.593700 0.587330 -0.528513
C4    C     C_R   0.155843 0.617399 0.614912 0.766240
V2    V     V_3+5 0.435940 0.509380 0.501550 1.476052
O10   O     O_3   0.159100 0.449440 0.491620 -0.379536
H1    H     H_    0.806731 0.845748 0.579174 0.145297
C5    C     C_R   0.304558 0.606327 0.755681 -0.017681
C6    C     C_R   0.430688 0.607804 0.812220 -0.112469
C7    C     C_R   0.454810 0.677211 0.869910 -0.123459
C8    C     C_R   0.348204 0.744535 0.872997 -0.145537
C9    C     C_R   0.234530 0.747591 0.813368 0.063843
C10   C     C_R   0.228988 0.679246 0.750105 0.023413
C11   C     C_R   0.117631 0.814718 0.817287 -0.162371
C12   C     C_R   0.013597 0.816679 0.755065 0.068923
C13   C     C_R   0.050853 0.758014 0.687310 0.018066
C14   C     C_R   0.146626 0.685730 0.684810 -0.138412
C15   C     C_R   0.882875 0.878905 0.757035 -0.118541
C16   C     C_R   0.795352 0.883364 0.694208 -0.112938
C17   C     C_R   0.855385 0.833450 0.627498 -0.107340
C18   C     C_R   0.996868 0.775979 0.623764 -0.007954
H2    H     H_    0.495671 0.553315 0.815664 0.176562
H3    H     H_    0.543846 0.676806 0.915412 0.162895
H4    H     H_    0.356008 0.792800 0.923354 0.137849
H5    H     H_    0.846151 0.925495 0.806027 0.130060
H6    H     H_    0.693799 0.930589 0.696943 0.136090
C19   C     C_R   0.041697 0.601282 0.298933 -0.154231
C20   C     C_R   0.157880 0.626234 0.361505 -0.051411
C21   C     C_R   0.281400 0.692281 0.370775 -0.095672
C22   C     C_R   0.268521 0.740446 0.325752 0.131661
C23   C     C_R   0.146913 0.716989 0.264505 0.022828
C24   C     C_R   0.044695 0.643686 0.247739 0.015061
C25   C     C_R   0.378555 0.810969 0.340388 -0.162127
C26   C     C_R   0.366198 0.858929 0.295419 -0.183258
C27   C     C_R   0.246180 0.836454 0.234299 0.128611
C28   C     C_R   0.137994 0.764364 0.217817 0.029845
C29   C     C_R   0.024125 0.739179 0.154299 0.003670
C30   C     C_R   0.939401 0.661539 0.133545 0.153840
C31   C     C_R   0.962265 0.612024 0.178073 0.207061
C32   C     C_R   0.235421 0.884387 0.188907 -0.203921
C33   C     C_R   0.114544 0.862638 0.128120 -0.089274
C34   C     C_R   0.008899 0.790519 0.111238 -0.159062
H7    H     H_    0.954793 0.547557 0.289330 0.144639
H8    H     H_    0.384231 0.707856 0.414434 0.106321
H9    H     H_    0.473279 0.829390 0.387043 0.129554
H10   H     H_    0.451508 0.913493 0.308246 0.124358
H11   H     H_    0.319034 0.939440 0.201412 0.114777
H12   H     H_    0.920562 0.774298 0.063038 0.146024
C35   C     C_R   0.780935 0.176317 0.861618 -0.181906
C36   C     C_R   0.620902 0.128602 0.864294 -0.092992
C37   C     C_R   0.467502 0.122638 0.815489 -0.183962
C38   C     C_R   0.473838 0.162318 0.762518 0.015134
C39   C     C_R   0.632228 0.213842 0.763447 0.062677
C40   C     C_R   0.786042 0.220170 0.812789 0.123086
C41   C     C_R   0.326206 0.153722 0.709568 -0.024749
C42   C     C_R   0.332318 0.201746 0.663589 -0.245732
C43   C     C_R   0.485966 0.254529 0.665961 0.077377
C44   C     C_R   0.638134 0.259299 0.715075 0.087800
C45   C     C_R   0.796926 0.309850 0.715929 0.092603
C46   C     C_R   0.949186 0.314586 0.764390 -0.146034
C47   C     C_R   0.943631 0.270257 0.812494 -0.129994
C48   C     C_R   0.490762 0.302440 0.619694 -0.207316
C49   C     C_R   0.644997 0.355860 0.622994 -0.045023
C50   C     C_R   0.800230 0.355835 0.668971 -0.188884
H13   H     H_    0.899572 0.180977 0.898946 0.134291
H14   H     H_    0.343681 0.087026 0.819880 0.162742
H15   H     H_    0.218577 0.196524 0.624199 0.159879
H16   H     H_    0.373424 0.299285 0.582181 0.113756
H17   H     H_    0.923253 0.392757 0.668982 0.162613
H18   H     H_    0.072093 0.353187 0.765695 0.144721
H19   H     H_    0.062876 0.275191 0.849568 0.145738
H20   H     H_    0.821062 0.131539 0.429361 0.122356
C51   C     C_R   0.546732 0.406251 0.249254 -0.232159
C52   C     C_R   0.497503 0.420536 0.184943 0.223795
C53   C     C_R   0.487200 0.356699 0.120176 0.235799
C54   C     C_R   0.526127 0.279151 0.120528 -0.217731
C55   C     C_R   0.576646 0.263245 0.185039 0.039348
C56   C     C_R   0.587321 0.328224 0.250857 0.040914
C57   C     C_R   0.621090 0.184375 0.184239 -0.155461
C58   C     C_R   0.676567 0.170828 0.249635 0.067357
C59   C     C_R   0.687412 0.235946 0.315567 0.069358
C60   C     C_R   0.642930 0.314830 0.316320 -0.149624
C61   C     C_R   0.718683 0.092708 0.251064 -0.152398
C62   C     C_R   0.771010 0.079113 0.315321 -0.125682
C63   C     C_R   0.781375 0.142520 0.379520 -0.113713
C64   C     C_R   0.739629 0.220065 0.380001 -0.140186
H21   H     H_    0.556789 0.457552 0.297627 0.136021
H22   H     H_    0.519663 0.231798 0.069195 0.132522
H23   H     H_    0.710464 0.041187 0.202794 0.106661
H24   H     H_    0.802704 0.018930 0.315331 0.119502
H25   H     H_    0.747501 0.267127 0.431514 0.092097
O11   O     O_R   0.775200 0.060470 0.937800 -0.542414
O12   O     O_R   0.441110 0.093720 0.087350 -0.537761
O13   O     O_R   0.266330 0.939630 0.062280 -0.540668
C65   C     C_R   0.610164 0.116219 0.115271 0.696749
O14   O     O_R   0.445750 0.069950 0.939820 -0.541568
O15   O     O_R   0.271000 0.915700 0.913700 -0.541536
C66   C     C_R   0.614069 0.083602 0.917116 0.706057
O16   O     O_R   0.770530 0.084400 0.086380 -0.534408
O17   O     O_3   0.602830 0.949510 0.991680 -0.374377
V3    V     V_3+5 0.329710 0.009370 0.001550 1.435426
O18   O     O_R   0.940990 0.906170 0.912570 -0.546564
C67   C     C_R   0.109275 0.883484 0.885165 0.693319
O19   O     O_R   0.936350 0.929940 0.060100 -0.542619
C68   C     C_R   0.104905 0.914053 0.080841 0.701470
V4    V     V_3+5 0.829160 0.990450 0.998310 1.426789
O20   O     O_3   0.105910 0.050480 0.008320 -0.364615
I1    I     I_    0.786944 0.615689 0.033085 -0.309170
I2    I     I_    0.941191 0.484259 0.130876 -0.280299
C69   C     C_2   0.168222 0.093148 0.697284 0.744158
O21   O     O_2   0.195572 0.028170 0.705963 -0.569858
O22   O     O_R   0.990335 0.108681 0.671175 -0.669587
H26   H     H_    0.894774 0.063017 0.664383 0.293929
C70   C     C_2   0.215703 0.528219 0.717682 0.713594
O23   O     O_2   0.045337 0.524615 0.701690 -0.573441
O24   O     O_R   0.320004 0.458285 0.707378 -0.665021
H27   H     H_    0.239277 0.408760 0.684702 0.275470
I3    I     I_    0.456787 0.541154 0.189463 -0.355487
I4    I     I_    0.422594 0.372640 0.018950 -0.270540
C71   C     C_2   0.128379 0.757874 0.561470 0.702805
O25   O     O_2   0.069278 0.757459 0.502269 -0.579861
O26   O     O_R   0.324977 0.750534 0.573244 -0.659283
H28   H     H_    0.408012 0.748134 0.530131 0.282384

loop_
_geom_bond_atom_site_label_1
_geom_bond_atom_site_label_2
_ccdc_geom_bond_type
C52   I3    S    
C55   C56   A    
C61   C62   A    
C35   H13   S    
C23   C24   A    
C71   O26   S    
C63   C64   A    
C1    O6    A    
O19   C68   A    
C31   I2    S    
C53   C54   A    
C26   C27   A    
C12   C15   A    
C16   H6    S    
C13   C14   A    
C19   C20   A    
C51   C52   A    
C15   C16   A    
C5    C6    A    
C18   C71   S    
C45   C46   A    
O5    C3    A    
C17   C18   A    
C21   H8    S    
C13   C18   A    
V2    O10   S    
V4    O20   S    
O12   V3    S    
C43   C48   A    
C49   C50   A    
C40   C47   A    
C19   C24   A    
O17   V3    S    
O15   C67   A    
C48   H16   S    
O16   V4    S    
C53   I4    S    
C59   C64   A    
C28   C29   A    
O8    V2    S    
C22   C25   A    
C56   C60   A    
C15   H5    S    
O26   H28   S    
C23   C28   A    
O11   C66   A    
C46   C47   A    
O1    V2    S    
C10   C14   A    
C4    C14   S    
O7    V1    S    
C61   H23   S    
C36   C66   S    
C19   H7    S    
C42   C43   A    
C35   C36   A    
C8    C9    A    
H1    C17   S    
C62   C63   A    
C6    H2    S    
O4    V1    S    
O18   C67   A    
C69   O22   S    
O14   V3    S    
C37   H14   S    
C46   H18   S    
C43   C44   A    
C64   H25   S    
C52   C53   A    
C21   C22   A    
O4    C2    A    
C54   C55   A    
C44   C45   A    
C30   I1    S    
C8    H4    S    
C12   C13   A    
C27   C28   A    
C33   C68   S    
C5    C10   A    
C36   C37   A    
O2    C1    A    
C25   C26   A    
C16   C17   A    
O13   C68   A    
C26   H10   S    
C29   C30   A    
C62   H24   S    
C38   C39   A    
C32   C33   A    
C35   C40   A    
C45   C50   A    
O12   C65   A    
C11   C12   A    
C1    C49   S    
O3    C4    A    
C34   H12   S    
C7    H3    S    
C25   H9    S    
C30   C31   A    
O6    V2    S    
C50   H17   S    
O9    V2    S    
C9    C11   A    
O2    V1    S    
O17   V4    S    
O18   V4    S    
C69   O21   D    
C58   C61   A    
C70   O24   S    
C42   H15   S    
C65   O16   A    
C39   C44   A    
C22   C23   A    
H20   C63   S    
C38   C41   A    
O1    C2    A    
C32   H11   S    
O15   V3    S    
C48   C49   A    
O5    V1    S    
O13   V3    S    
O19   V4    S    
O8    C3    A    
C29   C34   A    
V3    O20   S    
C6    C7    A    
C55   C57   A    
C71   O25   D    
O22   H26   S    
C33   C34   A    
O3    V1    S    
V1    O10   S    
C58   C59   A    
C20   C21   A    
O14   C66   A    
C27   C32   A    
O24   H27   S    
C2    C60   S    
C41   C69   S    
C51   C56   A    
C3    C20   S    
C37   C38   A    
C54   H22   S    
O11   V4    S    
C24   C31   A    
C39   C40   A    
C11   C67   S    
C7    C8    A    
C41   C42   A    
C51   H21   S    
C57   C65   S    
C9    C10   A    
C57   C58   A    
O9    C4    A    
C59   C60   A    
O7    V2    S    
C5    C70   S    
C70   O23   D    
C47   H19   S    
