data_mof_unit_7692.cif
_audit_creation_date              2012-12-11T15:59:26-0500
_audit_creation_method            fapswitch 2.2
_symmetry_space_group_name_H-M    P1
_symmetry_Int_Tables_number       1
_space_group_crystal_system       triclinic
_cell_length_a                    10.909994
_cell_length_b                    10.691431
_cell_length_c                    16.961171
_cell_angle_alpha                 99.356907
_cell_angle_beta                  99.416613
_cell_angle_gamma                 60.318279
_cell_volume                      1687.96380708

loop_
_atom_site_label
_atom_site_type_symbol
_atom_type_description
_atom_site_fract_x
_atom_site_fract_y
_atom_site_fract_z
_atom_type_partial_charge
C1    C     C_R   0.358430 0.765107 0.396195 0.524877
C2    C     C_R   0.927946 0.162298 0.214254 -0.004945
C3    C     C_R   0.902213 0.179154 0.295618 -0.022798
C4    C     C_R   0.949051 0.377926 0.324965 0.255325
C5    C     C_R   0.969694 0.371353 0.244671 -0.135517
C6    C     C_R   0.939894 0.032766 0.168317 -0.053960
C7    C     C_R   0.948059 0.918313 0.204324 0.009877
C8    C     C_R   0.940438 0.933807 0.286728 -0.120739
C9    C     C_R   0.913859 0.063311 0.331366 -0.102489
C10   C     C_R   0.879055 0.307922 0.342172 -0.004600
C11   C     C_R   0.360985 0.797532 0.151202 -0.002573
C12   C     C_R   0.373613 0.348843 0.356459 0.548756
C13   C     C_R   0.463058 0.814397 0.206415 0.051166
C14   C     C_R   0.443761 0.834789 0.288905 0.002922
C15   C     C_R   0.291085 0.724755 0.253919 -0.136873
C16   C     C_R   0.292240 0.731716 0.173215 -0.162256
C17   C     C_R   0.575899 0.822829 0.181826 0.054772
C18   C     C_R   0.634210 0.898359 0.235130 -0.116256
C19   C     C_R   0.605076 0.934633 0.315169 -0.114177
C20   C     C_R   0.513734 0.899218 0.342916 -0.095913
C21   C     C_R   0.355143 0.788702 0.313036 0.005612
C22   C     C_R   0.302204 0.280810 0.800095 -0.008115
C23   C     C_R   0.781515 0.372471 0.405475 0.538836
C24   C     C_R   0.427028 0.178869 0.763068 0.028528
C25   C     C_R   0.481012 0.228245 0.713745 0.031990
C26   C     C_R   0.257535 0.454885 0.710283 -0.160703
C27   C     C_R   0.217800 0.418008 0.772621 -0.155669
C28   C     C_R   0.503754 0.030877 0.777087 -0.089688
C29   C     C_R   0.640402 0.942056 0.754519 -0.111674
C30   C     C_R   0.703339 0.999392 0.717689 -0.116107
C31   C     C_R   0.624571 0.141182 0.697462 -0.085684
C32   C     C_R   0.386980 0.358991 0.678744 -0.010290
C33   C     C_1   0.818744 0.340770 0.708674 -0.061139
C34   C     C_R   0.358175 0.768553 0.627150 0.537704
C35   C     C_1   0.845159 0.314081 0.776896 -0.050599
C36   C     C_1   0.338908 0.808919 0.709391 -0.056546
C37   C     C_1   0.312861 0.836754 0.777690 -0.061737
C38   C     C_R   0.961561 0.278913 0.100602 0.565762
C39   C     C_R   0.319261 0.301612 0.119268 0.556831
C40   C     C_R   0.297163 0.886276 0.083343 0.537873
C41   C     C_R   0.885606 0.298245 0.859328 0.556229
C42   C     C_R   0.280567 0.253979 0.877005 0.550243
C43   C     C_R   0.278663 0.884816 0.857617 0.534111
C44   C     C_R   0.409563 0.377734 0.600012 0.542526
C45   C     C_R   0.774370 0.379352 0.629325 0.521845
C46   C     C_1   0.346416 0.339161 0.273235 -0.037878
C47   C     C_1   0.332997 0.329783 0.202329 -0.053339
C48   C     C_R   0.944249 0.274508 0.185817 -0.054675
Cr1   Cr    Cr6+3 0.608100 0.610860 0.522250 1.020167
Cr2   Cr    Cr6+3 0.288890 0.599990 0.488420 1.016316
Cr3   Cr    Cr6+3 0.603040 0.289190 0.489390 0.973841
Cr4   Cr    Cr6+3 0.053960 0.052250 0.967380 0.992879
Cr5   Cr    Cr6+3 0.059890 0.373160 0.992710 0.973869
Cr6   Cr    Cr6+3 0.373370 0.061690 0.991710 0.986607
H1    H     H_    0.701649 0.930114 0.214553 0.131167
H2    H     H_    0.656729 0.986771 0.356200 0.146513
H3    H     H_    0.494429 0.927972 0.405522 0.131221
H4    H     H_    0.186099 0.557327 0.685952 0.144794
H5    H     H_    0.459864 0.983498 0.806615 0.151631
H6    H     H_    0.121389 0.496672 0.799235 0.145064
H7    H     H_    0.698556 0.830174 0.767696 0.122054
H8    H     H_    0.811626 0.933150 0.702782 0.117699
H9    H     H_    0.676232 0.180875 0.667986 0.155862
H10   H     H_    0.945528 0.013826 0.105409 0.187018
H11   H     H_    0.011418 0.436330 0.228938 0.135559
H12   H     H_    0.951299 0.845908 0.316417 0.123357
H13   H     H_    0.911732 0.068420 0.395382 0.131088
H14   H     H_    0.238801 0.670621 0.270319 0.144020
H15   H     H_    0.236189 0.692160 0.127006 0.135533
O1    O     O_R   0.749810 0.499790 0.438040 -0.477461
O2    O     O_R   0.298970 0.468800 0.557390 -0.511082
O3    O     O_R   0.489400 0.255930 0.561910 -0.539304
O4    O     O_R   0.723890 0.306050 0.584610 -0.538383
O5    O     O_3   0.500010 0.500010 0.500020 -0.266795
O6    O     O_R   0.171100 0.914680 0.053100 -0.548447
O7    O     O_R   0.941680 0.184840 0.050710 -0.512665
O8    O     O_R   0.922080 0.403420 0.072610 -0.539218
O9    O     O_R   0.196880 0.369150 0.083850 -0.520270
O10   O     O_R   0.411730 0.181020 0.091530 -0.499303
O11   O     O_R   0.365010 0.944360 0.063320 -0.497265
O12   O     O_R   0.477660 0.726260 0.439290 -0.498425
O13   O     O_R   0.159380 0.906670 0.876210 -0.502568
O14   O     O_R   0.930820 0.177420 0.886730 -0.483127
O15   O     O_R   0.910360 0.395420 0.895720 -0.529998
O16   O     O_R   0.186010 0.361730 0.919870 -0.498266
O17   O     O_R   0.400000 0.173010 0.914630 -0.509648
O18   O     O_R   0.354140 0.936940 0.899340 -0.539624
O19   O     O_3   0.162410 0.162370 0.983930 -0.277820
O20   O     O_R   0.260150 0.743000 0.412270 -0.521915
O21   O     O_R   0.297740 0.466550 0.394720 -0.486809
O22   O     O_R   0.488080 0.253500 0.386430 -0.528706
O23   O     O_R   0.722670 0.303800 0.421940 -0.517838
O24   O     O_R   0.751130 0.502220 0.613520 -0.515077
O25   O     O_R   0.478890 0.728510 0.601960 -0.493457
O26   O     O_R   0.261470 0.745430 0.587750 -0.521923
O27   O     O_3   0.014642 0.432796 0.387128 -0.550534
C49   C     C_3   0.116502 0.318415 0.434538 0.021459
H16   H     H_    0.218882 0.316883 0.440332 0.194378
H17   H     H_    0.140106 0.207344 0.406955 0.095217
C50   C     C_3   0.076446 0.340498 0.520326 -0.249128
H18   H     H_    0.078127 0.438619 0.552700 0.190236
H19   H     H_    0.969133 0.355867 0.520142 0.189662
C51   C     C_3   0.176988 0.208944 0.566208 -0.476307
H20   H     H_    0.165049 0.113534 0.538414 0.146312
H21   H     H_    0.151273 0.231452 0.629395 0.151609
H22   H     H_    0.288711 0.182634 0.565705 0.185184
C52   C     C_3   0.965272 0.776764 0.158356 -0.282284
C53   C     C_3   0.928836 0.778821 0.067353 -0.442206
H23   H     H_    0.822294 0.870865 0.052839 0.131565
H24   H     H_    0.009122 0.786838 0.039103 0.163663
H25   H     H_    0.929137 0.676449 0.041315 0.157177
H26   H     H_    0.071072 0.685745 0.171725 0.140442
H27   H     H_    0.900472 0.744180 0.183703 0.125706
C54   C     C_3   0.645067 0.744681 0.103850 -0.256611
C55   C     C_3   0.609026 0.629366 0.056907 -0.394215
H28   H     H_    0.685898 0.565481 0.011768 0.180126
H29   H     H_    0.615049 0.554793 0.097814 0.162801
H30   H     H_    0.505383 0.675720 0.020814 0.147035
H31   H     H_    0.629178 0.824264 0.063323 0.158481
H32   H     H_    0.759177 0.681062 0.120696 0.150517

loop_
_geom_bond_atom_site_label_1
_geom_bond_atom_site_label_2
_ccdc_geom_bond_type
C19   H2    S    
C25   C31   A    
C1    C21   S    
C33   C45   S    
C52   H26   S    
C12   O22   A    
C19   C20   A    
Cr3   O5    S    
Cr4   O6    S    
C45   O24   A    
C49   H16   S    
C7    C8    A    
C38   O7    A    
C8    H12   S    
C26   C27   A    
Cr5   O15   S    
C14   C21   A    
C12   O21   A    
C36   C37   T    
C27   H6    S    
Cr2   O5    S    
C30   C31   A    
Cr2   O26   S    
C6    H10   S    
C15   C16   A    
C41   O14   A    
C53   H23   S    
C44   O2    A    
C45   O4    A    
C18   C19   A    
C22   C24   A    
Cr1   O12   S    
C52   H27   S    
Cr3   O22   S    
C4    O27   S    
Cr2   O21   S    
C8    C9    A    
C55   H29   S    
C22   C42   S    
C52   C53   S    
C40   O11   A    
C42   O17   A    
Cr1   O25   S    
Cr5   O19   S    
C24   C28   A    
C38   C48   S    
C54   H31   S    
C25   C32   A    
C13   C14   A    
C23   O1    A    
C2    C6    A    
C49   H17   S    
C17   C54   S    
C54   C55   S    
Cr6   O11   S    
C5    C48   A    
C29   H7    S    
C39   O9    A    
C14   C20   A    
Cr4   O19   S    
C24   C25   A    
C5    H11   S    
Cr6   O17   S    
C26   C32   A    
C2    C48   A    
C41   O15   A    
C50   C51   S    
C39   O10   A    
C37   C43   S    
Cr4   O14   S    
Cr5   O8    S    
Cr2   O2    S    
C9    H13   S    
C29   C30   A    
C3    C9    A    
C31   H9    S    
Cr3   O23   S    
Cr3   O4    S    
C11   C16   A    
Cr2   O20   S    
C55   H30   S    
O27   C49   S    
C50   H19   S    
C17   C18   A    
C32   C44   S    
C51   H21   S    
C42   O16   A    
C34   O26   A    
Cr4   O13   S    
C26   H4    S    
C18   H1    S    
C12   C46   S    
Cr1   O1    S    
C30   H8    S    
C7    C52   S    
Cr3   O3    S    
C4    C10   A    
C49   C50   S    
C39   C47   S    
Cr6   O10   S    
C28   H5    S    
C46   C47   T    
C28   C29   A    
C1    O20   A    
Cr1   O5    S    
C16   H15   S    
C34   O25   A    
C4    C5    A    
Cr4   O7    S    
C53   H25   S    
C6    C7    A    
C38   O8    A    
C10   C23   S    
C40   O6    A    
C13   C17   A    
C22   C27   A    
C43   O18   A    
C2    C3    A    
C3    C10   A    
Cr6   O19   S    
C11   C13   A    
Cr6   O18   S    
C15   H14   S    
C50   H18   S    
C33   C35   T    
C53   H24   S    
C44   O3    A    
C51   H22   S    
C34   C36   S    
C11   C40   S    
C35   C41   S    
Cr5   O9    S    
C15   C21   A    
C51   H20   S    
C43   O13   A    
C23   O23   A    
Cr5   O16   S    
Cr1   O24   S    
C20   H3    S    
C1    O12   A    
C54   H32   S    
C55   H28   S    
