data_mof_unit_27103.cif
_audit_creation_date              2012-12-11T14:35:56-0500
_audit_creation_method            fapswitch 2.2
_symmetry_space_group_name_H-M    P1
_symmetry_Int_Tables_number       1
_space_group_crystal_system       triclinic
_cell_length_a                    13.489539
_cell_length_b                    13.516215
_cell_length_c                    27.516033
_cell_angle_alpha                 90.570086
_cell_angle_beta                  89.791525
_cell_angle_gamma                 60.020086
_cell_volume                      4345.23791584

loop_
_atom_site_label
_atom_site_type_symbol
_atom_type_description
_atom_site_fract_x
_atom_site_fract_y
_atom_site_fract_z
_atom_type_partial_charge
C1    C     C_R   0.619856 0.100983 0.570260 0.547499
C2    C     C_1   0.644153 0.706745 0.658812 0.079906
C3    C     C_3   0.082673 0.176788 0.740281 -0.035138
C4    C     C_R   0.599320 0.779563 0.568786 0.542621
C5    C     C_3   0.149800 0.076650 0.775500 0.214217
C6    C     C_1   0.106081 0.195974 0.903784 0.077198
C7    C     C_1   0.236894 0.134610 0.619117 0.039203
C8    C     C_3   0.102841 0.255152 0.775224 0.204126
C9    C     C_3   0.167873 0.155665 0.810321 0.040925
C10   C     C_3   0.215859 0.225487 0.748986 -0.084155
C11   C     C_3   0.196731 0.145459 0.714697 -0.088661
C12   C     C_1   0.628837 0.732768 0.616592 0.062432
C13   C     C_3   0.280074 0.124974 0.784089 0.364559
C14   C     C_3   0.263959 0.043846 0.749080 -0.068397
C15   C     C_1   0.140594 0.172122 0.862463 0.102703
C16   C     C_R   0.279052 0.121219 0.570133 0.547023
C17   C     C_1   0.214463 0.140735 0.661899 0.009161
C18   C     C_3   0.670254 0.257962 0.736346 0.256243
C19   C     C_3   0.573394 0.287420 0.774061 -0.134020
C20   C     C_1   0.693071 0.211173 0.902348 0.067226
C21   C     C_1   0.633980 0.131885 0.618534 0.064905
C22   C     C_3   0.757809 0.167073 0.770332 0.464283
C23   C     C_3   0.701502 0.571515 0.770977 0.438783
C24   C     C_3   0.662197 0.194438 0.807612 -0.060598
C25   C     C_3   0.736142 0.076539 0.746873 0.442378
C26   C     C_3   0.648625 0.167211 0.713021 -0.029292
C27   C     C_3   0.640552 0.102833 0.784488 -0.067789
C28   C     C_R   0.621668 0.097429 0.430422 0.564879
C29   C     C_3   0.551596 0.195194 0.750136 -0.161567
C30   C     C_1   0.675611 0.203541 0.859962 0.060580
C31   C     C_1   0.641742 0.150303 0.660812 0.080508
C32   C     C_R   0.740345 0.693915 0.360981 -0.093072
C33   C     C_R   0.753801 0.671372 0.310959 0.028949
C34   C     C_3   0.669383 0.669911 0.807523 -0.049731
C35   C     C_R   0.768125 0.649732 0.209220 0.002248
C36   C     C_R   0.859590 0.643602 0.235743 -0.121955
C37   C     C_R   0.851929 0.655643 0.286318 -0.123084
C38   C     C_R   0.776315 0.633121 0.158860 -0.165724
C39   C     C_R   0.685288 0.635445 0.133207 0.011650
C40   C     C_R   0.602865 0.774344 0.430807 0.543940
C41   C     C_R   0.560841 0.692951 0.359270 -0.088157
C42   C     C_R   0.567843 0.679713 0.309076 0.007839
C43   C     C_R   0.663887 0.671647 0.284631 0.028072
C44   C     C_R   0.477630 0.682035 0.282506 0.197239
C45   C     C_3   0.590637 0.645965 0.743131 0.405989
C46   C     C_R   0.480098 0.683940 0.232086 -0.048939
C47   C     C_R   0.575189 0.675388 0.207553 -0.015345
C48   C     C_R   0.669090 0.665719 0.233793 -0.010156
C49   C     C_R   0.580805 0.668601 0.157147 0.412120
C50   C     C_R   0.640052 0.712111 0.384428 -0.024273
C51   C     C_R   0.194448 0.066696 0.361541 0.356326
C52   C     C_R   0.275929 0.121891 0.431614 0.586293
C53   C     C_R   0.163734 0.081621 0.312235 -0.029353
C54   C     C_R   0.128641 0.101447 0.210596 -0.050137
C55   C     C_R   0.131860 0.008922 0.235981 0.279962
C56   C     C_3   0.655099 0.688718 0.711466 -0.046572
C57   C     C_R   0.148641 0.000288 0.286271 0.455069
C58   C     C_R   0.111095 0.115048 0.160011 0.355389
C59   C     C_R   0.100722 0.212491 0.136959 0.010022
C60   C     C_R   0.179610 0.253603 0.363675 0.318850
C61   C     C_R   0.158323 0.265189 0.314144 0.030966
C62   C     C_R   0.153088 0.177754 0.287870 -0.111791
C63   C     C_R   0.148751 0.360309 0.290114 -0.090870
C64   C     C_3   0.767377 0.613684 0.739028 -0.099458
C65   C     C_R   0.138947 0.366896 0.240064 -0.091193
C66   C     C_R   0.133945 0.280738 0.213360 0.034329
C67   C     C_3   0.556808 0.745207 0.779919 -0.157419
C68   C     C_R   0.138261 0.186528 0.237224 -0.097838
C69   C     C_R   0.119925 0.290654 0.163381 0.317423
C70   C     C_R   0.210013 0.149378 0.386334 -0.003993
C71   C     C_R   0.574007 0.233269 0.362432 -0.174333
C72   C     C_R   0.577336 0.252081 0.312741 -0.003909
C73   C     C_R   0.585546 0.287861 0.212814 0.017322
C74   C     C_R   0.518048 0.380051 0.244393 -0.066937
C75   C     C_R   0.513013 0.361970 0.293926 -0.114967
C76   C     C_3   0.733784 0.713225 0.775881 0.244732
C77   C     C_R   0.599375 0.306154 0.164065 0.329043
C78   C     C_3   0.622403 0.787824 0.747823 0.213073
C79   C     C_R   0.671256 0.213032 0.133438 0.019662
C80   C     C_R   0.711493 0.031325 0.349384 0.379170
C81   C     C_R   0.711229 0.048282 0.299721 0.037249
C82   C     C_R   0.644612 0.158830 0.281167 0.011755
C83   C     C_R   0.774735 0.955443 0.268241 -0.078362
C84   C     C_R   0.772308 0.971347 0.218514 -0.070999
C85   C     C_R   0.710187 0.081597 0.199350 0.015195
C86   C     C_R   0.646244 0.176056 0.231022 -0.029975
C87   C     C_R   0.715813 0.100272 0.149740 0.191960
C88   C     C_1   0.694102 0.614883 0.901377 0.073456
C89   C     C_1   0.681651 0.646037 0.859781 0.085913
C90   C     C_R   0.640058 0.123051 0.380831 0.008571
C91   C     C_R   0.050746 0.235438 0.950238 0.550937
C92   C     C_R   0.711219 0.563978 0.948432 0.550504
C93   C     C_R   0.722686 0.226054 0.950723 0.550905
C94   C     C_R   0.047401 0.245530 0.088817 0.584207
C95   C     C_R   0.707410 0.575445 0.086366 0.569860
C96   C     C_R   0.716882 0.233774 0.088720 0.590112
Cl1   Cl    Cl    0.827325 0.760110 0.798208 -0.381146
Cl2   Cl    Cl    0.999078 0.396036 0.793902 -0.490991
Cl3   Cl    Cl    0.693221 0.354231 0.700913 -0.424226
Cl4   Cl    Cl    0.358994 0.683878 0.310512 -0.492001
Cl5   Cl    Cl    0.114030 0.901101 0.207509 -0.357447
Cl6   Cl    Cl    0.568231 0.931141 0.729080 -0.558094
Cl7   Cl    Cl    0.779568 0.983100 0.108076 -0.514631
Cl8   Cl    Cl    0.111471 0.973909 0.793445 -0.387852
Cr1   Cr    Cr6+3 0.417550 0.169090 0.500530 1.098945
Cr2   Cr    Cr6+3 0.669180 0.913420 0.499920 1.116668
Cr3   Cr    Cr6+3 0.413260 0.917540 0.499520 1.129001
Cr4   Cr    Cr6+3 0.909170 0.177380 0.020380 1.177159
Cr5   Cr    Cr6+3 0.912710 0.429210 0.018220 1.123363
Cr6   Cr    Cr6+3 0.657170 0.432570 0.019030 1.159649
F1    F     F_    0.380918 0.098415 0.807299 -0.599417
F2    F     F_    0.550539 0.415137 0.147752 -0.586639
F3    F     F_    0.775701 0.923211 0.366277 -0.622778
F4    F     F_    0.517445 0.610099 0.725966 -0.539563
F5    F     F_    0.741255 0.459903 0.784688 -0.520147
F6    F     F_    0.820636 0.968587 0.732357 -0.500395
F7    F     F_    0.863250 0.154325 0.781347 -0.532011
F8    F     F_    0.488094 0.682483 0.131963 -0.553353
F9    F     F_    0.100184 0.036558 0.132968 -0.530576
F10   F     F_    0.216709 0.969047 0.384355 -0.524487
F11   F     F_    0.147294 0.913218 0.309860 -0.474666
F12   F     F_    0.117750 0.381265 0.141164 -0.606524
F13   F     F_    0.180315 0.340714 0.388658 -0.607788
H1    H     H_    0.242563 0.287524 0.737887 0.158260
H2    H     H_    0.408977 0.688051 0.212179 0.242838
H3    H     H_    0.486254 0.702034 0.378182 0.222346
H4    H     H_    0.134122 0.440477 0.222442 0.187975
H5    H     H_    0.152646 0.428230 0.309681 0.191416
H6    H     H_    0.518566 0.303498 0.386577 0.156148
H7    H     H_    0.469891 0.466381 0.230983 0.203180
H8    H     H_    0.460343 0.434011 0.317668 0.179343
H9    H     H_    0.471006 0.799650 0.796687 0.179502
H10   H     H_    0.823380 0.896979 0.195740 0.197918
H11   H     H_    0.826739 0.870034 0.281946 0.188640
H12   H     H_    0.506725 0.374660 0.785678 0.202980
H13   H     H_    0.000952 0.199054 0.722074 0.229069
H14   H     H_    0.330199 0.956178 0.737794 0.185209
H15   H     H_    0.466477 0.206443 0.741092 0.202333
H16   H     H_    0.629231 0.039179 0.805294 0.240407
H17   H     H_    0.856280 0.609980 0.140373 0.186904
H18   H     H_    0.852510 0.559790 0.721658 0.199885
H19   H     H_    0.803565 0.704959 0.380773 0.187818
H20   H     H_    0.936386 0.630709 0.217349 0.149681
H21   H     H_    0.922107 0.653880 0.306092 0.152142
O1    O     O_R   0.301710 0.195650 0.554160 -0.496619
O2    O     O_R   0.635520 0.542770 0.964420 -0.495418
O3    O     O_R   0.665950 0.325030 0.970100 -0.502190
O4    O     O_R   0.522390 0.158990 0.550460 -0.499400
O5    O     O_R   0.816620 0.158530 0.074540 -0.435069
O6    O     O_R   0.004460 0.188870 0.069750 -0.442510
O7    O     O_R   0.025800 0.341780 0.072300 -0.439721
O8    O     O_R   0.807650 0.528950 0.067500 -0.516769
O9    O     O_R   0.633420 0.550490 0.071810 -0.392680
O10   O     O_R   0.664000 0.332180 0.069640 -0.439543
O11   O     O_3   0.826350 0.346390 0.019210 -0.317231
O12   O     O_R   0.658900 0.818120 0.449760 -0.480113
O13   O     O_R   0.694390 0.003530 0.554040 -0.484266
O14   O     O_R   0.657700 0.819660 0.549320 -0.493241
O15   O     O_R   0.501930 0.803280 0.552920 -0.490799
O16   O     O_R   0.318170 0.023580 0.549580 -0.488891
O17   O     O_R   0.303010 0.193990 0.446760 -0.437749
O18   O     O_R   0.523600 0.157450 0.450900 -0.510675
O19   O     O_R   0.695690 0.001860 0.446640 -0.420952
O20   O     O_R   0.503220 0.801620 0.445520 -0.490683
O21   O     O_R   0.319370 0.022040 0.450020 -0.442061
O22   O     O_3   0.499990 0.000010 0.499990 -0.294656
O23   O     O_R   0.818720 0.150820 0.967160 -0.471577
O24   O     O_R   0.006410 0.181720 0.970200 -0.486994
O25   O     O_R   0.027890 0.334070 0.964920 -0.482569
O26   O     O_R   0.809600 0.521790 0.967960 -0.481171

loop_
_geom_bond_atom_site_label_1
_geom_bond_atom_site_label_2
_ccdc_geom_bond_type
C22   F7    S    
C66   C68   A    
C20   C93   S    
C63   C65   A    
C1    C21   S    
C23   C45   S    
C37   H21   S    
C27   C29   S    
C41   C42   A    
C46   H2    S    
C35   C36   A    
C18   C26   S    
C24   C27   S    
C9    C15   S    
C2    C12   T    
Cr3   O21   S    
Cr3   O16   S    
C28   O18   A    
C47   C49   A    
C20   C30   T    
C85   C86   A    
C29   H15   S    
C21   C31   T    
C83   C84   A    
Cr2   O22   S    
C22   C24   S    
C36   C37   A    
Cr5   O7    S    
C36   H20   S    
C76   C78   S    
C18   C19   S    
C10   H1    S    
C38   C39   A    
C11   C14   S    
C66   C69   A    
C54   C68   A    
C64   H18   S    
C19   H12   S    
C6    C91   S    
C56   C78   S    
Cr1   O22   S    
C3    H13   S    
C73   C74   A    
C61   C63   A    
C8    Cl2   S    
C83   H11   S    
C9    C13   S    
Cr6   O11   S    
C6    C15   T    
C54   C55   A    
C45   F4    S    
C4    O14   A    
C67   H9    S    
C45   C56   S    
C75   H8    S    
C8    C9    S    
C7    C17   T    
C22   C25   S    
C45   C67   S    
C56   C64   S    
C51   C70   A    
C4    C12   S    
C43   C48   A    
C32   H19   S    
C63   H5    S    
C52   O17   A    
C88   C89   T    
C85   C87   A    
Cr4   O24   S    
C5    Cl8   S    
C26   C31   S    
C13   C14   S    
C67   C78   S    
C42   C44   A    
C72   C75   A    
C35   C48   A    
C79   C87   A    
C81   C83   A    
Cr5   O25   S    
C81   C82   A    
C24   C30   S    
Cr3   O20   S    
C77   C79   A    
C96   O10   A    
C84   H10   S    
C74   C75   A    
C91   O25   A    
C92   O2    A    
C33   C43   A    
C88   C92   S    
C91   O24   A    
Cr5   O8    S    
C3    C11   S    
C84   C85   A    
C3    C8    S    
C25   F6    S    
C92   O26   A    
C53   C57   A    
C44   C46   A    
C76   Cl1   S    
Cr2   O14   S    
Cr1   O4    S    
C57   F11   S    
C33   C37   A    
C60   C61   A    
C95   O9    A    
C77   F2    S    
C5    C9    S    
Cr6   O10   S    
C52   O21   A    
C71   H6    S    
C53   C62   A    
C40   O12   A    
C47   C48   A    
C14   H14   S    
C60   C70   A    
C23   C34   S    
Cr1   O1    S    
C35   C38   A    
C51   F10   S    
C64   C76   S    
C25   C26   S    
Cr2   O19   S    
C80   F3    S    
C32   C50   A    
C5    C14   S    
C59   C69   A    
C87   Cl7   S    
C23   C64   S    
C59   C94   S    
Cr4   O23   S    
Cr2   O12   S    
C55   C57   A    
Cr1   O17   S    
C94   O7    A    
C94   O6    A    
C42   C43   A    
Cr6   O3    S    
C19   C29   S    
C65   H4    S    
C41   C50   A    
Cr5   O26   S    
C54   C58   A    
C46   C47   A    
C11   C17   S    
C38   H17   S    
C39   C49   A    
C18   C22   S    
C41   H3    S    
C7    C16   S    
C80   C81   A    
C3    C5    S    
C10   C13   S    
C34   C67   S    
Cr3   O15   S    
C40   O20   A    
C95   O8    A    
C25   C27   S    
Cr2   O13   S    
C55   Cl5   S    
C62   C68   A    
C32   C33   A    
C74   H7    S    
C19   C24   S    
C58   C59   A    
C34   C89   S    
C71   C72   A    
C13   F1    S    
Cr6   O9    S    
C2    C56   S    
C82   C86   A    
C44   Cl4   S    
Cr4   O11   S    
C69   F12   S    
C40   C50   S    
C96   O5    A    
C1    O13   A    
C58   F9    S    
C71   C90   A    
C93   O3    A    
C39   C95   S    
C80   C90   A    
C61   C62   A    
Cr5   O11   S    
C27   H16   S    
C73   C86   A    
Cr3   O22   S    
C52   C70   S    
C10   C11   S    
Cr4   O6    S    
C23   F5    S    
Cr4   O5    S    
C4    O15   A    
C49   F8    S    
C79   C96   S    
C60   F13   S    
C16   O16   A    
C93   O23   A    
C26   C29   S    
C8    C10   S    
C65   C66   A    
C18   Cl3   S    
C73   C77   A    
Cr1   O18   S    
C16   O1    A    
C1    O4    A    
C28   C90   S    
C78   Cl6   S    
C51   C53   A    
Cr6   O2    S    
C72   C82   A    
C28   O19   A    
C34   C76   S    
