data_mof_unit_23424.cif
_audit_creation_date              2012-12-10T16:50:02-0500
_audit_creation_method            fapswitch 2.2
_symmetry_space_group_name_H-M    P1
_symmetry_Int_Tables_number       1
_space_group_crystal_system       triclinic
_cell_length_a                    7.783296
_cell_length_b                    8.560803
_cell_length_c                    10.611127
_cell_angle_alpha                 90.737585
_cell_angle_beta                  85.803524
_cell_angle_gamma                 93.697863
_cell_volume                      703.64554049

loop_
_atom_site_label
_atom_site_type_symbol
_atom_type_description
_atom_site_fract_x
_atom_site_fract_y
_atom_site_fract_z
_atom_type_partial_charge
C1    C     C_R   0.545834 0.794691 0.497484 0.930875
C2    C     C_R   0.454335 0.205354 0.504909 0.992059
C3    C     C_R   0.498813 0.504637 0.260651 0.875142
C4    C     C_R   0.405396 0.783776 0.875012 -0.175054
C5    C     C_R   0.348758 0.912856 0.943539 -0.255897
C6    C     C_R   0.337250 0.911677 0.075465 0.070250
C7    C     C_R   0.386566 0.780022 0.138332 -0.165002
C8    C     C_R   0.443371 0.647657 0.069598 0.040211
C9    C     C_2   0.273452 0.049162 0.145707 0.354375
C10   C     C_R   0.451220 0.649254 0.937359 0.103508
C11   C     C_R   0.508859 0.516337 0.871126 -0.076177
C12   C     C_R   0.565772 0.388267 0.931252 -0.228105
C13   C     C_R   0.560516 0.387300 0.060100 -0.208039
C14   C     C_R   0.497203 0.513829 0.128336 -0.081704
C15   C     C_2   0.570024 0.958292 0.496878 -0.390553
C16   C     C_2   0.430635 0.041820 0.510401 -0.313003
C17   C     C_R   0.502745 0.504197 0.739215 0.844804
H1    H     H_    0.610002 0.287414 0.878309 0.152887
H2    H     H_    0.243778 0.152136 0.094812 0.073668
H3    H     H_    0.986601 0.617763 0.594410 0.195191
H4    H     H_    0.414753 0.791417 0.773098 0.149468
H5    H     H_    0.313812 0.014100 0.893162 0.135141
H6    H     H_    0.381634 0.782760 0.240382 0.183665
H7    H     H_    0.603121 0.286405 0.107133 0.158173
H8    H     H_    0.701647 0.009413 0.483766 0.190509
H9    H     H_    0.299076 0.990640 0.523970 0.196424
H10   H     H_    0.013425 0.382263 0.405573 0.210309
N1    N     N_2   0.950330 0.457950 0.466250 -0.168702
N2    N     N_2   0.049670 0.542050 0.533750 -0.170116
O1    O     O_R   0.389250 0.738570 0.508280 -0.620466
O2    O     O_R   0.678390 0.711630 0.486650 -0.621723
O3    O     O_R   0.355400 0.513470 0.694050 -0.621716
O4    O     O_R   0.644540 0.486530 0.672420 -0.624350
O5    O     O_R   0.321610 0.288370 0.513350 -0.610430
O6    O     O_R   0.610750 0.261430 0.491720 -0.621367
O7    O     O_R   0.355460 0.513470 0.327580 -0.621321
O8    O     O_R   0.644600 0.486530 0.305950 -0.606959
O9    O     O_2   0.251407 0.048933 0.260734 -0.593902
Zn1   Zn    Zn3+2 0.306930 0.517990 0.514440 0.959781
Zn2   Zn    Zn3+2 0.693070 0.482010 0.485560 0.958150

loop_
_geom_bond_atom_site_label_1
_geom_bond_atom_site_label_2
_ccdc_geom_bond_type
C2    O6    A    
C11   C12   A    
C6    C7    A    
C1    C15   S    
C2    C16   S    
C2    O5    A    
C6    C9    S    
O6    Zn2   S    
C7    C8    A    
C13   C14   A    
O2    Zn2   S    
C4    H4    S    
N2    Zn1   S    
C3    C14   S    
C17   O4    A    
C3    O7    A    
C7    H6    S    
C9    O9    D    
O1    Zn1   S    
O8    Zn2   S    
H3    N2    S    
C16   H9    S    
C5    C6    A    
C15   H8    S    
O4    Zn2   S    
C10   C11   A    
N1    Zn2   S    
C4    C10   A    
O5    Zn1   S    
N1    N2    D    
C1    O2    A    
C12   C13   A    
C3    O8    A    
C8    C10   A    
O3    Zn1   S    
C12   H1    S    
H10   N1    S    
C17   O3    A    
C1    O1    A    
C8    C14   A    
C9    H2    S    
O7    Zn1   S    
C11   C17   S    
C5    H5    S    
C15   C16   D    
C13   H7    S    
C4    C5    A    
