data_mof_unit_30496.cif
_audit_creation_date              2012-12-11T14:01:38-0500
_audit_creation_method            fapswitch 2.2
_symmetry_space_group_name_H-M    P1
_symmetry_Int_Tables_number       1
_space_group_crystal_system       triclinic
_cell_length_a                    19.045672
_cell_length_b                    10.97706
_cell_length_c                    18.791235
_cell_angle_alpha                 89.449816
_cell_angle_beta                  89.838613
_cell_angle_gamma                 89.963824
_cell_volume                      3928.40122054

loop_
_atom_site_label
_atom_site_type_symbol
_atom_type_description
_atom_site_fract_x
_atom_site_fract_y
_atom_site_fract_z
_atom_type_partial_charge
C1    C     C_R   0.272888 0.039901 0.854495 0.562448
C2    C     C_R   0.043147 0.657932 0.936660 -0.099084
C3    C     C_R   0.543231 0.167411 0.010087 -0.147863
C4    C     C_R   0.542745 0.158116 0.936777 -0.098921
C5    C     C_2   0.249724 0.569776 0.918943 -0.136787
C6    C     C_2   0.753191 0.574850 0.081680 -0.131552
C7    C     C_2   0.749718 0.069784 0.918945 -0.136710
C8    C     C_2   0.253182 0.074861 0.081674 -0.131630
C9    C     C_2   0.247346 0.579071 0.073667 -0.103699
C10   C     C_2   0.751421 0.576301 0.926079 -0.123286
C11   C     C_2   0.747349 0.079083 0.073671 -0.103665
C12   C     C_R   0.727549 0.042235 0.146041 0.554078
C13   C     C_2   0.251418 0.076326 0.926074 -0.123307
C14   C     C_2   0.300651 0.524412 0.038640 0.266931
C15   C     C_2   0.708167 0.505399 0.966462 0.263487
C16   C     C_2   0.800649 0.024414 0.038640 0.266927
C17   C     C_2   0.208137 0.005463 0.966450 0.263532
C18   C     C_2   0.304879 0.528932 0.958986 0.239628
C19   C     C_2   0.701095 0.523058 0.043849 0.248359
C20   C     C_2   0.804871 0.028929 0.958986 0.239604
C21   C     C_2   0.201079 0.023086 0.043843 0.248389
C22   C     C_2   0.512323 0.840456 0.584331 -0.122543
C23   C     C_R   0.772891 0.539892 0.854498 0.562455
C24   C     C_2   0.513953 0.828269 0.428486 -0.107376
C25   C     C_2   0.012322 0.340455 0.584330 -0.122551
C26   C     C_2   0.013951 0.328269 0.428485 -0.107375
C27   C     C_2   0.547245 0.749877 0.472533 -0.148550
C28   C     C_2   0.532809 0.742927 0.548229 -0.159558
C29   C     C_2   0.047241 0.249873 0.472532 -0.148438
C30   C     C_2   0.032806 0.242924 0.548228 -0.159527
C31   C     C_2   0.246862 0.562878 0.584577 0.263888
C32   C     C_2   0.752914 0.561436 0.415947 0.256344
C33   C     C_2   0.746868 0.062846 0.584587 0.263985
C34   C     C_R   0.227548 0.542233 0.146039 0.554069
C35   C     C_2   0.252921 0.061440 0.415946 0.256426
C36   C     C_2   0.238477 0.570535 0.426856 -0.089361
C37   C     C_2   0.761957 0.571824 0.573003 -0.086694
C38   C     C_2   0.738477 0.070551 0.426858 -0.089756
C39   C     C_2   0.261954 0.071825 0.573003 -0.086687
C40   C     C_R   0.473639 0.821256 0.850889 0.542868
C41   C     C_R   0.559940 0.819549 0.138527 0.561531
C42   C     C_R   0.973632 0.321245 0.850892 0.542817
C43   C     C_R   0.059944 0.319545 0.138527 0.561538
C44   C     C_2   0.183949 0.556431 0.471911 -0.150897
C45   C     C_R   0.544954 0.062796 0.052715 -0.113872
C46   C     C_2   0.816219 0.554294 0.528252 -0.144110
C47   C     C_2   0.683938 0.056508 0.471907 -0.151547
C48   C     C_2   0.316224 0.054349 0.528255 -0.144054
C49   C     C_2   0.188831 0.585685 0.546739 -0.157775
C50   C     C_2   0.811505 0.582248 0.452999 -0.156500
C51   C     C_2   0.688824 0.085637 0.546755 -0.158017
C52   C     C_2   0.311506 0.082286 0.453001 -0.156205
C53   C     C_R   0.260930 0.633885 0.851005 0.564659
C54   C     C_R   0.739513 0.635195 0.149217 0.538641
C55   C     C_R   0.760929 0.133886 0.851005 0.564721
C56   C     C_R   0.540099 0.044745 0.905558 -0.093088
C57   C     C_R   0.239512 0.135198 0.149215 0.538563
C58   C     C_R   0.273683 0.043586 0.646811 0.524395
C59   C     C_R   0.726259 0.042714 0.353271 0.534053
C60   C     C_R   0.773682 0.543588 0.646811 0.524502
C61   C     C_R   0.226260 0.542712 0.353270 0.534022
C62   C     C_R   0.472292 0.824905 0.649289 0.546548
C63   C     C_R   0.532070 0.822961 0.353864 0.555529
C64   C     C_R   0.972291 0.324905 0.649289 0.546506
C65   C     C_R   0.032070 0.322961 0.353864 0.555551
C66   C     C_R   0.260226 0.634518 0.647382 0.558077
C67   C     C_R   0.045153 0.562748 0.052641 -0.114007
C68   C     C_R   0.739722 0.634048 0.352754 0.557761
C69   C     C_R   0.760227 0.134517 0.647381 0.558382
C70   C     C_R   0.239723 0.134046 0.352753 0.557861
C71   C     C_R   0.543268 0.831543 0.062497 -0.005140
C72   C     C_R   0.513574 0.826900 0.916921 -0.009774
C73   C     C_R   0.043260 0.331518 0.062501 -0.005117
C74   C     C_R   0.013537 0.326837 0.916937 -0.009751
C75   C     C_R   0.541590 0.944320 0.022548 0.016186
C76   C     C_R   0.532922 0.938342 0.947619 0.015791
C77   C     C_R   0.041677 0.444259 0.022516 0.016140
C78   C     C_R   0.040315 0.544547 0.905486 -0.093331
C79   C     C_R   0.033003 0.438235 0.947591 0.015830
C80   C     C_R   0.517391 0.719326 0.956735 -0.147520
C81   C     C_R   0.533700 0.721350 0.027282 -0.128095
C82   C     C_R   0.017237 0.219290 0.956787 -0.147601
C83   C     C_R   0.033579 0.221322 0.027322 -0.128031
C84   C     C_3   0.285723 0.368865 0.574496 -0.108191
C85   C     C_3   0.711711 0.368991 0.428568 -0.106575
C86   C     C_3   0.785455 0.868744 0.573695 -0.108421
C87   C     C_3   0.211748 0.868977 0.428568 -0.106684
C88   C     C_3   0.376397 0.363949 0.063318 -0.050768
C89   C     C_R   0.043595 0.667314 0.009967 -0.147869
C90   C     C_3   0.607678 0.459645 0.907133 -0.068489
C91   C     C_3   0.876393 0.863944 0.063314 -0.050780
C92   C     C_3   0.107586 0.959897 0.907167 -0.068622
C93   C     C_3   0.369027 0.400279 0.888625 -0.096902
C94   C     C_3   0.644321 0.382601 0.112384 -0.074635
C95   C     C_3   0.869004 0.900257 0.888623 -0.096911
C96   C     C_3   0.144362 0.882681 0.112473 -0.074642
Cr1   Cr    Cr6+3 0.230530 0.836340 0.748870 1.025543
Cr2   Cr    Cr6+3 0.614360 0.677860 0.250770 1.050128
Cr3   Cr    Cr6+3 0.885640 0.177860 0.749230 1.041834
Cr4   Cr    Cr6+3 0.114360 0.177860 0.250770 1.050103
Cr5   Cr    Cr6+3 0.769470 0.836340 0.251130 1.034834
Cr6   Cr    Cr6+3 0.730530 0.336340 0.748870 1.025466
Cr7   Cr    Cr6+3 0.269470 0.336340 0.251130 1.034914
Cr8   Cr    Cr6+3 0.387420 0.989430 0.750820 0.998417
Cr9   Cr    Cr6+3 0.612580 0.989430 0.249180 0.988368
Cr10  Cr    Cr6+3 0.887420 0.489430 0.750820 0.998576
Cr11  Cr    Cr6+3 0.112580 0.489430 0.249180 0.988389
Cr12  Cr    Cr6+3 0.385640 0.677860 0.749230 1.041648
H1    H     H_    0.132098 0.532316 0.452485 0.148621
H2    H     H_    0.710237 0.600429 0.555411 0.136315
H3    H     H_    0.790620 0.096664 0.444064 0.150314
H4    H     H_    0.210225 0.100368 0.555409 0.136426
H5    H     H_    0.545447 0.081313 0.108458 0.169448
H6    H     H_    0.542530 0.041628 0.848110 0.122791
H7    H     H_    0.045621 0.581301 0.108380 0.169505
H8    H     H_    0.042729 0.541342 0.848040 0.122742
H9    H     H_    0.042731 0.756391 0.033876 0.115180
H10   H     H_    0.042849 0.738299 0.903503 0.109211
H11   H     H_    0.542268 0.256458 0.034039 0.114793
H12   H     H_    0.867685 0.527851 0.548056 0.144774
H13   H     H_    0.542261 0.238537 0.903656 0.108601
H14   H     H_    0.209152 0.634075 0.045855 0.052291
H15   H     H_    0.778374 0.653362 0.949062 0.019726
H16   H     H_    0.709160 0.134102 0.045863 0.052258
H17   H     H_    0.278398 0.153352 0.949062 0.019745
H18   H     H_    0.197112 0.574901 0.940653 0.072807
H19   H     H_    0.804801 0.588078 0.058188 0.049375
H20   H     H_    0.697105 0.074930 0.940656 0.072736
H21   H     H_    0.304791 0.088093 0.058180 0.049406
H22   H     H_    0.582640 0.680942 0.451779 0.187665
H23   H     H_    0.632079 0.032462 0.452473 0.148739
H24   H     H_    0.533226 0.652849 0.572734 0.166665
H25   H     H_    0.082634 0.180936 0.451778 0.187688
H26   H     H_    0.033222 0.152847 0.572733 0.166670
H27   H     H_    0.478610 0.898585 0.447403 0.084389
H28   H     H_    0.516053 0.931320 0.561116 0.095038
H29   H     H_    0.978610 0.398587 0.447403 0.084386
H30   H     H_    0.016053 0.431319 0.561115 0.095051
H31   H     H_    0.502251 0.632536 0.934918 0.171182
H32   H     H_    0.534389 0.634620 0.055051 0.208792
H33   H     H_    0.002009 0.132523 0.935003 0.171425
H34   H     H_    0.367698 0.027955 0.548060 0.144723
H35   H     H_    0.034211 0.134603 0.055107 0.208733
H36   H     H_    0.238058 0.337621 0.545810 0.121501
H37   H     H_    0.279572 0.353895 0.632902 0.108663
H38   H     H_    0.330571 0.312450 0.556528 0.159228
H39   H     H_    0.758990 0.335686 0.457498 0.126214
H40   H     H_    0.717521 0.353882 0.370308 0.116831
H41   H     H_    0.666156 0.314448 0.447206 0.157082
H42   H     H_    0.738106 0.838089 0.544265 0.122109
H43   H     H_    0.778599 0.852888 0.631952 0.108434
H44   H     H_    0.830453 0.812458 0.555972 0.159225
H45   H     H_    0.145097 0.635944 0.569349 0.114568
H46   H     H_    0.259033 0.835698 0.457500 0.126152
H47   H     H_    0.217562 0.853866 0.370308 0.116795
H48   H     H_    0.166202 0.814411 0.447207 0.157056
H49   H     H_    0.420378 0.362505 0.024587 0.136083
H50   H     H_    0.331355 0.308160 0.044683 0.092723
H51   H     H_    0.396421 0.320477 0.112757 0.146005
H52   H     H_    0.612186 0.555958 0.888160 0.092406
H53   H     H_    0.564431 0.450881 0.946547 0.131303
H54   H     H_    0.593970 0.406218 0.859424 0.122565
H55   H     H_    0.920376 0.862493 0.024585 0.136086
H56   H     H_    0.855688 0.630651 0.429419 0.117586
H57   H     H_    0.831350 0.808159 0.044679 0.092725
H58   H     H_    0.896414 0.820470 0.112754 0.146030
H59   H     H_    0.112100 0.056259 0.888298 0.092502
H60   H     H_    0.064349 0.951013 0.946578 0.131355
H61   H     H_    0.093849 0.906638 0.859407 0.122348
H62   H     H_    0.332255 0.405715 0.842958 0.124466
H63   H     H_    0.354627 0.320136 0.921833 0.088034
H64   H     H_    0.422380 0.383715 0.866927 0.115048
H65   H     H_    0.684926 0.387410 0.154727 0.121397
H66   H     H_    0.656973 0.307930 0.075331 0.141371
H67   H     H_    0.645078 0.135834 0.569390 0.114655
H68   H     H_    0.593589 0.360740 0.138661 0.122460
H69   H     H_    0.832237 0.905706 0.842953 0.124585
H70   H     H_    0.854592 0.820121 0.921832 0.088042
H71   H     H_    0.922358 0.883670 0.866930 0.115126
H72   H     H_    0.184835 0.887738 0.154921 0.121502
H73   H     H_    0.157234 0.807996 0.075518 0.141083
H74   H     H_    0.093594 0.860647 0.138620 0.122391
H75   H     H_    0.355683 0.130706 0.429422 0.117626
H76   H     H_    0.290610 0.596733 0.444056 0.150169
O1    O     O_R   0.215090 0.709860 0.828130 -0.497820
O2    O     O_R   0.543740 0.718170 0.330000 -0.498084
O3    O     O_R   0.956260 0.218170 0.670000 -0.506952
O4    O     O_R   0.043740 0.218170 0.330000 -0.498091
O5    O     O_R   0.320940 0.626760 0.674370 -0.473344
O6    O     O_R   0.679060 0.626760 0.325630 -0.481834
O7    O     O_R   0.820940 0.126760 0.674370 -0.473091
O8    O     O_R   0.179060 0.126760 0.325630 -0.481852
O9    O     O_3   0.334530 0.834540 0.749640 -0.249418
O10   O     O_3   0.665470 0.834540 0.250360 -0.277808
O11   O     O_3   0.834530 0.334540 0.749640 -0.249488
O12   O     O_R   0.784910 0.709860 0.171870 -0.538447
O13   O     O_3   0.165470 0.334540 0.250360 -0.277800
O14   O     O_R   0.236990 0.958390 0.823710 -0.453997
O15   O     O_R   0.763010 0.958390 0.176290 -0.445579
O16   O     O_R   0.736990 0.458390 0.823710 -0.454099
O17   O     O_R   0.263010 0.458390 0.176290 -0.445584
O18   O     O_R   0.332380 0.074750 0.830850 -0.530444
O19   O     O_R   0.667620 0.074750 0.169150 -0.562365
O20   O     O_R   0.832380 0.574750 0.830850 -0.530389
O21   O     O_R   0.167620 0.574750 0.169150 -0.562419
O22   O     O_R   0.445800 0.917770 0.825070 -0.506213
O23   O     O_R   0.715090 0.209860 0.828130 -0.497812
O24   O     O_R   0.554200 0.917770 0.174930 -0.523622
O25   O     O_R   0.945800 0.417770 0.825070 -0.506157
O26   O     O_R   0.054200 0.417770 0.174930 -0.523599
O27   O     O_R   0.456410 0.716580 0.829970 -0.508437
O28   O     O_R   0.543590 0.716580 0.170030 -0.487298
O29   O     O_R   0.956410 0.216580 0.829970 -0.508538
O30   O     O_R   0.043590 0.216580 0.170030 -0.487335
O31   O     O_R   0.321080 0.625290 0.822650 -0.461368
O32   O     O_R   0.678920 0.625290 0.177350 -0.470195
O33   O     O_R   0.821080 0.125290 0.822650 -0.461361
O34   O     O_R   0.284910 0.209860 0.171870 -0.538442
O35   O     O_R   0.178920 0.125290 0.177350 -0.470282
O36   O     O_R   0.214930 0.711450 0.668160 -0.553368
O37   O     O_R   0.785070 0.711450 0.331840 -0.542057
O38   O     O_R   0.714930 0.211450 0.668160 -0.553444
O39   O     O_R   0.285070 0.211450 0.331840 -0.541994
O40   O     O_R   0.236850 0.959870 0.675420 -0.490769
O41   O     O_R   0.763150 0.959870 0.324580 -0.478677
O42   O     O_R   0.736850 0.459870 0.675420 -0.490808
O43   O     O_R   0.263150 0.459870 0.324580 -0.478587
O44   O     O_R   0.332230 0.076350 0.670880 -0.528989
O45   O     O_R   0.445660 0.919250 0.676780 -0.511883
O46   O     O_R   0.667770 0.076350 0.329120 -0.527090
O47   O     O_R   0.832230 0.576350 0.670880 -0.528794
O48   O     O_R   0.167770 0.576350 0.329120 -0.527155
O49   O     O_3   0.300853 0.491446 0.558259 -0.567605
O50   O     O_3   0.698297 0.492128 0.443583 -0.584128
O51   O     O_3   0.800912 0.991509 0.558276 -0.567596
O52   O     O_3   0.198312 0.992108 0.443579 -0.584124
O53   O     O_3   0.358013 0.485267 0.078697 -0.523206
O54   O     O_3   0.670037 0.411440 0.936683 -0.527764
O55   O     O_3   0.858012 0.985264 0.078693 -0.523250
O56   O     O_R   0.554340 0.919250 0.323220 -0.498051
O57   O     O_3   0.169953 0.911585 0.936650 -0.527738
O58   O     O_3   0.370492 0.509046 0.928616 -0.531403
O59   O     O_3   0.637139 0.493742 0.074902 -0.562867
O60   O     O_3   0.870480 0.009025 0.928613 -0.531562
O61   O     O_3   0.137129 0.993729 0.074902 -0.562755
O62   O     O_R   0.945660 0.419250 0.676780 -0.511894
O63   O     O_R   0.054340 0.419250 0.323220 -0.498033
O64   O     O_R   0.456260 0.718170 0.670000 -0.506982

loop_
_geom_bond_atom_site_label_1
_geom_bond_atom_site_label_2
_ccdc_geom_bond_type
C44   C49   S    
C43   C73   S    
C81   H32   S    
C29   H25   S    
C93   H64   S    
C56   C76   A    
C62   O45   A    
C53   O1    A    
C31   C66   S    
C60   O47   A    
C14   C18   S    
C91   H58   S    
C68   O37   A    
C67   C77   A    
C85   H40   S    
Cr6   O42   S    
C96   H73   S    
Cr2   O6    S    
C26   H29   S    
Cr6   O11   S    
C69   O7    A    
Cr3   O3    S    
C2    H10   S    
C70   O8    A    
C55   O33   A    
Cr11  O26   S    
C32   O50   S    
C84   H37   S    
Cr1   O1    S    
C6    C19   D    
C31   O49   S    
C40   O27   A    
Cr4   O30   S    
C61   O43   A    
C90   H54   S    
C35   C52   D    
C49   H45   S    
Cr4   O4    S    
C64   O62   A    
C31   C49   D    
C6    H19   S    
C48   C52   S    
C86   H44   S    
C93   O58   S    
C86   H42   S    
Cr9   O19   S    
C57   O34   A    
C84   H36   S    
C34   O17   A    
Cr7   O43   S    
C66   O5    A    
Cr3   O11   S    
C67   C89   A    
C61   O48   A    
Cr10  O47   S    
Cr2   O10   S    
Cr11  O63   S    
Cr5   O41   S    
C69   O38   A    
Cr7   O13   S    
C12   O19   A    
Cr1   O9    S    
C43   O26   A    
C67   H7    S    
C66   O36   A    
Cr7   O39   S    
C41   O28   A    
C95   H69   S    
Cr3   O33   S    
Cr4   O35   S    
Cr3   O7    S    
C5    H18   S    
Cr8   O9    S    
C24   C27   D    
C36   H76   S    
C45   C75   A    
C88   H50   S    
C7    H20   S    
Cr6   O23   S    
C33   O51   S    
Cr5   O12   S    
C33   C69   S    
C95   O60   S    
C41   C71   S    
C13   H17   S    
Cr4   O13   S    
C18   O58   S    
C1    O14   A    
C65   O63   A    
C65   O4    A    
C17   O57   S    
C53   O31   A    
C22   C28   D    
Cr11  O48   S    
C4    C56   A    
C91   H55   S    
Cr4   O8    S    
C6    C54   S    
C82   H33   S    
C1    O18   A    
C94   H65   S    
C46   C50   S    
Cr8   O44   S    
C77   C79   A    
C34   O21   A    
Cr9   O56   S    
Cr9   O10   S    
C52   H75   S    
C40   O22   A    
C93   H62   S    
C42   C74   S    
C54   O12   A    
C90   O54   S    
C90   H53   S    
C50   H56   S    
C85   O50   S    
C37   C60   S    
C16   O55   S    
C10   H15   S    
C63   O56   A    
Cr11  O13   S    
C9    C14   D    
C58   O40   A    
C78   C79   A    
C21   O61   S    
C5    C18   D    
C57   O35   A    
C30   H26   S    
Cr10  O25   S    
Cr2   O28   S    
C23   O16   A    
C3    C45   A    
C17   C21   S    
C87   O52   S    
C47   H23   S    
C28   H24   S    
C25   C64   S    
Cr8   O18   S    
C2    C89   A    
C15   C19   S    
C94   O59   S    
Cr7   O17   S    
C59   O46   A    
C29   C30   S    
C2    C78   A    
Cr12  O31   S    
Cr6   O16   S    
C8    C57   S    
C22   C62   S    
C92   O57   S    
C54   O32   A    
C95   H70   S    
C62   O64   A    
C15   O54   S    
C68   O6    A    
C92   H61   S    
C16   C20   S    
C63   O2    A    
C9    H14   S    
C37   H2    S    
C87   H46   S    
C46   H12   S    
C72   C76   A    
C88   H49   S    
Cr10  O62   S    
C51   H67   S    
C32   C50   D    
C38   C47   D    
C42   O25   A    
C3    H11   S    
C94   H66   S    
C7    C55   S    
C24   H27   S    
C95   H71   S    
C39   H4    S    
C89   H9    S    
C7    C20   D    
C24   C63   S    
Cr8   O22   S    
C74   C79   A    
C35   C70   S    
C9    C34   S    
C87   H47   S    
Cr12  O5    S    
C36   C44   D    
C1    C13   S    
C91   O55   S    
C36   C61   S    
C96   O61   S    
C8    H21   S    
Cr12  O27   S    
C58   O44   A    
Cr5   O10   S    
Cr6   O38   S    
Cr9   O24   S    
C74   C82   A    
Cr5   O37   S    
C25   C30   D    
C20   O60   S    
Cr2   O32   S    
C93   H63   S    
C75   C76   A    
C73   C77   A    
C40   C72   S    
Cr10  O20   S    
C26   C65   S    
Cr1   O14   S    
C91   H57   S    
C11   C16   D    
C78   H8    S    
C85   H39   S    
C96   H74   S    
C80   C81   A    
C8    C21   D    
C14   O53   S    
C47   C51   S    
C11   C12   S    
Cr5   O15   S    
Cr10  O11   S    
C35   O52   S    
C19   O59   S    
C10   C23   S    
C33   C51   D    
C80   H31   S    
C70   O39   A    
Cr12  O64   S    
C86   O51   S    
Cr1   O40   S    
C13   C17   D    
C23   O20   A    
C10   C15   D    
Cr9   O46   S    
C96   H72   S    
C41   O24   A    
C84   O49   S    
Cr12  O9    S    
C55   O23   A    
Cr2   O2    S    
C42   O29   A    
C86   H43   S    
C44   H1    S    
C32   C68   S    
C83   H35   S    
C39   C58   S    
C92   H59   S    
C5    C53   S    
Cr8   O45   S    
C88   H51   S    
C88   O53   S    
C37   C46   D    
C12   O15   A    
C4    H13   S    
C25   H30   S    
C60   O42   A    
C90   H52   S    
C59   O41   A    
C85   H41   S    
C92   H60   S    
Cr11  O21   S    
C64   O3    A    
Cr7   O34   S    
Cr3   O29   S    
C38   C59   S    
C45   H5    S    
C48   H34   S    
Cr1   O36   S    
C26   C29   D    
C72   C80   A    
C82   C83   A    
C22   H28   S    
C27   C28   S    
C27   H22   S    
C56   H6    S    
C87   H48   S    
C84   H38   S    
C11   H16   S    
C38   H3    S    
C43   O30   A    
C73   C83   A    
C3    C4    A    
C94   H68   S    
C39   C48   D    
C71   C81   A    
C71   C75   A    
