data_mof_unit_28664.cif
_audit_creation_date              2013-03-05T16:00:57-0500
_audit_creation_method            fapswitch 2.2
_symmetry_space_group_name_H-M    P1
_symmetry_Int_Tables_number       1
_space_group_crystal_system       triclinic
_cell_length_a                    10.695558
_cell_length_b                    14.719623
_cell_length_c                    14.923665
_cell_angle_alpha                 65.116107
_cell_angle_beta                  102.871746
_cell_angle_gamma                 102.801897
_cell_volume                      2055.99448632

loop_
_atom_site_label
_atom_site_type_symbol
_atom_site_description
_atom_site_fract_x
_atom_site_fract_y
_atom_site_fract_z
_atom_type_partial_charge
O1    O     O_R   0.454850 0.022100 0.338110 -0.605060
O2    O     O_R   0.545150 0.977900 0.661890 -0.605057
O3    O     O_R   0.512700 0.160150 0.379180 -0.569159
O4    O     O_R   0.487300 0.839850 0.620820 -0.569176
C1    C     C_R   0.479413 0.119876 0.313123 0.799107
C2    C     C_R   0.520585 0.880123 0.686876 0.799128
O5    O     O_R   0.287930 0.931000 0.479440 -0.554713
O6    O     O_R   0.712070 0.069000 0.520560 -0.554691
O7    O     O_R   0.345780 0.069050 0.520520 -0.588665
O8    O     O_R   0.654220 0.930950 0.479480 -0.588671
C3    C     C_R   0.260066 0.000008 0.500898 0.844500
C4    C     C_R   0.739933 0.999993 0.499100 0.844473
Cu1   Cu    Cu3+1 0.465750 0.918270 0.475680 0.994632
Cu2   Cu    Cu3+1 0.534250 0.081730 0.524320 0.994649
C5    C     C_3   0.023271 0.032994 0.406162 -0.125924
C6    C     C_3   0.976728 0.967009 0.593833 -0.125912
C7    C     C_3   0.971414 0.092539 0.449597 0.380789
C8    C     C_3   0.028585 0.907464 0.550400 0.380814
C9    C     C_3   0.876070 0.998974 0.499195 -0.188971
C10   C     C_3   0.123929 0.001029 0.500801 -0.188937
C11   C     C_3   0.926926 0.937653 0.455527 -0.270364
C12   C     C_3   0.073072 0.062349 0.544470 -0.270278
H1    H     H_    0.866996 0.886957 0.419350 0.187539
H2    H     H_    0.133002 0.113043 0.580650 0.187528
C13   C     C_R   0.462089 0.188491 0.207108 -0.088231
C14   C     C_R   0.537907 0.811506 0.792892 -0.088217
C15   C     C_R   0.364966 0.218438 0.036304 -0.148097
C16   C     C_R   0.635020 0.781559 0.963697 -0.148091
C17   C     C_R   0.384080 0.153143 0.136226 -0.167840
C18   C     C_R   0.615906 0.846855 0.863776 -0.167843
C19   C     C_R   0.517587 0.291331 0.176732 -0.044482
C20   C     C_R   0.482416 0.708664 0.823265 -0.044508
C21   C     C_R   0.475488 0.361218 0.080506 0.083810
C22   C     C_R   0.524511 0.638777 0.919493 0.083805
C23   C     C_R   0.412724 0.321764 0.007784 0.082093
C24   C     C_R   0.587269 0.678232 0.992217 0.082102
C25   C     C_R   0.502343 0.468449 0.051685 -0.088216
C26   C     C_R   0.497660 0.531546 0.948316 -0.088217
C27   C     C_R   0.468625 0.484779 0.878146 0.344002
C28   C     C_R   0.531382 0.515214 0.121856 0.344023
C29   C     C_R   0.410685 0.383857 0.907103 -0.258268
C30   C     C_R   0.589313 0.616138 0.092898 -0.258268
H3    H     H_    0.377900 0.350664 0.851862 0.183779
H4    H     H_    0.622097 0.649331 0.148139 0.183776
H5    H     H_    0.658531 0.925617 0.842549 0.158232
H6    H     H_    0.341450 0.074382 0.157455 0.158236
H7    H     H_    0.313130 0.188213 0.981289 0.142349
H8    H     H_    0.686850 0.811785 0.018714 0.142346
N1    N     N_R   0.585750 0.204560 0.560800 -0.197471
N2    N     N_R   0.414250 0.795440 0.439200 -0.197471
C31   C     C_R   0.721182 0.287671 0.661439 -0.273205
C32   C     C_R   0.278825 0.712329 0.338560 -0.273203
C33   C     C_R   0.682323 0.203232 0.637284 0.115193
C34   C     C_R   0.317678 0.796766 0.362716 0.115178
C35   C     C_R   0.521283 0.285775 0.508720 0.071722
C36   C     C_R   0.478724 0.714229 0.491277 0.071707
C37   C     C_R   0.546745 0.370229 0.536279 -0.014239
C38   C     C_R   0.453268 0.629775 0.463719 -0.014244
C39   C     C_R   0.655785 0.372114 0.609497 0.119245
C40   C     C_R   0.344227 0.627888 0.390501 0.119240
C41   C     C_R   0.474057 0.454489 0.490929 0.051477
C42   C     C_R   0.525958 0.545516 0.509069 0.051476
C43   C     C_R   0.648741 0.548025 0.570741 0.005036
C44   C     C_R   0.351273 0.451977 0.429262 0.005017
C45   C     C_R   0.705190 0.460384 0.625460 -0.145120
C46   C     C_R   0.294823 0.539617 0.374540 -0.145127
H9    H     H_    0.794907 0.463101 0.676205 0.164187
H10   H     H_    0.205104 0.536897 0.323798 0.164198
H11   H     H_    0.543980 0.715452 0.556793 0.174511
H12   H     H_    0.456029 0.284554 0.443203 0.174522
H13   H     H_    0.267861 0.862236 0.322801 0.128215
H14   H     H_    0.732136 0.137761 0.677200 0.128216
H15   H     H_    0.803297 0.287709 0.719074 0.149958
H16   H     H_    0.196710 0.712288 0.280925 0.149961
N3    N     N_R   0.936823 0.194084 0.395907 0.132471
O9    O     O_R   0.912243 0.241414 0.445110 -0.333841
O10   O     O_R   0.940899 0.240859 0.300527 -0.343526
N4    N     N_R   0.063186 0.805924 0.604102 0.132529
O11   O     O_R   0.087670 0.758548 0.554906 -0.333843
O12   O     O_R   0.059395 0.759248 0.699521 -0.343651
C47   C     C_1   0.728248 0.639504 0.574477 0.295480
N5    N     N_1   0.792074 0.712607 0.578237 -0.209882
C48   C     C_1   0.271762 0.360494 0.425544 0.295477
N6    N     N_1   0.207934 0.287386 0.421800 -0.209825
C49   C     C_1   0.052281 0.069170 0.304083 0.337326
N7    N     N_1   0.075426 0.097684 0.223709 -0.267660
C50   C     C_1   0.947714 0.930831 0.695912 0.337349
N8    N     N_1   0.924567 0.902316 0.776285 -0.267655
C51   C     C_1   0.367240 0.678872 0.763553 0.329284
N9    N     N_1   0.275718 0.654077 0.716396 -0.124567
C52   C     C_1   0.632780 0.321117 0.236433 0.329154
N10   N     N_1   0.724318 0.345909 0.283579 -0.124572
N11   N     N_R   0.510716 0.534076 0.781705 0.101407
O13   O     O_R   0.446971 0.510034 0.707817 -0.399303
O14   O     O_R   0.621995 0.592280 0.771143 -0.369563
N12   N     N_R   0.489306 0.465912 0.218303 0.101414
O15   O     O_R   0.378026 0.407710 0.228871 -0.369548
O16   O     O_R   0.553066 0.489948 0.292190 -0.399291

loop_
_geom_bond_atom_site_label_1
_geom_bond_atom_site_label_2
_geom_bond_distance
_ccdc_geom_bond_type
C38   C42   1.444723 A    
C46   H10   1.086550 S    
C50   N8    1.157038 T    
C43   C45   1.390879 A    
C13   C19   1.411923 A    
N11   O13   1.300954 A    
C15   C17   1.390801 A    
C8    C11   1.543713 S    
C18   H5    1.083205 S    
C24   C30   1.389951 A    
O7    Cu2   1.972995 S    
C47   N5    1.155542 T    
C27   C29   1.395959 A    
C49   N7    1.157039 T    
O5    C3    1.293667 A    
N2    C34   1.354623 A    
C43   C47   1.440137 S    
O1    C1    1.305329 A    
C9    C11   1.551065 S    
C25   C26   1.423133 A    
C25   C28   1.426168 A    
C32   H16   1.083880 S    
C26   C27   1.426168 A    
N4    O12   1.300584 A    
C37   C39   1.413590 A    
Cu2   N1    2.030298 S    
C38   C40   1.413598 A    
O4    Cu1   1.966863 S    
C27   N11   1.437243 S    
C32   C40   1.402841 A    
C21   C23   1.413802 A    
C34   H13   1.081880 S    
C20   C51   1.450617 S    
C45   H9    1.086550 S    
N12   O16   1.300955 A    
C6    C50   1.468086 S    
O6    Cu2   1.967169 S    
C19   C21   1.413211 A    
C8    C10   1.529890 S    
C8    N4    1.455371 S    
C5    C49   1.468083 S    
C28   C30   1.395956 A    
C40   C46   1.387196 A    
N11   O14   1.301325 A    
Cu1   Cu2   2.702687 S    
C29   H3    1.084234 S    
O2    C2    1.305334 A    
C30   H4    1.084234 S    
C28   N12   1.437243 S    
O2    Cu2   1.973862 S    
C32   C34   1.388830 A    
C13   C17   1.401216 A    
C5    C10   1.537194 S    
C3    C10   1.459145 S    
O4    C2    1.300728 A    
C52   N10   1.156535 T    
N4    O11   1.300527 A    
C15   C23   1.401097 A    
N1    C35   1.361326 A    
C21   C25   1.428850 A    
C31   C33   1.388836 A    
C20   C22   1.413222 A    
C41   C44   1.428839 A    
N3    O9    1.300519 A    
C44   C48   1.440129 S    
C42   C43   1.428851 A    
O7    C3    1.294974 A    
C48   N6    1.155537 T    
C5    C11   1.549627 S    
O6    C4    1.293663 A    
N12   O15   1.301324 A    
N3    O10   1.300622 A    
O3    Cu2   1.966864 S    
O8    C4    1.294973 A    
C1    C13   1.471436 S    
C10   C12   1.551063 S    
C14   C18   1.401214 A    
C19   C52   1.450612 S    
C35   C37   1.420928 A    
C12   H2    1.110004 S    
O1    Cu1   1.973862 S    
C15   H7    1.083825 S    
C5    C7    1.532893 S    
C16   H8    1.083826 S    
C6    C12   1.549610 S    
C22   C26   1.428856 A    
C31   H15   1.083881 S    
O3    C1    1.300731 A    
O8    Cu1   1.972996 S    
C37   C41   1.444716 A    
C14   C20   1.411933 A    
C7    C12   1.543714 S    
C17   H6    1.083204 S    
C11   H1    1.110006 S    
C39   C45   1.387198 A    
C2    C14   1.471442 S    
C6    C9    1.537192 S    
N1    C33   1.354626 A    
C4    C9    1.459138 S    
C16   C18   1.390799 A    
C7    C9    1.529892 S    
C36   C38   1.420925 A    
C22   C24   1.413806 A    
C41   C42   1.444085 A    
C23   C29   1.389950 A    
N2    C36   1.361330 A    
C35   H12   1.071738 S    
Cu1   N2    2.030298 S    
O5    Cu1   1.967168 S    
C31   C39   1.402840 A    
C16   C24   1.401096 A    
C6    C8    1.532886 S    
C36   H11   1.071735 S    
C7    N3    1.455378 S    
C51   N9    1.156538 T    
C33   H14   1.081880 S    
C44   C46   1.390870 A    
