data_mof_unit_64948.cif
_audit_creation_date              2013-03-05T16:24:52-0500
_audit_creation_method            fapswitch 2.2
_symmetry_space_group_name_H-M    P1
_symmetry_Int_Tables_number       1
_space_group_crystal_system       triclinic
_cell_length_a                    30.533248
_cell_length_b                    30.532919
_cell_length_c                    36.285405
_cell_angle_alpha                 90.025163
_cell_angle_beta                  90.020184
_cell_angle_gamma                 90.022357
_cell_volume                      33827.7571167

loop_
_atom_site_label
_atom_site_type_symbol
_atom_site_description
_atom_site_fract_x
_atom_site_fract_y
_atom_site_fract_z
_atom_type_partial_charge
Zn1   Zn    Zn3+2 0.000000 0.551890 0.780540 1.027567
Zn2   Zn    Zn3+2 0.000000 0.448110 0.219460 1.031066
Zn3   Zn    Zn3+2 0.551890 0.000000 0.780540 1.031610
Zn4   Zn    Zn3+2 0.448110 1.000000 0.219460 1.029137
Zn5   Zn    Zn3+2 0.000000 0.448110 0.780540 1.032478
Zn6   Zn    Zn3+2 1.000000 0.551890 0.219460 1.028579
Zn7   Zn    Zn3+2 0.448110 0.000000 0.780540 1.029583
Zn8   Zn    Zn3+2 0.551890 1.000000 0.219460 1.029697
Zn9   Zn    Zn3+2 0.500000 0.051890 0.280540 1.031430
Zn10  Zn    Zn3+2 0.500000 0.948110 0.719460 1.027981
Zn11  Zn    Zn3+2 0.051890 0.500000 0.280540 1.028637
Zn12  Zn    Zn3+2 0.948110 0.500000 0.719460 1.029985
Zn13  Zn    Zn3+2 0.500000 0.948110 0.280540 1.028311
Zn14  Zn    Zn3+2 0.500000 0.051890 0.719460 1.032971
Zn15  Zn    Zn3+2 0.948110 0.500000 0.280540 1.031095
Zn16  Zn    Zn3+2 0.051890 0.500000 0.719460 1.030576
C1    C     C_R   0.381658 0.881615 0.750002 -0.133235
C2    C     C_R   0.617931 0.117967 0.250004 -0.110079
C3    C     C_R   0.881643 0.618378 0.749995 -0.133188
C4    C     C_R   0.118352 0.381619 0.250011 -0.133112
C5    C     C_R   0.617985 0.117942 0.750007 -0.107087
C6    C     C_R   0.381630 0.881645 0.249990 -0.134471
C7    C     C_R   0.117976 0.382048 0.750005 -0.107401
C8    C     C_R   0.881624 0.618350 0.249990 -0.133029
C9    C     C_R   0.618354 0.881626 0.249993 -0.132500
C10   C     C_R   0.382047 0.117973 0.750011 -0.109829
C11   C     C_R   0.118372 0.618354 0.250008 -0.134554
C12   C     C_R   0.882040 0.382044 0.749979 -0.112335
C13   C     C_R   0.381621 0.118355 0.250013 -0.133276
C14   C     C_R   0.618380 0.881648 0.749983 -0.133730
C15   C     C_R   0.882033 0.382020 0.249980 -0.107788
C16   C     C_R   0.118369 0.618356 0.750026 -0.133165
H1    H     H_    0.325078 0.731956 0.771633 0.159299
H2    H     H_    0.686306 0.256950 0.292051 0.168760
H3    H     H_    0.731990 0.675002 0.771536 0.159266
H4    H     H_    0.267999 0.324993 0.228457 0.158939
H5    H     H_    0.686732 0.256442 0.707441 0.168806
H6    H     H_    0.325044 0.731960 0.228465 0.158878
H7    H     H_    0.256714 0.313456 0.707654 0.169343
H8    H     H_    0.731926 0.674929 0.228356 0.160027
H9    H     H_    0.674929 0.731926 0.228361 0.158901
H10   H     H_    0.314512 0.257754 0.708921 0.168941
H11   H     H_    0.268036 0.674931 0.228484 0.158952
H12   H     H_    0.742452 0.314268 0.708682 0.168574
H13   H     H_    0.324996 0.267998 0.228461 0.159157
H14   H     H_    0.674995 0.731999 0.771527 0.158748
H15   H     H_    0.744155 0.312646 0.293274 0.169225
H16   H     H_    0.268047 0.674949 0.771660 0.160420
H17   H     H_    0.812586 0.244089 0.206688 0.169229
H18   H     H_    0.175005 0.767965 0.728438 0.158719
H19   H     H_    0.231925 0.174928 0.271603 0.159411
H20   H     H_    0.768081 0.825070 0.728407 0.160574
H21   H     H_    0.174959 0.768037 0.271529 0.158856
H22   H     H_    0.814438 0.242402 0.791219 0.169013
H23   H     H_    0.768007 0.825004 0.271604 0.158873
H24   H     H_    0.242337 0.185592 0.791146 0.168345
H25   H     H_    0.186631 0.243386 0.792403 0.167961
H26   H     H_    0.825002 0.768007 0.271604 0.158724
H27   H     H_    0.756627 0.186669 0.792485 0.169440
H28   H     H_    0.231967 0.825065 0.271510 0.158933
H29   H     H_    0.825079 0.768073 0.728421 0.158989
H30   H     H_    0.174928 0.231926 0.271605 0.160302
H31   H     H_    0.232032 0.824971 0.728417 0.158976
H32   H     H_    0.756870 0.186260 0.207929 0.168812
C17   C     C_R   0.292390 0.739902 0.762155 -0.052086
C18   C     C_R   0.714088 0.253616 0.273714 -0.048906
C19   C     C_R   0.739960 0.707688 0.762073 -0.051666
C20   C     C_R   0.260033 0.292308 0.237925 -0.052625
C21   C     C_R   0.714203 0.253474 0.726166 -0.048094
C22   C     C_R   0.292353 0.739922 0.237913 -0.052301
C23   C     C_R   0.253671 0.285956 0.726324 -0.047685
C24   C     C_R   0.739893 0.707616 0.237847 -0.051747
C25   C     C_R   0.707616 0.739893 0.237849 -0.052859
C26   C     C_R   0.286387 0.254093 0.726840 -0.048090
C27   C     C_R   0.260076 0.707632 0.237925 -0.052093
C28   C     C_R   0.746070 0.286201 0.726669 -0.049563
C29   C     C_R   0.292310 0.260033 0.237928 -0.052470
C30   C     C_R   0.707684 0.739965 0.762067 -0.053441
C31   C     C_R   0.746825 0.285472 0.274211 -0.048157
C32   C     C_R   0.260099 0.707626 0.762172 -0.050943
C33   C     C_R   0.785436 0.246791 0.225756 -0.047988
C34   C     C_R   0.207692 0.760018 0.737917 -0.052852
C35   C     C_R   0.239890 0.207614 0.262136 -0.052041
C36   C     C_R   0.760112 0.792384 0.737871 -0.050675
C37   C     C_R   0.207650 0.760074 0.262081 -0.052421
C38   C     C_R   0.786351 0.245987 0.773234 -0.047788
C39   C     C_R   0.760040 0.792317 0.262115 -0.052348
C40   C     C_R   0.246003 0.213715 0.773228 -0.049765
C41   C     C_R   0.214137 0.246429 0.773738 -0.049800
C42   C     C_R   0.792316 0.760039 0.262115 -0.052812
C43   C     C_R   0.753633 0.214112 0.773752 -0.047620
C44   C     C_R   0.239927 0.792364 0.262068 -0.052230
C45   C     C_R   0.792389 0.760108 0.737880 -0.053162
C46   C     C_R   0.207614 0.239891 0.262137 -0.051502
C47   C     C_R   0.239981 0.792294 0.737903 -0.052246
C48   C     C_R   0.753568 0.214066 0.226263 -0.049182
O1    O     O_3   1.000000 0.500000 0.750000 -0.514704
O2    O     O_3   0.000000 0.500000 0.250000 -0.512986
O3    O     O_3   0.500000 0.000000 0.750000 -0.515040
O4    O     O_3   0.500000 0.000000 0.250000 -0.512887
O5    O     O_R   0.036310 0.500000 0.668570 -0.613059
O6    O     O_R   0.963690 0.500000 0.331430 -0.613273
O7    O     O_R   0.500000 0.963690 0.668570 -0.614860
O8    O     O_R   0.500000 0.036310 0.331430 -0.615363
O9    O     O_R   0.963690 0.500000 0.668570 -0.617215
O10   O     O_R   0.036310 0.500000 0.331430 -0.616380
O11   O     O_R   0.500000 0.036310 0.668570 -0.614951
O12   O     O_R   0.500000 0.963690 0.331430 -0.615499
O13   O     O_R   0.536310 0.000000 0.168570 -0.616555
O14   O     O_R   0.463690 0.000000 0.831430 -0.615207
O15   O     O_R   1.000000 0.463690 0.168570 -0.613426
O16   O     O_R   0.000000 0.536310 0.831430 -0.614277
O17   O     O_R   0.463690 0.000000 0.168570 -0.615762
O18   O     O_R   0.536310 0.000000 0.831430 -0.613700
O19   O     O_R   0.000000 0.536310 0.168570 -0.616303
O20   O     O_R   0.000000 0.463690 0.831430 -0.616062
C49   C     C_1   0.999389 0.500058 0.888350 -0.036280
C50   C     C_1   0.000581 0.499947 0.111649 -0.036809
C51   C     C_1   0.500010 0.000012 0.888327 -0.034003
C52   C     C_1   0.499976 0.000050 0.111672 -0.034562
C53   C     C_1   0.499405 0.000038 0.388350 -0.036303
C54   C     C_1   0.500584 0.999959 0.611649 -0.035557
C55   C     C_1   0.999991 0.500589 0.388351 -0.036790
C56   C     C_1   0.000008 0.499401 0.611650 -0.036199
O21   O     O_R   0.912500 0.551110 0.728680 -0.635289
O22   O     O_R   0.087500 0.448890 0.271320 -0.635964
O23   O     O_R   0.551110 0.087500 0.728680 -0.622602
O24   O     O_R   0.448890 0.912500 0.271320 -0.633743
O25   O     O_R   0.087500 0.448890 0.728680 -0.623190
O26   O     O_R   0.912500 0.551110 0.271320 -0.634738
O27   O     O_R   0.448890 0.912500 0.728680 -0.635637
O28   O     O_R   0.551110 0.087500 0.271320 -0.625306
O29   O     O_R   0.087500 0.551110 0.271320 -0.633792
O30   O     O_R   0.912500 0.448890 0.728680 -0.623641
O31   O     O_R   0.448890 0.087500 0.271320 -0.633053
O32   O     O_R   0.551110 0.912500 0.728680 -0.633760
O33   O     O_R   0.912500 0.448890 0.271320 -0.625338
O34   O     O_R   0.087500 0.551110 0.728680 -0.635980
O35   O     O_R   0.551110 0.912500 0.271320 -0.635824
O36   O     O_R   0.448890 0.087500 0.728680 -0.626414
O37   O     O_R   0.412500 0.051110 0.228680 -0.635917
O38   O     O_R   0.587500 0.948890 0.771320 -0.635306
O39   O     O_R   0.051110 0.587500 0.228680 -0.633624
O40   O     O_R   0.948890 0.412500 0.771320 -0.624118
O41   O     O_R   0.587500 0.948890 0.228680 -0.635093
O42   O     O_R   0.412500 0.051110 0.771320 -0.624484
O43   O     O_R   0.948890 0.412500 0.228680 -0.625480
O44   O     O_R   0.051110 0.587500 0.771320 -0.635228
O45   O     O_R   0.587500 0.051110 0.771320 -0.624747
O46   O     O_R   0.412500 0.948890 0.228680 -0.633980
O47   O     O_R   0.948890 0.587500 0.771320 -0.634034
O48   O     O_R   0.051110 0.412500 0.228680 -0.634827
O49   O     O_R   0.412500 0.948890 0.771320 -0.633943
O50   O     O_R   0.587500 0.051110 0.228680 -0.623620
O51   O     O_R   0.051110 0.412500 0.771320 -0.625974
O52   O     O_R   0.948890 0.587500 0.228680 -0.636027
C57   C     C_1   0.501292 0.999910 0.578470 0.174013
C58   C     C_1   0.498688 0.000086 0.421528 0.173757
C59   C     C_1   0.000092 0.498686 0.578470 0.173135
C60   C     C_1   0.999906 0.501296 0.421531 0.173559
C61   C     C_1   0.001278 0.499853 0.078470 0.173543
C62   C     C_1   0.998666 0.500157 0.921528 0.173143
C63   C     C_1   0.499968 0.000089 0.078496 0.175183
C64   C     C_1   0.499995 0.000033 0.921502 0.174465
C65   C     C_R   0.999996 0.499989 0.651091 0.816697
C66   C     C_R   0.000004 0.500009 0.348909 0.817756
C67   C     C_R   0.500006 0.999990 0.651091 0.816825
C68   C     C_R   0.499993 0.000009 0.348909 0.816806
C69   C     C_R   0.499993 0.000007 0.151100 0.818004
C70   C     C_R   0.500005 1.000000 0.848899 0.815614
C71   C     C_R   0.000009 0.499989 0.151091 0.817836
C72   C     C_R   0.999987 0.500012 0.848909 0.816926
C73   C     C_R   0.915766 0.584237 0.750000 0.851824
C74   C     C_R   0.084232 0.415762 0.250002 0.851164
C75   C     C_R   0.584094 0.084084 0.750004 0.839446
C76   C     C_R   0.415767 0.915774 0.249996 0.854166
C77   C     C_R   0.084091 0.415911 0.749999 0.837827
C78   C     C_R   0.915767 0.584228 0.249998 0.850678
C79   C     C_R   0.415775 0.915764 0.749998 0.850884
C80   C     C_R   0.584080 0.084089 0.250003 0.837476
C81   C     C_R   0.084234 0.584226 0.250004 0.854763
C82   C     C_R   0.915910 0.415915 0.749995 0.839553
C83   C     C_R   0.415763 0.084234 0.250002 0.852727
C84   C     C_R   0.584238 0.915767 0.749996 0.852321
C85   C     C_R   0.915910 0.415903 0.249995 0.837313
C86   C     C_R   0.084229 0.584231 0.750007 0.849611
C87   C     C_R   0.584229 0.915768 0.249999 0.850195
C88   C     C_R   0.415911 0.084091 0.750002 0.835971
C89   C     C_R   0.502222 0.999838 0.538680 -0.190374
C90   C     C_R   0.497746 0.000156 0.461318 -0.190575
C91   C     C_R   0.000243 0.497754 0.538680 -0.190534
C92   C     C_R   0.999757 0.502220 0.461321 -0.191098
C93   C     C_R   0.002190 0.499706 0.038679 -0.191035
C94   C     C_R   0.997726 0.500311 0.961318 -0.190744
C95   C     C_R   0.499963 0.000123 0.038718 -0.194726
C96   C     C_R   0.499975 0.000068 0.961282 -0.194555
C97   C     C_R   0.504044 0.039922 0.519427 0.198037
C98   C     C_R   0.495918 0.960071 0.480571 0.196110
C99   C     C_R   0.039919 0.503890 0.519456 0.196267
C100  C     C_R   0.960080 0.496085 0.480546 0.196975
C101  C     C_R   0.498157 0.959912 0.519403 0.195642
C102  C     C_R   0.501808 0.040081 0.480595 0.196836
C103  C     C_R   0.960324 0.493847 0.519377 0.196930
C104  C     C_R   0.039677 0.506122 0.480625 0.196308
C105  C     C_R   0.006809 0.539559 0.019417 0.196178
C106  C     C_R   0.993096 0.460461 0.980580 0.197785
C107  C     C_R   0.539441 0.007233 0.019448 0.198337
C108  C     C_R   0.460504 0.992912 0.980550 0.197990
C109  C     C_R   0.995332 0.460158 0.019412 0.197162
C110  C     C_R   0.004578 0.539861 0.980585 0.195618
C111  C     C_R   0.460485 0.993019 0.019417 0.198234
C112  C     C_R   0.539432 0.007270 0.980582 0.199209
C113  C     C_R   0.345418 0.885172 0.773450 -0.206144
C114  C     C_R   0.630827 0.137337 0.216918 -0.202958
C115  C     C_R   0.885236 0.654665 0.773418 -0.205491
C116  C     C_R   0.114727 0.345298 0.226631 -0.204725
C117  C     C_R   0.661967 0.106245 0.746536 -0.202141
C118  C     C_R   0.345382 0.885178 0.226529 -0.204096
C119  C     C_R   0.106316 0.338047 0.746472 -0.203990
C120  C     C_R   0.885228 0.654656 0.226618 -0.207831
C121  C     C_R   0.654637 0.885201 0.226590 -0.208488
C122  C     C_R   0.368496 0.136731 0.783178 -0.202670
C123  C     C_R   0.114823 0.654581 0.226548 -0.203877
C124  C     C_R   0.863175 0.368611 0.783124 -0.202578
C125  C     C_R   0.345332 0.114758 0.226595 -0.207371
C126  C     C_R   0.654692 0.885268 0.773372 -0.205175
C127  C     C_R   0.893754 0.337976 0.252820 -0.204134
C128  C     C_R   0.114797 0.654644 0.773441 -0.206265
C129  C     C_R   0.837988 0.393739 0.247131 -0.204134
C130  C     C_R   0.154651 0.614751 0.726629 -0.205557
C131  C     C_R   0.385196 0.154635 0.273445 -0.205058
C132  C     C_R   0.614780 0.845346 0.726578 -0.204680
C133  C     C_R   0.154619 0.614821 0.273469 -0.204169
C134  C     C_R   0.868612 0.363148 0.716824 -0.201328
C135  C     C_R   0.614759 0.845339 0.273387 -0.207603
C136  C     C_R   0.363296 0.131550 0.716851 -0.205919
C137  C     C_R   0.161967 0.393742 0.753538 -0.205211
C138  C     C_R   0.845309 0.614731 0.273352 -0.204592
C139  C     C_R   0.606334 0.161939 0.753477 -0.203012
C140  C     C_R   0.385180 0.845416 0.273448 -0.204318
C141  C     C_R   0.845366 0.614801 0.726564 -0.208352
C142  C     C_R   0.154661 0.385230 0.273406 -0.207631
C143  C     C_R   0.385218 0.845344 0.726566 -0.206795
C144  C     C_R   0.637336 0.130901 0.283087 -0.205845
H33   H     H_    0.342723 0.912888 0.791952 0.218974
H34   H     H_    0.614908 0.127675 0.191477 0.199163
H35   H     H_    0.912959 0.657384 0.791913 0.219312
H36   H     H_    0.086979 0.342551 0.208165 0.218961
H37   H     H_    0.670592 0.072056 0.743102 0.194846
H38   H     H_    0.342693 0.912864 0.208013 0.219577
H39   H     H_    0.072138 0.329381 0.742981 0.195517
H40   H     H_    0.912976 0.657407 0.208172 0.218289
H41   H     H_    0.657368 0.912926 0.208119 0.217897
H42   H     H_    0.383902 0.126600 0.808701 0.198279
H43   H     H_    0.087123 0.657257 0.208028 0.219637
H44   H     H_    0.873207 0.384132 0.808636 0.199839
H45   H     H_    0.342612 0.087033 0.208101 0.218255
H46   H     H_    0.657432 0.913011 0.791845 0.218891
H47   H     H_    0.927986 0.329279 0.255782 0.195036
H48   H     H_    0.087071 0.657376 0.791912 0.219091
H49   H     H_    0.829289 0.427970 0.244174 0.195012
H50   H     H_    0.157362 0.587015 0.708148 0.218883
H51   H     H_    0.412923 0.157365 0.291934 0.219035
H52   H     H_    0.587034 0.842597 0.708111 0.219463
H53   H     H_    0.157307 0.587136 0.291987 0.219537
H54   H     H_    0.884115 0.373180 0.691321 0.200149
H55   H     H_    0.587034 0.842619 0.291861 0.218485
H56   H     H_    0.373410 0.116143 0.691322 0.196205
H57   H     H_    0.170607 0.427928 0.757022 0.194300
H58   H     H_    0.842565 0.586987 0.291802 0.219110
H59   H     H_    0.572157 0.170599 0.756919 0.195082
H60   H     H_    0.412880 0.842739 0.291968 0.219646
H61   H     H_    0.842637 0.587075 0.708072 0.217933
H62   H     H_    0.157415 0.412984 0.291865 0.218254
H63   H     H_    0.412916 0.842645 0.708061 0.218901
H64   H     H_    0.627705 0.115007 0.308529 0.196170
C145  C     C_R   0.313025 0.852732 0.774169 0.281862
C146  C     C_R   0.662022 0.170978 0.216597 0.291644
C147  C     C_R   0.852827 0.687079 0.774121 0.281335
C148  C     C_R   0.147135 0.312884 0.225930 0.282450
C149  C     C_R   0.694679 0.138368 0.745075 0.294745
C150  C     C_R   0.312975 0.852748 0.225816 0.281377
C151  C     C_R   0.138461 0.305371 0.745023 0.294195
C152  C     C_R   0.852799 0.687049 0.225902 0.281889
C153  C     C_R   0.687030 0.852771 0.225875 0.282244
C154  C     C_R   0.337318 0.170373 0.783536 0.293077
C155  C     C_R   0.147252 0.686985 0.225838 0.281324
C156  C     C_R   0.829556 0.337394 0.783457 0.291657
C157  C     C_R   0.312918 0.147165 0.225895 0.282064
C158  C     C_R   0.687105 0.852859 0.774072 0.282435
C159  C     C_R   0.861638 0.305258 0.254262 0.294735
C160  C     C_R   0.147237 0.687042 0.774165 0.281544
C161  C     C_R   0.805268 0.361623 0.245683 0.294710
C162  C     C_R   0.187069 0.647166 0.725931 0.282141
C163  C     C_R   0.352765 0.187026 0.274164 0.282219
C164  C     C_R   0.647210 0.812954 0.725858 0.281618
C165  C     C_R   0.187027 0.647250 0.274181 0.281446
C166  C     C_R   0.837430 0.329494 0.716471 0.292184
C167  C     C_R   0.647169 0.812926 0.274091 0.281382
C168  C     C_R   0.329681 0.162758 0.716508 0.293283
C169  C     C_R   0.194668 0.361622 0.754997 0.294495
C170  C     C_R   0.812896 0.647141 0.274056 0.282079
C171  C     C_R   0.638488 0.194622 0.754921 0.294834
C172  C     C_R   0.352751 0.813010 0.274156 0.281289
C173  C     C_R   0.812974 0.647232 0.725847 0.282352
C174  C     C_R   0.187052 0.352800 0.274125 0.282095
C175  C     C_R   0.352802 0.812922 0.725865 0.281444
C176  C     C_R   0.670978 0.162095 0.283399 0.293251
C177  C     C_R   0.316498 0.816404 0.750019 -0.168165
C178  C     C_R   0.683097 0.183129 0.249996 -0.155498
C179  C     C_R   0.816484 0.683580 0.749982 -0.167969
C180  C     C_R   0.183511 0.316416 0.250031 -0.167827
C181  C     C_R   0.683184 0.183083 0.749988 -0.155230
C182  C     C_R   0.316445 0.816460 0.249984 -0.168530
C183  C     C_R   0.183166 0.316906 0.750015 -0.155441
C184  C     C_R   0.816422 0.683513 0.249977 -0.167939
C185  C     C_R   0.683517 0.816423 0.249981 -0.167882
C186  C     C_R   0.316910 0.183168 0.750026 -0.155309
C187  C     C_R   0.183559 0.683537 0.250010 -0.168565
C188  C     C_R   0.816909 0.316839 0.749959 -0.155275
C189  C     C_R   0.316417 0.183512 0.250032 -0.167983
C190  C     C_R   0.683583 0.816488 0.749962 -0.168025
C191  C     C_R   0.816858 0.316847 0.249973 -0.155036
C192  C     C_R   0.183577 0.683519 0.750053 -0.168050
C193  C     C_R   0.217655 0.717589 0.750053 0.160151
C194  C     C_R   0.782540 0.282535 0.249980 0.145389
C195  C     C_R   0.717658 0.782414 0.749965 0.160428
C196  C     C_R   0.282340 0.217585 0.250032 0.160669
C197  C     C_R   0.782612 0.282506 0.749951 0.145349
C198  C     C_R   0.217630 0.717613 0.250009 0.160677
C199  C     C_R   0.282603 0.217494 0.750034 0.145820
C200  C     C_R   0.717589 0.782345 0.249982 0.161072
C201  C     C_R   0.782344 0.717588 0.249980 0.160752
C202  C     C_R   0.217493 0.282599 0.750028 0.145778
C203  C     C_R   0.282373 0.782383 0.249984 0.160681
C204  C     C_R   0.717510 0.217387 0.749966 0.145122
C205  C     C_R   0.217584 0.282339 0.250031 0.160475
C206  C     C_R   0.782413 0.717659 0.749980 0.160778
C207  C     C_R   0.717418 0.217437 0.249991 0.145561
C208  C     C_R   0.282426 0.782331 0.750021 0.160445
N1    N     N_R   0.010999 0.580124 0.960731 0.251648
O53   O     O_R   0.983755 0.591781 0.934957 -0.316270
O54   O     O_R   0.044246 0.605245 0.968304 -0.261438
N2    N     N_R   0.988914 0.419895 0.039266 0.251196
O55   O     O_R   0.955657 0.394783 0.031704 -0.264556
O56   O     O_R   0.016174 0.408227 0.065024 -0.320084
N3    N     N_R   0.579314 0.015955 0.960811 0.251748
O57   O     O_R   0.592197 0.989809 0.934645 -0.321945
O58   O     O_R   0.603144 0.049877 0.969178 -0.261288
N4    N     N_R   0.420071 0.987233 0.039184 0.253022
O59   O     O_R   0.417148 0.958375 0.065449 -0.325995
O60   O     O_R   0.385867 0.010567 0.030716 -0.254597
N5    N     N_R   0.987838 0.420012 0.960719 0.251954
O61   O     O_R   0.958393 0.416509 0.934950 -0.319073
O62   O     O_R   0.012607 0.386527 0.968286 -0.264981
N6    N     N_R   0.012047 0.580012 0.039277 0.252523
O63   O     O_R   0.987264 0.613486 0.031706 -0.256994
O64   O     O_R   0.041482 0.583530 0.065052 -0.321813
N7    N     N_R   0.420619 0.984200 0.960752 0.251449
O65   O     O_R   0.396681 0.950406 0.969228 -0.262712
O66   O     O_R   0.407842 0.010190 0.934453 -0.317112
N8    N     N_R   0.579840 0.013125 0.039245 0.252483
O67   O     O_R   0.614120 0.989911 0.030759 -0.259560
O68   O     O_R   0.582681 0.041983 0.065537 -0.321064
N9    N     N_R   0.505401 0.080700 0.460751 0.251907
O69   O     O_R   0.477408 0.090435 0.434978 -0.319127
O70   O     O_R   0.536813 0.108078 0.468332 -0.260815
N10   N     N_R   0.494560 0.919293 0.539248 0.251858
O71   O     O_R   0.463143 0.891920 0.531672 -0.260086
O72   O     O_R   0.522554 0.909555 0.565019 -0.317217
N11   N     N_R   0.080226 0.510628 0.460809 0.252499
O73   O     O_R   0.113245 0.485249 0.468398 -0.258717
O74   O     O_R   0.084284 0.539991 0.435053 -0.322170
N12   N     N_R   0.919776 0.489329 0.539193 0.252030
O75   O     O_R   0.886754 0.514706 0.531611 -0.261559
O76   O     O_R   0.915725 0.459958 0.564944 -0.317097
N13   N     N_R   0.493523 0.919359 0.460701 0.252321
O77   O     O_R   0.464414 0.913805 0.434916 -0.320269
O78   O     O_R   0.520575 0.887692 0.468274 -0.257718
N14   N     N_R   0.506431 0.080634 0.539296 0.251806
O79   O     O_R   0.479363 0.112290 0.531730 -0.260909
O80   O     O_R   0.535548 0.086198 0.565074 -0.322121
N15   N     N_R   0.919718 0.490395 0.460648 0.251432
O81   O     O_R   0.894001 0.457602 0.468166 -0.263151
O82   O     O_R   0.908560 0.517857 0.434891 -0.319721
N16   N     N_R   0.080281 0.509589 0.539354 0.251110
O83   O     O_R   0.105995 0.542382 0.531830 -0.263655
O84   O     O_R   0.091439 0.482135 0.565117 -0.318286
N17   N     N_R   0.277443 0.856857 0.800005 0.221967
O85   O     O_R   0.263514 0.895470 0.809664 -0.309079
O86   O     O_R   0.262480 0.822705 0.817370 -0.301019
N18   N     N_R   0.670592 0.193419 0.182486 0.211247
O87   O     O_R   0.673924 0.235906 0.181819 -0.314088
O88   O     O_R   0.668708 0.172237 0.151394 -0.307547
N19   N     N_R   0.856998 0.722704 0.799935 0.221914
O89   O     O_R   0.895628 0.736634 0.809581 -0.304836
O90   O     O_R   0.822865 0.737712 0.817297 -0.301714
N20   N     N_R   0.142932 0.277224 0.200154 0.221656
O91   O     O_R   0.177039 0.262212 0.182759 -0.303062
O92   O     O_R   0.104290 0.263266 0.190572 -0.305374
N21   N     N_R   0.738929 0.125131 0.737212 0.211214
O93   O     O_R   0.762617 0.147222 0.713907 -0.312738
O94   O     O_R   0.753414 0.087613 0.749067 -0.317997
N22   N     N_R   0.277385 0.856842 0.199966 0.222306
O95   O     O_R   0.262396 0.822663 0.182619 -0.300168
O96   O     O_R   0.263474 0.895443 0.190276 -0.303947
N23   N     N_R   0.125258 0.261112 0.737084 0.211429
O97   O     O_R   0.147404 0.237473 0.713776 -0.313329
O98   O     O_R   0.087722 0.246570 0.748870 -0.321565
N24   N     N_R   0.856983 0.722693 0.200136 0.221227
O99   O     O_R   0.822867 0.737681 0.182730 -0.302860
O100  O     O_R   0.895618 0.736660 0.190574 -0.306445
N25   N     N_R   0.722650 0.856925 0.200081 0.221084
O101  O     O_R   0.736603 0.895549 0.190474 -0.311530
O102  O     O_R   0.737631 0.822787 0.182698 -0.303654
N26   N     N_R   0.328097 0.192171 0.817834 0.211406
O103  O     O_R   0.324804 0.234643 0.819054 -0.313087
O104  O     O_R   0.329338 0.170403 0.848644 -0.312733
N27   N     N_R   0.143140 0.722550 0.199987 0.222342
O105  O     O_R   0.104532 0.736465 0.190303 -0.303905
O106  O     O_R   0.177302 0.737506 0.182630 -0.300029
N28   N     N_R   0.807637 0.328275 0.817708 0.211220
O107  O     O_R   0.765164 0.324918 0.818797 -0.313556
O108  O     O_R   0.829288 0.329674 0.848587 -0.308113
N29   N     N_R   0.277291 0.142989 0.200086 0.221393
O109  O     O_R   0.263358 0.104357 0.190447 -0.306163
O110  O     O_R   0.262285 0.177118 0.182720 -0.302634
N30   N     N_R   0.722754 0.857057 0.799857 0.221620
O111  O     O_R   0.737755 0.822947 0.817250 -0.303118
O112  O     O_R   0.736711 0.895697 0.809448 -0.304650
N31   N     N_R   0.874970 0.260881 0.261476 0.210775
O113  O     O_R   0.853231 0.236834 0.284756 -0.314798
O114  O     O_R   0.912289 0.246566 0.249039 -0.319162
N32   N     N_R   0.143100 0.722678 0.799968 0.221928
O115  O     O_R   0.177247 0.737685 0.817347 -0.300541
O116  O     O_R   0.104484 0.736620 0.809585 -0.304723
N33   N     N_R   0.760886 0.374952 0.238465 0.210758
O117  O     O_R   0.736817 0.353189 0.215187 -0.314671
O118  O     O_R   0.746585 0.412286 0.250897 -0.319111
N34   N     N_R   0.222691 0.642993 0.700142 0.221929
O119  O     O_R   0.237685 0.677115 0.682753 -0.301728
O120  O     O_R   0.236629 0.604363 0.690543 -0.303884
N35   N     N_R   0.356919 0.222645 0.299987 0.221792
O121  O     O_R   0.395542 0.236594 0.309631 -0.310013
O122  O     O_R   0.322781 0.237627 0.317355 -0.302234
N36   N     N_R   0.643031 0.777313 0.700060 0.221963
O123  O     O_R   0.677152 0.762322 0.682672 -0.301330
O124  O     O_R   0.604399 0.763351 0.690454 -0.304791
N37   N     N_R   0.222617 0.643157 0.300030 0.222248
O125  O     O_R   0.236527 0.604556 0.309722 -0.304204
O126  O     O_R   0.237607 0.677337 0.317376 -0.300431
N38   N     N_R   0.828317 0.307548 0.682211 0.211824
O127  O     O_R   0.824994 0.265071 0.681109 -0.311294
O128  O     O_R   0.829686 0.329183 0.651338 -0.307032
N39   N     N_R   0.642994 0.777302 0.299877 0.221520
O129  O     O_R   0.604362 0.763369 0.309481 -0.305467
O130  O     O_R   0.677122 0.762299 0.317257 -0.302220
N40   N     N_R   0.307884 0.172004 0.682217 0.210693
O131  O     O_R   0.265414 0.175316 0.681005 -0.315383
O132  O     O_R   0.329648 0.170766 0.651403 -0.315952
N41   N     N_R   0.238915 0.374863 0.762933 0.210654
O133  O     O_R   0.262567 0.352747 0.786249 -0.315281
O134  O     O_R   0.253429 0.412404 0.751137 -0.318677
N42   N     N_R   0.777244 0.642942 0.299813 0.221816
O135  O     O_R   0.762238 0.677052 0.317220 -0.302557
O136  O     O_R   0.763287 0.604302 0.309367 -0.304608
N43   N     N_R   0.625304 0.238894 0.762783 0.211448
O137  O     O_R   0.647455 0.262589 0.786074 -0.312504
O138  O     O_R   0.587781 0.253401 0.750944 -0.320744
N44   N     N_R   0.356865 0.777444 0.300005 0.222232
O139  O     O_R   0.322704 0.762486 0.317362 -0.300398
O140  O     O_R   0.395473 0.763528 0.309686 -0.303876
N45   N     N_R   0.777359 0.643077 0.700025 0.221159
O141  O     O_R   0.763406 0.604453 0.690382 -0.310866
O142  O     O_R   0.762385 0.677214 0.682652 -0.303288
N46   N     N_R   0.222699 0.356990 0.299913 0.221206
O143  O     O_R   0.237688 0.322878 0.317312 -0.302614
O144  O     O_R   0.236668 0.395628 0.309501 -0.306743
N47   N     N_R   0.356925 0.777304 0.700043 0.221911
O145  O     O_R   0.395538 0.763397 0.690377 -0.304399
O146  O     O_R   0.322763 0.762277 0.682697 -0.301108
N48   N     N_R   0.693459 0.170699 0.317507 0.210922
O147  O     O_R   0.735948 0.174016 0.318169 -0.314860
O148  O     O_R   0.672309 0.168863 0.348601 -0.313309

loop_
_geom_bond_atom_site_label_1
_geom_bond_atom_site_label_2
_geom_bond_distance
_ccdc_geom_bond_type
C141  C173  1.400031 A    
C115  H35   1.083178 S    
H5    C21   1.083092 S    
C163  C189  1.417434 A    
N29   O109  1.301467 A    
O38   C84   1.276941 A    
Zn8   O41   1.931560 S    
C157  N29   1.440718 S    
N46   O144  1.301463 A    
C44   C203  1.401929 A    
N33   O117  1.301450 A    
C154  N26   1.438999 S    
C18   C31   1.394546 A    
Zn3   O38   1.931455 S    
H18   C34   1.083191 S    
C24   C201  1.402053 A    
Zn7   O3    1.933773 S    
Zn11  O2    1.933131 S    
C32   C193  1.401951 A    
Zn13  O35   1.931523 S    
C147  N19   1.440714 S    
O50   C80   1.273964 A    
C144  C176  1.400591 A    
C1    C113  1.400266 A    
C109  N2    1.438525 S    
C89   C97   1.410590 A    
C34   C193  1.401929 A    
C45   C206  1.402032 A    
C138  H58   1.083168 S    
Zn10  O27   1.931005 S    
C52   C63   1.203806 T    
O52   C78   1.277390 A    
C148  N20   1.440699 S    
N42   O135  1.301372 A    
N37   O126  1.301371 A    
C169  N41   1.439013 S    
O22   C74   1.276957 A    
C7    C119  1.395536 A    
Zn7   O42   1.931556 S    
C163  N35   1.440720 S    
H28   C44   1.083189 S    
C142  C174  1.400025 A    
N25   O102  1.301373 A    
C118  H38   1.083172 S    
C91   C103  1.410560 A    
N10   O71   1.301275 A    
N5    O62   1.301282 A    
N32   O115  1.301371 A    
O40   C82   1.274077 A    
C122  H42   1.083837 S    
H11   C27   1.083186 S    
O11   C67   1.277274 A    
Zn2   O15   1.907056 S    
Zn3   O45   1.931004 S    
Zn4   O17   1.907018 S    
N22   O96   1.301468 A    
Zn11  O22   1.931455 S    
N18   O88   1.301406 A    
Zn5   O51   1.931523 S    
O45   C75   1.274137 A    
C4    C142  1.400318 A    
C112  N3    1.438213 S    
C151  N23   1.439008 S    
C92   C104  1.410571 A    
C120  C152  1.400037 A    
C31   C194  1.403880 A    
H27   C43   1.083093 S    
C179  C206  1.471643 S    
C166  N38   1.439021 S    
Zn16  O25   1.931560 S    
C150  C182  1.417349 A    
Zn12  O1    1.933135 S    
C133  C165  1.399811 A    
C8    C120  1.400335 A    
Zn14  O11   1.906652 S    
N43   O138  1.301396 A    
N48   O148  1.301394 A    
C120  H40   1.083175 S    
C8    C78   1.474148 S    
C99   C104  1.410692 A    
C100  N15   1.438542 S    
N15   O81   1.301272 A    
C4    C116  1.400324 A    
C158  N30   1.440701 S    
C124  H44   1.083830 S    
C46   C205  1.402047 A    
C10   C136  1.395532 A    
C20   C29   1.393964 A    
C53   C68   1.431244 S    
N36   O124  1.301467 A    
C54   C67   1.431266 S    
O34   C86   1.277104 A    
C18   C207  1.403875 A    
C90   C102  1.410586 A    
C150  N22   1.440735 S    
C107  N8    1.438399 S    
C24   C25   1.393998 A    
H4    C20   1.083183 S    
C116  H36   1.083173 S    
Zn4   O46   1.931005 S    
C11   C123  1.400268 A    
Zn4   O4    1.933135 S    
N26   O103  1.301447 A    
C106  N5    1.438521 S    
C122  C154  1.400833 A    
N9    O69   1.301263 A    
C145  C177  1.417305 A    
C49   C72   1.431248 S    
Zn15  O26   1.931556 S    
C50   C71   1.431264 S    
C47   C208  1.401931 A    
C15   C129  1.395558 A    
C174  N46   1.440709 S    
C3    C115  1.400332 A    
C36   C45   1.393987 A    
C92   C100  1.410620 A    
N4    O59   1.301289 A    
C143  C175  1.399813 A    
C7    C77   1.462975 S    
C3    C141  1.400319 A    
C96   C112  1.410422 A    
C164  N36   1.440710 S    
C40   C41   1.394788 A    
C1    C143  1.400261 A    
N7    O65   1.301277 A    
N39   O130  1.301373 A    
H7    C23   1.083079 S    
H21   C37   1.083190 S    
O44   C86   1.277182 A    
C12   C134  1.395413 A    
N14   O79   1.301275 A    
Zn15  O33   1.930635 S    
O7    C67   1.277220 A    
C156  N28   1.439020 S    
C110  N1    1.438547 S    
C14   C126  1.400325 A    
N27   O105  1.301465 A    
C114  H34   1.083854 S    
O31   C83   1.276975 A    
H2    C18   1.083086 S    
N21   O93   1.301451 A    
C162  C192  1.417308 A    
C157  C189  1.417425 A    
C180  C205  1.471673 S    
N31   O114  1.301409 A    
N41   O133  1.301449 A    
C95   C111  1.410527 A    
C127  C159  1.400587 A    
C58   C90   1.444071 S    
Zn1   O16   1.907056 S    
C25   C200  1.402039 A    
C137  C169  1.400824 A    
C52   C69   1.430662 S    
H24   C40   1.083079 S    
N3    O58   1.301272 A    
N8    O67   1.301274 A    
C141  H61   1.083164 S    
C21   C28   1.394550 A    
H20   C36   1.083186 S    
H12   C28   1.083092 S    
C12   C82   1.462253 S    
N12   O75   1.301273 A    
C165  N37   1.440730 S    
C9    C87   1.474178 S    
C10   C88   1.462947 S    
C4    C74   1.474087 S    
C190  C195  1.471667 S    
C5    C75   1.462404 S    
C10   C122  1.395536 A    
C132  C164  1.400032 A    
Zn11  O29   1.931004 S    
C168  N40   1.439000 S    
C167  C185  1.417431 A    
C1    C79   1.473588 S    
O12   C68   1.277252 A    
C2    C80   1.461983 S    
O6    C66   1.277178 A    
Zn12  O30   1.931005 S    
C152  N24   1.440709 S    
C134  C166  1.400599 A    
C2    C114  1.395326 A    
C117  H37   1.083841 S    
C37   C198  1.401941 A    
O30   C82   1.274129 A    
Zn13  O12   1.906652 S    
C145  N17   1.440738 S    
C178  C207  1.481452 S    
C37   C44   1.393735 A    
C176  C178  1.421003 A    
N1    O54   1.301278 A    
C135  H55   1.083172 S    
C121  H41   1.083164 S    
C184  C201  1.471705 S    
C93   C105  1.410582 A    
N40   O131  1.301445 A    
N22   O95   1.301372 A    
H32   C48   1.083088 S    
C19   C206  1.402030 A    
N7    O66   1.301235 A    
H22   C38   1.083092 S    
N44   O139  1.301370 A    
C192  C193  1.471028 S    
C21   C204  1.403887 A    
C168  C186  1.421067 A    
Zn2   O43   1.931005 S    
C173  N45   1.440714 S    
O37   C83   1.276941 A    
C96   C108  1.410510 A    
H19   C35   1.083181 S    
Zn10  O3    1.933042 S    
C11   C81   1.473581 S    
C94   C110  1.410593 A    
N31   O113  1.301448 A    
H3    C19   1.083185 S    
C12   C124  1.395409 A    
C161  N33   1.439044 S    
C15   C85   1.462672 S    
N6    O64   1.301260 A    
C61   C93   1.444098 S    
C97   C102  1.410679 A    
C99   N16   1.438542 S    
C113  H33   1.083169 S    
N24   O99   1.301373 A    
O28   C80   1.274007 A    
C139  C171  1.400580 A    
C20   C205  1.402040 A    
Zn9   O31   1.931502 S    
O29   C81   1.277224 A    
C140  C172  1.399749 A    
Zn14  O36   1.931527 S    
Zn9   O4    1.933038 S    
C125  C157  1.400026 A    
C53   C58   1.204121 T    
N28   O107  1.301450 A    
N20   O92   1.301466 A    
C186  C199  1.482082 S    
C165  C187  1.417349 A    
C143  H63   1.083177 S    
N30   O111  1.301374 A    
N17   O86   1.301370 A    
C2    C144  1.395327 A    
C164  C190  1.417448 A    
C131  H51   1.083167 S    
C34   C47   1.393720 A    
C132  H52   1.083174 S    
C97   N14   1.438542 S    
C5    C139  1.395448 A    
Zn5   O1    1.933838 S    
N38   O127  1.301448 A    
Zn3   O18   1.907018 S    
C51   C64   1.203801 T    
C64   C96   1.443401 S    
C147  C179  1.417434 A    
C187  C198  1.471021 S    
C129  H49   1.083851 S    
C49   C62   1.204123 T    
C118  C150  1.399808 A    
C41   C202  1.403984 A    
Zn7   O14   1.906693 S    
C154  C186  1.421070 A    
C43   C204  1.403875 A    
Zn8   O4    1.933773 S    
C36   C195  1.402047 A    
C151  C183  1.421073 A    
C105  C110  1.410684 A    
O10   C66   1.277340 A    
O15   C71   1.277206 A    
N23   O98   1.301409 A    
H23   C39   1.083184 S    
N13   O78   1.301287 A    
C26   C199  1.403986 A    
C133  H53   1.083177 S    
C56   C65   1.431249 S    
Zn3   O3    1.933131 S    
Zn16  O5    1.906693 S    
N2    O55   1.301275 A    
C101  N10   1.438560 S    
N42   O136  1.301464 A    
N37   O125  1.301468 A    
C22   C27   1.393737 A    
C144  H64   1.083841 S    
H13   C29   1.083186 S    
Zn6   O52   1.931527 S    
H6    C22   1.083189 S    
N25   O101  1.301463 A    
C171  N43   1.439028 S    
N47   O145  1.301466 A    
C16   C130  1.400266 A    
C126  H46   1.083170 S    
N10   O72   1.301265 A    
N5    O61   1.301269 A    
C146  C178  1.421005 A    
C170  N42   1.440703 S    
H25   C41   1.083083 S    
O41   C87   1.277410 A    
Zn6   O2    1.933837 S    
O42   C88   1.274342 A    
Zn10  O7    1.907056 S    
N27   O106  1.301374 A    
Zn16  O34   1.930634 S    
C38   C43   1.394563 A    
Zn12  O9    1.907018 S    
H29   C45   1.083186 S    
N11   O73   1.301277 A    
H31   C47   1.083191 S    
C162  N34   1.440718 S    
N34   O119  1.301373 A    
O20   C72   1.277319 A    
H17   C33   1.083095 S    
O26   C78   1.277373 A    
C22   C203  1.401939 A    
C55   C66   1.431267 S    
C153  C185  1.417434 A    
C16   C128  1.400249 A    
C175  N47   1.440735 S    
C188  C197  1.481460 S    
H15   C31   1.083091 S    
C42   C201  1.402042 A    
H8    C24   1.083182 S    
C6    C140  1.400269 A    
C170  C184  1.417434 A    
N33   O118  1.301409 A    
N39   O129  1.301464 A    
C119  H39   1.083845 S    
Zn2   O48   1.931498 S    
N29   O110  1.301372 A    
C181  C204  1.481457 S    
C14   C84   1.474083 S    
N46   O143  1.301376 A    
O33   C85   1.274161 A    
C138  C170  1.400034 A    
O23   C75   1.274151 A    
C113  C145  1.399748 A    
O24   C76   1.277159 A    
H10   C26   1.083079 S    
C152  C184  1.417445 A    
O36   C88   1.274317 A    
C59   C91   1.444073 S    
C104  N11   1.438549 S    
C156  C188  1.420978 A    
O19   C71   1.277292 A    
Zn4   O37   1.931451 S    
H14   C30   1.083185 S    
C33   C48   1.394553 A    
Zn5   O40   1.930649 S    
O17   C69   1.277091 A    
Zn12  O21   1.931451 S    
C173  C179  1.417426 A    
C35   C46   1.393990 A    
O25   C77   1.274315 A    
C23   C202  1.403981 A    
Zn14  O23   1.930648 S    
N26   O104  1.301411 A    
C3    C73   1.474111 S    
C155  C187  1.417317 A    
C171  C181  1.420959 A    
C63   C95   1.443365 S    
O32   C84   1.276961 A    
Zn11  O10   1.907018 S    
C128  H48   1.083176 S    
N4    O60   1.301231 A    
H26   C42   1.083186 S    
C13   C131  1.400318 A    
C103  N12   1.438551 S    
C182  C203  1.471023 S    
O14   C70   1.277033 A    
C27   C198  1.401927 A    
H30   C46   1.083186 S    
C29   C196  1.402024 A    
N45   O142  1.301375 A    
Zn15  O2    1.933773 S    
C166  C188  1.420985 A    
N3    O57   1.301268 A    
C90   C98   1.410613 A    
N14   O80   1.301257 A    
Zn9   O28   1.931004 S    
C169  C183  1.421064 A    
C111  N4    1.438365 S    
C91   C99   1.410615 A    
N18   O87   1.301450 A    
C23   C26   1.394797 A    
C6    C76   1.473579 S    
N19   O89   1.301464 A    
C160  C192  1.417353 A    
C148  C180  1.417437 A    
C189  C196  1.471639 S    
C16   C86   1.473564 S    
C159  N31   1.439037 S    
C136  C168  1.400817 A    
N16   O83   1.301275 A    
O5    C65   1.277179 A    
H16   C32   1.083186 S    
O16   C72   1.277168 A    
N8    O68   1.301236 A    
Zn9   O8    1.907056 S    
C161  C191  1.420942 A    
C54   C57   1.204126 T    
O9    C65   1.277332 A    
Zn1   O47   1.931502 S    
N12   O76   1.301265 A    
Zn6   O19   1.906652 S    
C95   C107  1.410511 A    
N48   O147  1.301452 A    
C39   C42   1.393981 A    
C136  H56   1.083838 S    
C137  H57   1.083846 S    
C167  N39   1.440713 S    
O51   C77   1.274356 A    
O46   C76   1.277224 A    
C50   C61   1.204129 T    
C119  C151  1.400824 A    
N36   O123  1.301372 A    
O47   C73   1.276944 A    
C15   C127  1.395555 A    
N16   O84   1.301259 A    
C13   C125  1.400335 A    
N35   O122  1.301372 A    
O21   C73   1.276971 A    
C158  C190  1.417428 A    
H1    C17   1.083190 S    
Zn14  O3    1.933837 S    
N1    O53   1.301275 A    
O43   C85   1.274182 A    
C98   N13   1.438567 S    
N40   O132  1.301410 A    
C177  C208  1.470993 S    
O39   C81   1.277158 A    
O13   C69   1.277093 A    
Zn10  O32   1.931498 S    
N9    O70   1.301273 A    
C40   C199  1.403979 A    
C7    C137  1.395556 A    
N44   O140  1.301466 A    
Zn16  O1    1.933773 S    
C134  H54   1.083836 S    
C55   C60   1.204127 T    
C56   C59   1.204120 T    
C14   C132  1.400317 A    
Zn13  O24   1.930649 S    
C149  N21   1.439026 S    
N11   O74   1.301259 A    
N23   O97   1.301449 A    
C9    C121  1.400331 A    
Zn8   O50   1.930634 S    
C108  C111  1.410304 A    
C127  H47   1.083854 S    
O48   C74   1.276946 A    
C102  N9    1.438549 S    
C6    C118  1.400254 A    
C17   C32   1.393744 A    
C115  C147  1.400038 A    
N28   O108  1.301416 A    
C116  C148  1.400023 A    
C38   C197  1.403885 A    
C19   C30   1.393966 A    
C149  C181  1.420959 A    
O35   C87   1.277366 A    
C183  C202  1.482090 S    
N21   O94   1.301399 A    
N30   O112  1.301465 A    
N41   O134  1.301411 A    
C185  C200  1.471675 S    
C94   C106  1.410543 A    
C172  N44   1.440729 S    
C30   C195  1.402038 A    
C160  N32   1.440729 S    
C142  H62   1.083168 S    
C105  N6    1.438550 S    
N38   O128  1.301417 A    
Zn1   O1    1.933038 S    
O27   C79   1.277169 A    
C153  N25   1.440717 S    
C51   C70   1.430639 S    
C89   C101  1.410606 A    
N45   O141  1.301461 A    
H9    C25   1.083186 S    
C174  C180  1.417436 A    
C146  N18   1.439028 S    
C175  C177  1.417343 A    
C121  C153  1.400050 A    
N15   O82   1.301264 A    
C131  C163  1.400038 A    
O8    C68   1.277235 A    
C93   C109  1.410584 A    
N43   O137  1.301451 A    
Zn7   O49   1.930635 S    
C159  C191  1.420957 A    
C62   C94   1.444079 S    
C98   C101  1.410704 A    
C128  C160  1.399808 A    
C48   C207  1.403883 A    
C135  C167  1.400044 A    
C129  C161  1.400567 A    
C9    C135  1.400352 A    
N13   O77   1.301257 A    
C123  C155  1.399748 A    
C176  N48   1.439035 S    
C124  C156  1.400570 A    
N2    O56   1.301269 A    
C114  C146  1.400581 A    
Zn5   O20   1.906652 S    
C107  C112  1.410269 A    
C108  N7    1.438362 S    
C8    C138  1.400338 A    
C33   C194  1.403875 A    
O18   C70   1.277132 A    
C130  H50   1.083173 S    
C28   C197  1.403869 A    
C13   C83   1.474109 S    
C35   C196  1.402033 A    
N24   O100  1.301466 A    
O49   C79   1.277128 A    
C17   C208  1.401923 A    
N32   O116  1.301465 A    
N47   O146  1.301369 A    
C172  C182  1.417315 A    
C155  N27   1.440729 S    
C139  H59   1.083842 S    
C191  C194  1.481456 S    
C140  H60   1.083182 S    
Zn13  O4    1.933838 S    
C125  H45   1.083170 S    
N35   O121  1.301463 A    
C130  C162  1.399737 A    
Zn8   O13   1.906693 S    
N19   O90   1.301371 A    
C106  C109  1.410689 A    
N17   O85   1.301464 A    
C100  C103  1.410698 A    
N6    O63   1.301283 A    
C126  C158  1.400013 A    
N34   O120  1.301465 A    
Zn15  O6    1.906693 S    
C57   C89   1.444083 S    
C11   C133  1.400253 A    
C60   C92   1.444083 S    
C123  H43   1.083177 S    
C39   C200  1.402033 A    
Zn2   O2    1.933042 S    
N20   O91   1.301372 A    
Zn1   O44   1.931004 S    
C5    C117  1.395473 A    
Zn6   O39   1.930648 S    
C117  C149  1.400598 A    
