data_mof_unit_28289.cif
_audit_creation_date              2012-12-10T18:57:42-0500
_audit_creation_method            fapswitch 2.2
_symmetry_space_group_name_H-M    P1
_symmetry_Int_Tables_number       1
_space_group_crystal_system       triclinic
_cell_length_a                    10.931682
_cell_length_b                    10.838301
_cell_length_c                    9.552107
_cell_angle_alpha                 90.165175
_cell_angle_beta                  89.881822
_cell_angle_gamma                 90.294936
_cell_volume                      1131.71978171

loop_
_atom_site_label
_atom_site_type_symbol
_atom_type_description
_atom_site_fract_x
_atom_site_fract_y
_atom_site_fract_z
_atom_type_partial_charge
C1    C     C_R   0.498190 0.262500 0.499813 0.832236
C2    C     C_R   0.486335 0.129701 0.499573 -0.159709
C3    C     C_R   0.459434 0.065509 0.375408 -0.302167
C4    C     C_R   0.455385 0.936369 0.374276 0.474156
C5    C     C_R   0.481832 0.870960 0.499046 -0.198512
C6    C     C_R   0.489459 0.937125 0.624373 0.009536
C7    C     C_3   0.577424 0.928147 0.743380 -0.440160
C8    C     C_3   0.583560 0.068655 0.742691 -0.010234
C9    C     C_R   0.606058 0.518088 0.073490 0.257353
C10   C     C_R   0.397625 0.469992 0.074355 -0.083926
C11   C     C_R   0.397583 0.470124 0.925850 -0.086875
C12   C     C_R   0.265333 0.498199 0.500168 0.836327
C13   C     C_R   0.606281 0.517122 0.926197 0.262230
C14   C     C_3   0.688797 0.626737 0.920025 -0.511578
C15   C     C_3   0.687221 0.628929 0.078905 -0.488158
C16   C     C_R   0.496340 0.737731 0.499818 0.823561
C17   C     C_R   0.734655 0.501276 0.500016 0.841920
C18   C     C_2   0.933184 0.491034 0.385669 -0.159879
C19   C     C_2   0.866671 0.507735 0.502065 -0.318372
C20   C     C_2   0.067085 0.497793 0.385184 -0.167511
C21   C     C_2   0.133307 0.491149 0.502753 -0.318677
C22   C     C_R   0.493708 0.063838 0.624258 0.101341
Cu1   Cu    Cu3+1 0.499990 0.499980 0.640670 0.931939
Cu2   Cu    Cu3+1 0.500010 0.500020 0.359330 0.952393
H1    H     H_    0.888675 0.473546 0.286015 0.156206
H2    H     H_    0.314146 0.446737 0.129072 0.135333
H3    H     H_    0.314053 0.447101 0.871323 0.141208
H4    H     H_    0.779908 0.603685 0.875472 0.189389
H5    H     H_    0.643950 0.707597 0.872368 0.215517
H6    H     H_    0.777836 0.608425 0.125433 0.184619
H7    H     H_    0.640538 0.711150 0.123409 0.244358
H8    H     H_    0.907708 0.529194 0.602275 0.139821
H9    H     H_    0.111826 0.506237 0.283979 0.154041
H10   H     H_    0.091971 0.477029 0.604527 0.142731
H11   H     H_    0.446199 0.114462 0.277910 0.181209
H12   H     H_    0.532520 0.891279 0.839131 0.186750
H13   H     H_    0.663928 0.881404 0.712891 0.195503
H14   H     H_    0.544445 0.111259 0.838822 0.167838
N1    N     N_R   0.500780 0.500930 0.147930 -0.179040
N2    N     N_R   0.500780 0.500890 0.852020 -0.183668
O1    O     O_R   0.500000 0.319640 0.618810 -0.583820
O2    O     O_R   0.500010 0.319680 0.381230 -0.587313
O3    O     O_R   0.321940 0.499980 0.618760 -0.595857
O4    O     O_R   0.321950 0.500020 0.381180 -0.592301
O5    O     O_R   0.499990 0.680320 0.618770 -0.581775
O6    O     O_R   0.500000 0.680360 0.381190 -0.531163
O7    O     O_R   0.678050 0.499980 0.618820 -0.592398
O8    O     O_R   0.678060 0.500020 0.381240 -0.581296
C23   C     C_3   0.710282 0.119144 0.703037 -0.835072
H15   H     H_    0.742025 0.080371 0.601468 0.237555
H16   H     H_    0.707559 0.221169 0.695143 0.244974
H17   H     H_    0.777072 0.094494 0.785629 0.230293
O9    O     O_3   0.438730 0.876147 0.248001 -0.567902
C24   C     C_3   0.312181 0.859095 0.227117 -0.301165
H18   H     H_    0.270590 0.802640 0.312256 0.155849
H19   H     H_    0.298536 0.808193 0.127383 0.186124
H20   H     H_    0.264313 0.949120 0.218051 0.146219

loop_
_geom_bond_atom_site_label_1
_geom_bond_atom_site_label_2
_ccdc_geom_bond_type
C16   O5    A    
C2    C22   A    
C8    C22   S    
Cu1   Cu2   S    
C15   H7    S    
C6    C7    S    
Cu1   O5    S    
C11   H3    S    
C4    O9    S    
Cu2   O2    S    
C7    H12   S    
Cu1   O1    S    
C17   O8    A    
C3    H11   S    
C23   H17   S    
Cu2   O6    S    
C10   H2    S    
C23   H16   S    
C2    C3    A    
C7    H13   S    
C7    C8    S    
C12   O4    A    
C13   C14   S    
C11   N2    A    
C18   H1    S    
C8    H14   S    
C19   H8    S    
C12   C21   S    
C1    O1    A    
C17   C19   S    
C18   C19   D    
C12   O3    A    
C18   C20   S    
C9    C15   S    
C5    C6    A    
Cu2   O4    S    
C24   H19   S    
Cu1   O7    S    
C10   C11   A    
C20   H9    S    
C14   H5    S    
C3    C4    A    
Cu2   O8    S    
C17   O7    A    
C1    O2    A    
C9    N1    A    
Cu2   N1    S    
Cu1   O3    S    
C20   C21   D    
C15   H6    S    
C1    C2    S    
C16   O6    A    
C23   H15   S    
C9    C13   A    
C14   C15   S    
C4    C5    A    
C13   N2    A    
C21   H10   S    
C14   H4    S    
C24   H18   S    
C8    C23   S    
Cu1   N2    S    
O9    C24   S    
C10   N1    A    
C5    C16   S    
C24   H20   S    
C6    C22   A    
