data_mof_unit_8760.cif
_audit_creation_date              2012-12-10T17:01:37-0500
_audit_creation_method            fapswitch 2.2
_symmetry_space_group_name_H-M    P1
_symmetry_Int_Tables_number       1
_space_group_crystal_system       triclinic
_cell_length_a                    19.928825
_cell_length_b                    22.63843
_cell_length_c                    15.127161
_cell_angle_alpha                 89.655865
_cell_angle_beta                  90.573875
_cell_angle_gamma                 89.956292
_cell_volume                      6824.26152612

loop_
_atom_site_label
_atom_site_type_symbol
_atom_type_description
_atom_site_fract_x
_atom_site_fract_y
_atom_site_fract_z
_atom_type_partial_charge
C1    C     C_R   0.372144 0.886345 0.486044 0.496616
C2    C     C_R   0.281290 0.743154 0.515078 -0.044477
C3    C     C_3   0.915913 0.817475 0.617214 -0.282338
C4    C     C_3   0.971001 0.864070 0.623252 -0.481197
C5    C     C_3   0.818086 0.182833 0.725979 0.024069
C6    C     C_3   0.797306 0.243078 0.763261 -0.287665
C7    C     C_3   0.769177 0.236389 0.856311 -0.496853
C8    C     C_3   0.668815 0.843668 0.735025 0.029401
C9    C     C_3   0.651745 0.887659 0.807556 -0.253333
C10   C     C_3   0.608280 0.859360 0.878716 -0.492945
C11   C     C_3   0.789969 0.060645 0.543158 0.015668
C12   C     C_3   0.786355 0.994722 0.564976 -0.234072
C13   C     C_R   0.772510 0.750329 0.535047 -0.049647
C14   C     C_3   0.821909 0.957977 0.495153 -0.484035
C15   C     C_3   0.177732 0.352437 0.732871 0.028656
C16   C     C_3   0.162490 0.399270 0.802250 -0.251804
C17   C     C_3   0.120946 0.373672 0.877598 -0.493968
C18   C     C_3   0.295486 0.554849 0.493882 0.027165
C19   C     C_3   0.304304 0.489924 0.519722 -0.247773
C20   C     C_3   0.344360 0.456313 0.450884 -0.502886
C21   C     C_3   0.585794 0.783829 0.380132 0.003297
C22   C     C_3   0.538959 0.810781 0.310113 -0.255510
C23   C     C_3   0.469226 0.783143 0.313041 -0.475336
C24   C     C_R   0.775056 0.246987 0.532062 -0.050856
C25   C     C_3   0.629210 0.197532 0.332310 -0.001075
C26   C     C_3   0.570768 0.210518 0.269183 -0.258180
C27   C     C_3   0.585438 0.188320 0.176206 -0.495671
C28   C     C_3   0.078011 0.274991 0.398253 0.000842
C29   C     C_3   0.024363 0.297495 0.333406 -0.248858
C30   C     C_3   0.957742 0.265520 0.346217 -0.480075
C31   C     C_3   0.071539 0.727612 0.408943 0.009841
C32   C     C_3   0.996918 0.743483 0.407306 -0.252249
C33   C     C_3   0.964000 0.728841 0.318673 -0.485978
C34   C     C_3   0.382043 0.076521 0.125201 0.052483
C35   C     C_R   0.319538 0.205165 0.538581 -0.164377
C36   C     C_3   0.409124 0.119400 0.194898 -0.264210
C37   C     C_3   0.387567 0.182825 0.175046 -0.488253
C38   C     C_3   0.860811 0.543412 0.123402 0.052277
C39   C     C_3   0.885144 0.599537 0.170527 -0.262792
C40   C     C_3   0.841586 0.652621 0.145184 -0.466792
C41   C     C_3   0.663804 0.938225 0.175439 0.018273
C42   C     C_3   0.724581 0.932101 0.237296 -0.234394
C43   C     C_3   0.757614 0.871525 0.229025 -0.472995
C44   C     C_3   0.165715 0.448812 0.173119 0.018844
C45   C     C_3   0.224915 0.443292 0.237520 -0.243182
C46   C     C_R   0.332140 0.785259 0.508947 -0.167849
C47   C     C_3   0.254334 0.380970 0.236835 -0.482110
C48   C     C_3   0.356161 0.909565 0.041920 0.042976
C49   C     C_3   0.335903 0.862088 0.975019 -0.296359
C50   C     C_3   0.338019 0.800585 0.016814 -0.488621
C51   C     C_3   0.896154 0.376393 0.030757 0.027628
C52   C     C_3   0.906773 0.334120 0.953187 -0.293053
C53   C     C_3   0.929104 0.273212 0.985644 -0.491588
C54   C     C_R   0.817899 0.703535 0.541745 -0.170824
C55   C     C_R   0.823896 0.291083 0.534789 -0.173488
C56   C     C_R   0.275505 0.162369 0.401601 0.248462
C57   C     C_R   0.250246 0.861252 0.471972 0.242729
C58   C     C_R   0.778535 0.664754 0.401004 0.250208
C59   C     C_R   0.372387 0.114263 0.484340 0.502604
C60   C     C_R   0.760711 0.350092 0.426827 0.256200
C61   C     C_R   0.231549 0.211150 0.394122 -0.126234
C62   C     C_R   0.199172 0.819236 0.476626 -0.097933
C63   C     C_R   0.737234 0.714363 0.390474 -0.114617
C64   C     C_R   0.708910 0.308206 0.430810 -0.118222
C65   C     C_R   0.521159 0.002443 0.162192 -0.005388
C66   C     C_R   0.020528 0.501952 0.162057 -0.005444
C67   C     C_R   0.476817 0.998964 0.833547 0.008481
C68   C     C_R   0.976524 0.498344 0.833480 0.007607
C69   C     C_R   0.411240 0.982815 0.965117 0.280839
C70   C     C_R   0.871961 0.386074 0.485602 0.511934
C71   C     C_R   0.918674 0.465393 0.964285 0.277901
C72   C     C_R   0.414570 0.986543 0.872598 0.012713
C73   C     C_R   0.919270 0.472923 0.872212 0.010829
C74   C     C_R   0.534394 0.007130 0.884616 -0.157827
C75   C     C_R   0.031461 0.515509 0.884778 -0.158393
C76   C     C_R   0.627442 0.113204 0.514915 0.580738
C77   C     C_R   0.627849 0.887007 0.516269 0.566972
C78   C     C_R   0.127843 0.613187 0.515436 0.558138
C79   C     C_R   0.127818 0.387097 0.516328 0.575819
C80   C     C_R   0.531793 0.005340 0.976889 -0.077252
C81   C     C_R   0.872502 0.614208 0.484578 0.499261
C82   C     C_R   0.030129 0.510362 0.976941 -0.078652
C83   C     C_R   0.468596 0.997291 0.017099 -0.017768
C84   C     C_R   0.970178 0.490796 0.016688 -0.014757
C85   C     C_R   0.463257 0.005802 0.108596 0.209288
C86   C     C_R   0.962807 0.496282 0.108479 0.209381
C87   C     C_R   0.585127 0.002082 0.122190 0.203473
C88   C     C_R   0.083854 0.509726 0.121917 0.209822
C89   C     C_R   0.590536 0.010680 0.030057 0.009355
C90   C     C_R   0.087734 0.521042 0.030282 0.009418
C91   C     C_R   0.514647 0.000579 0.259454 0.515686
C92   C     C_R   0.731970 0.756042 0.458080 -0.048547
C93   C     C_R   0.014533 0.500181 0.259415 0.522689
C94   C     C_R   0.484347 0.999796 0.738654 0.498061
C95   C     C_R   0.984303 0.499722 0.738650 0.499221
C96   C     C_R   0.321271 0.161021 0.474234 0.019120
C97   C     C_R   0.317315 0.843714 0.486612 0.014108
C98   C     C_R   0.821969 0.661156 0.475174 0.011235
C99   C     C_R   0.817870 0.341931 0.481889 0.016161
C100  C     C_R   0.678500 0.841318 0.522034 0.007133
C101  C     C_R   0.678562 0.158246 0.519237 0.008609
C102  C     C_R   0.178350 0.341495 0.521785 0.006754
C103  C     C_R   0.717187 0.255615 0.478672 -0.052329
C104  C     C_R   0.179654 0.658332 0.518905 0.012118
C105  C     C_R   0.767506 0.791599 0.603945 0.256212
C106  C     C_R   0.783452 0.194235 0.581066 0.260461
C107  C     C_R   0.271787 0.295058 0.598982 0.256926
C108  C     C_R   0.296734 0.684811 0.540428 0.253059
C109  C     C_R   0.716633 0.834563 0.599966 0.189527
C110  C     C_R   0.737505 0.147897 0.568162 0.195992
C111  C     C_R   0.220790 0.337947 0.596100 0.187893
C112  C     C_R   0.246426 0.641397 0.536426 0.204917
C113  C     C_R   0.685600 0.802404 0.451127 0.188792
C114  C     C_R   0.229033 0.254340 0.459722 -0.049199
C115  C     C_R   0.668873 0.210911 0.472220 0.191567
C116  C     C_R   0.181302 0.299760 0.454224 0.187359
C117  C     C_R   0.162814 0.717626 0.501086 0.191861
C118  C     C_3   0.658843 0.024827 0.990634 -0.252002
C119  C     C_3   0.663255 0.089716 0.962758 -0.437137
C120  C     C_3   0.153958 0.541589 0.991200 -0.253661
C121  C     C_3   0.151792 0.607460 0.968822 -0.431605
C122  C     C_3   0.351409 0.979395 0.816568 -0.264482
C123  C     C_3   0.322093 0.039473 0.791229 -0.435264
C124  C     C_3   0.859326 0.453386 0.816414 -0.266943
C125  C     C_R   0.213994 0.760069 0.497506 -0.047962
C126  C     C_3   0.820634 0.506371 0.779140 -0.439222
C127  C     C_3   0.226336 0.115608 0.274803 0.007010
C128  C     C_3   0.156885 0.097990 0.309764 -0.278702
C129  C     C_3   0.101468 0.114263 0.243713 -0.489177
C130  C     C_3   0.225508 0.951686 0.527716 0.013048
C131  C     C_3   0.203061 0.014071 0.502275 -0.248334
C132  C     C_3   0.204734 0.055856 0.580901 -0.486550
C133  C     C_3   0.717634 0.591759 0.331126 0.000777
C134  C     C_3   0.710185 0.546988 0.407012 -0.238250
C135  C     C_3   0.643297 0.514420 0.400924 -0.473539
C136  C     C_R   0.273647 0.251505 0.532799 -0.048743
C137  C     C_3   0.726567 0.391422 0.289619 0.014606
C138  C     C_3   0.764421 0.345580 0.234168 -0.269027
C139  C     C_3   0.730372 0.337378 0.144229 -0.490855
C140  C     C_3   0.364246 0.338475 0.663238 0.017952
C141  C     C_3   0.423175 0.319786 0.605194 -0.279468
C142  C     C_3   0.477859 0.366915 0.603746 -0.484657
C143  C     C_3   0.366357 0.662682 0.658113 0.021470
C144  C     C_3   0.385856 0.721082 0.702294 -0.278128
C145  C     C_3   0.398052 0.712921 0.801351 -0.492999
C146  C     C_3   0.857320 0.831912 0.678738 0.016173
H1    H     H_    0.353732 0.202767 0.594575 0.184279
H2    H     H_    0.148035 0.833397 0.463878 0.155956
H3    H     H_    0.875849 0.970052 0.492357 0.133247
H4    H     H_    0.207431 0.316342 0.764808 0.165893
H5    H     H_    0.129199 0.334060 0.708075 0.142716
H6    H     H_    0.210384 0.416892 0.829577 0.160491
H7    H     H_    0.134301 0.436350 0.770774 0.180595
H8    H     H_    0.071116 0.359105 0.852450 0.156256
H9    H     H_    0.113234 0.407822 0.928771 0.147074
H10   H     H_    0.147363 0.335553 0.908769 0.137668
H11   H     H_    0.346034 0.574648 0.484919 0.171236
H12   H     H_    0.267148 0.557373 0.430031 0.142363
H13   H     H_    0.624075 0.101302 0.913032 0.157506
H14   H     H_    0.330864 0.486849 0.584555 0.166721
H15   H     H_    0.254194 0.469118 0.526667 0.213480
H16   H     H_    0.320840 0.461547 0.384579 0.144622
H17   H     H_    0.345546 0.408604 0.468291 0.147854
H18   H     H_    0.396652 0.473149 0.448676 0.141787
H19   H     H_    0.562473 0.789815 0.446191 0.140429
H20   H     H_    0.591180 0.735688 0.367702 0.120870
H21   H     H_    0.534479 0.859110 0.321505 0.168696
H22   H     H_    0.560535 0.803979 0.243449 0.149114
H23   H     H_    0.472256 0.734924 0.300515 0.143388
H24   H     H_    0.657189 0.118550 0.021298 0.156503
H25   H     H_    0.436671 0.803773 0.261438 0.145011
H26   H     H_    0.446255 0.790608 0.378551 0.153263
H27   H     H_    0.638384 0.149026 0.333398 0.160389
H28   H     H_    0.674733 0.220159 0.306449 0.119432
H29   H     H_    0.524783 0.188625 0.294231 0.168840
H30   H     H_    0.561694 0.258956 0.266446 0.161116
H31   H     H_    0.631281 0.209802 0.149986 0.142880
H32   H     H_    0.542632 0.199131 0.131456 0.143962
H33   H     H_    0.592662 0.139642 0.177006 0.169055
H34   H     H_    0.059645 0.282250 0.466750 0.144575
H35   H     H_    0.713169 0.098494 0.933476 0.127323
H36   H     H_    0.085121 0.226743 0.388548 0.124653
H37   H     H_    0.016697 0.345640 0.343578 0.168160
H38   H     H_    0.041554 0.290679 0.264518 0.154213
H39   H     H_    0.963609 0.217648 0.332537 0.140567
H40   H     H_    0.919432 0.284111 0.300021 0.138616
H41   H     H_    0.939951 0.271245 0.414944 0.159797
H42   H     H_    0.077326 0.681128 0.386645 0.131027
H43   H     H_    0.098513 0.757275 0.362290 0.121839
H44   H     H_    0.970810 0.718589 0.460304 0.196497
H45   H     H_    0.990962 0.791442 0.420514 0.152448
H46   H     H_    0.700377 0.016899 0.038563 0.179788
H47   H     H_    0.988861 0.753428 0.264357 0.143260
H48   H     H_    0.910214 0.741656 0.320088 0.151113
H49   H     H_    0.967274 0.680655 0.305877 0.146098
H50   H     H_    0.326479 0.078362 0.124835 0.151085
H51   H     H_    0.397481 0.091337 0.057913 0.120030
H52   H     H_    0.390728 0.106203 0.261054 0.235868
H53   H     H_    0.464699 0.117371 0.196330 0.140871
H54   H     H_    0.408760 0.197834 0.111114 0.140204
H55   H     H_    0.406246 0.212329 0.228229 0.149636
H56   H     H_    0.332068 0.186204 0.171710 0.147294
H57   H     H_    0.669637 0.995425 0.934141 0.115892
H58   H     H_    0.808416 0.534454 0.143954 0.149237
H59   H     H_    0.858664 0.551126 0.050741 0.133945
H60   H     H_    0.883529 0.592625 0.243133 0.235461
H61   H     H_    0.937773 0.609503 0.152106 0.133832
H62   H     H_    0.846049 0.662275 0.073404 0.134720
H63   H     H_    0.858364 0.691997 0.182707 0.157332
H64   H     H_    0.788139 0.643919 0.160649 0.169135
H65   H     H_    0.678180 0.923700 0.107962 0.110332
H66   H     H_    0.623265 0.908707 0.200292 0.136718
H67   H     H_    0.762172 0.966684 0.221162 0.156357
H68   H     H_    0.110908 0.617803 0.920886 0.157108
H69   H     H_    0.708310 0.938599 0.306611 0.207945
H70   H     H_    0.780828 0.867076 0.162946 0.129303
H71   H     H_    0.720161 0.835773 0.237569 0.195998
H72   H     H_    0.797365 0.866456 0.280502 0.148209
H73   H     H_    0.182628 0.436130 0.105840 0.110166
H74   H     H_    0.125904 0.417382 0.194835 0.136807
H75   H     H_    0.264569 0.475423 0.218930 0.151909
H76   H     H_    0.207798 0.453739 0.305366 0.207246
H77   H     H_    0.274886 0.370882 0.170629 0.132602
H78   H     H_    0.215239 0.347915 0.253284 0.198754
H79   H     H_    0.143766 0.633452 0.029881 0.160607
H80   H     H_    0.295517 0.377365 0.286507 0.146068
H81   H     H_    0.320960 0.907562 0.098343 0.177983
H82   H     H_    0.406877 0.899292 0.069847 0.124062
H83   H     H_    0.284176 0.871037 0.950263 0.162819
H84   H     H_    0.370748 0.863113 0.918136 0.152860
H85   H     H_    0.389802 0.789850 0.039595 0.142658
H86   H     H_    0.322095 0.767322 0.967249 0.146850
H87   H     H_    0.303446 0.798154 0.073869 0.150300
H88   H     H_    0.859939 0.355951 0.076589 0.157036
H89   H     H_    0.943709 0.381329 0.069305 0.129243
H90   H     H_    0.200259 0.621057 0.939403 0.128981
H91   H     H_    0.859253 0.329817 0.915084 0.163114
H92   H     H_    0.945810 0.351950 0.908466 0.155900
H93   H     H_    0.977299 0.276541 0.022821 0.142751
H94   H     H_    0.936423 0.243735 0.928118 0.147738
H95   H     H_    0.890394 0.253520 0.029154 0.140379
H96   H     H_    0.196569 0.534728 0.037872 0.181039
H97   H     H_    0.383923 0.772721 0.521130 0.167704
H98   H     H_    0.166821 0.515296 0.932043 0.116040
H99   H     H_    0.313707 0.066382 0.851311 0.166860
H100  H     H_    0.356220 0.063605 0.746126 0.167346
H101  H     H_    0.273106 0.033085 0.757210 0.122133
H102  H     H_    0.361819 0.953540 0.756076 0.134231
H103  H     H_    0.312271 0.954403 0.852390 0.174553
H104  H     H_    0.803680 0.535154 0.833810 0.154341
H105  H     H_    0.852050 0.532630 0.733327 0.163590
H106  H     H_    0.775830 0.490652 0.741955 0.128171
H107  H     H_    0.875731 0.424408 0.761820 0.153605
H108  H     H_    0.849619 0.699284 0.599978 0.184745
H109  H     H_    0.823432 0.426743 0.855521 0.178899
H110  H     H_    0.240479 0.081635 0.225900 0.158688
H111  H     H_    0.226274 0.157632 0.236546 0.105894
H112  H     H_    0.155849 0.049493 0.321250 0.166036
H113  H     H_    0.146227 0.119751 0.373651 0.153983
H114  H     H_    0.099915 0.162881 0.233355 0.143209
H115  H     H_    0.052209 0.099745 0.269707 0.142416
H116  H     H_    0.110159 0.092177 0.179453 0.149552
H117  H     H_    0.273655 0.954378 0.565544 0.129721
H118  H     H_    0.186378 0.931466 0.570528 0.114075
H119  H     H_    0.868046 0.285046 0.576248 0.183626
H120  H     H_    0.236887 0.031631 0.450633 0.240355
H121  H     H_    0.151193 0.012355 0.474766 0.145664
H122  H     H_    0.257191 0.061671 0.604640 0.145869
H123  H     H_    0.184919 0.099736 0.560228 0.149814
H124  H     H_    0.173389 0.038329 0.635381 0.140693
H125  H     H_    0.716510 0.567215 0.267752 0.133791
H126  H     H_    0.673851 0.622298 0.328693 0.103600
H127  H     H_    0.751868 0.514540 0.404422 0.238365
H128  H     H_    0.712928 0.569940 0.471655 0.145642
H129  H     H_    0.601073 0.545908 0.409142 0.135475
H130  H     H_    0.581080 0.014346 0.850514 0.119929
H131  H     H_    0.640787 0.480452 0.454056 0.163119
H132  H     H_    0.637934 0.492230 0.336004 0.138238
H133  H     H_    0.728886 0.434229 0.253458 0.155402
H134  H     H_    0.672272 0.381211 0.294125 0.103339
H135  H     H_    0.816969 0.360572 0.224958 0.181224
H136  H     H_    0.765760 0.301976 0.268043 0.141807
H137  H     H_    0.731613 0.379287 0.105694 0.169818
H138  H     H_    0.756880 0.302606 0.106623 0.135968
H139  H     H_    0.677417 0.323332 0.152805 0.140701
H140  H     H_    0.383708 0.347354 0.730927 0.151395
H141  H     H_    0.075637 0.531039 0.850911 0.124698
H142  H     H_    0.342554 0.380914 0.638584 0.157194
H143  H     H_    0.444916 0.277812 0.631063 0.184274
H144  H     H_    0.405157 0.312406 0.536409 0.160478
H145  H     H_    0.457435 0.409267 0.577559 0.142225
H146  H     H_    0.519334 0.352358 0.560465 0.165905
H147  H     H_    0.498320 0.373978 0.671427 0.145028
H148  H     H_    0.406449 0.629697 0.672044 0.149038
H149  H     H_    0.319719 0.644769 0.688431 0.157754
H150  H     H_    0.432264 0.738656 0.671633 0.173686
H151  H     H_    0.344955 0.753893 0.692382 0.163716
H152  H     H_    0.708148 0.719179 0.330029 0.141442
H153  H     H_    0.351986 0.696074 0.833633 0.142456
H154  H     H_    0.411606 0.756036 0.831260 0.148569
H155  H     H_    0.439890 0.681360 0.813466 0.143418
H156  H     H_    0.877278 0.835299 0.747342 0.150935
H157  H     H_    0.835784 0.876024 0.662265 0.159916
H158  H     H_    0.937479 0.773756 0.635562 0.187921
H159  H     H_    0.897663 0.815515 0.547663 0.149856
H160  H     H_    0.950866 0.908144 0.604164 0.138913
H161  H     H_    0.012271 0.852513 0.577657 0.168835
H162  H     H_    0.991655 0.866043 0.691639 0.148702
H163  H     H_    0.662537 0.315657 0.395039 0.149896
H164  H     H_    0.861439 0.166190 0.765594 0.142254
H165  H     H_    0.777230 0.150039 0.735483 0.177634
H166  H     H_    0.841503 0.272985 0.764842 0.159567
H167  H     H_    0.757946 0.263627 0.720623 0.166344
H168  H     H_    0.724009 0.207662 0.855245 0.149829
H169  H     H_    0.754378 0.280332 0.881846 0.146200
H170  H     H_    0.807410 0.216704 0.901524 0.146150
H171  H     H_    0.697891 0.806521 0.765136 0.167765
H172  H     H_    0.621043 0.826167 0.706482 0.143675
H173  H     H_    0.698927 0.904175 0.838403 0.157833
H174  H     H_    0.197448 0.215527 0.338844 0.146383
H175  H     H_    0.624415 0.925774 0.777780 0.182756
H176  H     H_    0.559218 0.845579 0.850093 0.156821
H177  H     H_    0.599002 0.891670 0.932090 0.147894
H178  H     H_    0.634054 0.820279 0.908062 0.137067
H179  H     H_    0.843054 0.075526 0.548837 0.157505
H180  H     H_    0.772545 0.066964 0.473285 0.132079
H181  H     H_    0.809947 0.986318 0.630739 0.162341
H182  H     H_    0.732947 0.980925 0.567955 0.216295
H183  H     H_    0.798379 0.965317 0.429124 0.149814
H184  H     H_    0.817825 0.910338 0.511658 0.148740
O1    O     O_3   0.500000 0.000000 0.500000 -0.450369
O2    O     O_R   0.135640 0.430410 0.463140 -0.541738
O3    O     O_R   0.456890 1.000000 0.295720 -0.504828
O4    O     O_R   0.956890 0.500000 0.295720 -0.508783
O5    O     O_R   0.488070 0.049450 0.698020 -0.542125
O6    O     O_R   0.488070 0.950550 0.698020 -0.554347
O7    O     O_R   0.988070 0.549450 0.698020 -0.539913
O8    O     O_R   0.988070 0.450550 0.698020 -0.556106
O9    O     O_R   0.370630 0.069610 0.433010 -0.498981
O10   O     O_R   0.370630 0.930390 0.433010 -0.492345
O11   O     O_R   0.870630 0.569610 0.433010 -0.511521
O12   O     O_3   1.000000 0.500000 0.500000 -0.450170
O13   O     O_R   0.870630 0.430390 0.433010 -0.487165
O14   O     O_R   0.574320 0.880940 0.560740 -0.556838
O15   O     O_R   0.574320 0.119060 0.560740 -0.516450
O16   O     O_R   0.074320 0.380940 0.560740 -0.557766
O17   O     O_R   0.074320 0.619060 0.560740 -0.505018
O18   O     O_R   0.566990 0.000000 0.308240 -0.512853
O19   O     O_R   0.066990 0.500000 0.308240 -0.513286
O20   O     O_3   0.276159 0.114960 0.342271 -0.563288
O21   O     O_3   0.234038 0.918804 0.449529 -0.552431
O22   O     O_3   0.780003 0.621740 0.336247 -0.573235
O23   O     O_R   0.419410 0.880950 0.543120 -0.573640
O24   O     O_3   0.756033 0.400796 0.374219 -0.560845
O25   O     O_3   0.316253 0.292551 0.670037 -0.578655
O26   O     O_3   0.361790 0.669800 0.565077 -0.590255
O27   O     O_3   0.808509 0.786420 0.678273 -0.579345
O28   O     O_3   0.838796 0.187215 0.636672 -0.577688
O29   O     O_3   0.707017 0.872771 0.669783 -0.588534
O30   O     O_3   0.749883 0.092312 0.603310 -0.581356
O31   O     O_3   0.214562 0.378595 0.663568 -0.584033
O32   O     O_3   0.260257 0.583689 0.561743 -0.570268
O33   O     O_3   0.649099 0.811588 0.373795 -0.591371
O34   O     O_R   0.419410 0.119050 0.543120 -0.562797
O35   O     O_3   0.612951 0.217769 0.417825 -0.575220
O36   O     O_3   0.138802 0.305084 0.381420 -0.592719
O37   O     O_3   0.096132 0.734955 0.496066 -0.565593
O38   O     O_3   0.401385 0.017626 0.145834 -0.511391
O39   O     O_3   0.899827 0.493071 0.146891 -0.515777
O40   O     O_3   0.642631 0.997886 0.173926 -0.557872
O41   O     O_3   0.142004 0.507781 0.172616 -0.553844
O42   O     O_3   0.350975 0.966919 0.003918 -0.555680
O43   O     O_3   0.868732 0.431314 0.002310 -0.563006
O44   O     O_R   0.919410 0.380950 0.543120 -0.573647
O45   O     O_R   0.919410 0.619050 0.543120 -0.567846
O46   O     O_R   0.635640 0.069590 0.463140 -0.564204
O47   O     O_R   0.635640 0.930410 0.463140 -0.541776
O48   O     O_R   0.135640 0.569590 0.463140 -0.552375
Zn1   Zn    Zn3+2 0.583120 1.000000 0.434770 0.930731
Zn2   Zn    Zn3+2 0.083120 0.500000 0.434770 0.935520
Zn3   Zn    Zn3+2 0.425830 0.000000 0.416880 0.966638
Zn4   Zn    Zn3+2 0.925830 0.500000 0.416880 0.952143
Zn5   Zn    Zn3+2 0.495530 0.070660 0.574170 0.934093
Zn6   Zn    Zn3+2 0.495530 0.929340 0.574170 0.897992
Zn7   Zn    Zn3+2 0.995530 0.570660 0.574170 0.932141
Zn8   Zn    Zn3+2 0.995530 0.429340 0.574170 0.903787

loop_
_geom_bond_atom_site_label_1
_geom_bond_atom_site_label_2
_ccdc_geom_bond_type
C64   C103  A    
C40   H62   S    
C137  H134  S    
C61   H174  S    
C19   C20   S    
C55   H119  S    
C129  H114  S    
C15   H5    S    
C68   C75   A    
C45   H76   S    
C91   O3    A    
C84   C86   A    
C104  C117  A    
C132  H124  S    
C5    C6    S    
C133  H125  S    
C131  H121  S    
C43   H70   S    
C143  C144  S    
C121  H79   S    
C77   C100  S    
C51   H89   S    
C47   H77   S    
C67   C94   S    
C11   H179  S    
C79   C102  S    
O8    Zn8   S    
C130  H117  S    
O46   Zn1   S    
C22   H22   S    
C146  H157  S    
C88   O41   S    
C100  C109  A    
C38   H58   S    
C21   C22   S    
C102  C111  A    
C46   H97   S    
C80   C83   A    
C53   H94   S    
C65   C87   A    
C45   C47   S    
C8    O29   S    
C68   C95   S    
C51   C52   S    
C140  C141  S    
C71   C73   A    
C31   O37   S    
C124  H107  S    
C140  O25   S    
C101  C110  A    
C20   H17   S    
C40   H63   S    
C81   O11   A    
C21   H20   S    
C32   H45   S    
C126  H105  S    
O1    Zn3   S    
C50   H87   S    
C107  C136  A    
O44   Zn8   S    
C123  H100  S    
C57   C97   A    
C3    H159  S    
C67   C74   A    
C10   H177  S    
C56   O20   S    
C28   H34   S    
C33   H48   S    
C82   C84   A    
C87   C89   A    
C101  C115  A    
C129  H116  S    
O4    Zn4   S    
C13   C54   A    
O10   Zn3   S    
C65   C91   S    
C58   O22   S    
C63   H152  S    
C44   O41   S    
C36   H52   S    
C144  C145  S    
C145  H153  S    
C6    C7    S    
C8    H171  S    
C60   C64   A    
C30   H41   S    
C130  C131  S    
C12   H182  S    
O14   Zn6   S    
C18   H11   S    
C32   C33   S    
C6    H167  S    
C143  H149  S    
C47   H80   S    
C144  H150  S    
C138  H135  S    
C2    C108  A    
C135  H129  S    
O34   Zn5   S    
C25   H27   S    
C23   H25   S    
C119  H13   S    
C1    O23   A    
C38   O39   S    
C114  C136  A    
C22   C23   S    
C4    H160  S    
C135  H132  S    
C58   C98   A    
C36   H53   S    
C128  C129  S    
C35   C96   A    
C109  O29   S    
O1    Zn1   S    
C19   H14   S    
C36   C37   S    
C53   H95   S    
O1    Zn6   S    
C119  H35   S    
C38   C39   S    
C48   H82   S    
C7    H170  S    
C94   O6    A    
C14   H3    S    
C79   O2    A    
C49   H84   S    
C28   H36   S    
C5    O28   S    
C42   H69   S    
C37   H56   S    
C50   H86   S    
C137  O24   S    
C78   O17   A    
C9    C10   S    
C59   O34   A    
C52   H92   S    
C15   O31   S    
C62   H2    S    
C54   H108  S    
C124  H109  S    
C64   H163  S    
C145  H155  S    
C142  H146  S    
C78   O48   A    
C78   C104  S    
C30   H39   S    
C39   C40   S    
C104  C112  A    
C25   C26   S    
C70   O44   A    
C95   O8    A    
C90   C120  S    
C69   C72   A    
C69   O42   S    
C29   C30   S    
C116  O36   S    
O7    Zn7   S    
C31   C32   S    
C23   H23   S    
C26   H30   S    
C41   O40   S    
C121  H90   S    
C20   H16   S    
C127  H111  S    
C32   H44   S    
C52   C53   S    
C4    H162  S    
C66   C93   S    
C60   O24   S    
C43   H72   S    
C24   C106  A    
C59   C96   S    
C3    C4    S    
C3    H158  S    
C70   C99   S    
C124  C126  S    
O15   Zn5   S    
C105  C109  A    
C137  H133  S    
C87   O40   S    
C107  C111  A    
C77   O14   A    
C12   C14   S    
C105  O27   S    
C66   C86   A    
C114  C116  A    
O12   Zn7   S    
C134  C135  S    
O17   Zn7   S    
C7    H168  S    
C24   C103  A    
C45   H75   S    
C42   H67   S    
C110  O30   S    
C34   C36   S    
C15   H4    S    
O47   Zn1   S    
C2    C125  A    
C133  O22   S    
C49   C50   S    
C75   H141  S    
C61   C114  A    
C113  O33   S    
C134  H127  S    
C140  H140  S    
C117  C125  A    
C130  H118  S    
C29   H38   S    
C41   C42   S    
C53   H93   S    
C141  H144  S    
C120  C121  S    
C26   C27   S    
C21   O33   S    
C139  H138  S    
C28   C29   S    
C27   H33   S    
C81   C98   S    
C20   H18   S    
C39   H60   S    
C40   H64   S    
C142  H145  S    
C21   H19   S    
C126  H106  S    
C18   C19   S    
C19   H15   S    
C37   H54   S    
C80   C89   A    
C93   O19   A    
C108  O26   S    
C41   H66   S    
C118  H46   S    
C144  H151  S    
C5    H165  S    
C6    H166  S    
C16   C17   S    
C44   H74   S    
O19   Zn2   S    
C10   H178  S    
C92   C113  A    
C143  O26   S    
C33   H47   S    
C74   C80   A    
O23   Zn6   S    
C129  H115  S    
C17   H8    S    
C41   H65   S    
C130  O21   S    
C9    H175  S    
C128  H113  S    
C13   C105  A    
C57   O21   S    
O18   Zn1   S    
C132  H123  S    
C133  H126  S    
O6    Zn6   S    
C108  C112  A    
C8    H172  S    
C24   C55   A    
C103  C115  A    
C18   H12   S    
C34   O38   S    
C85   O38   S    
C138  H136  S    
C11   H180  S    
C75   C82   A    
C120  H96   S    
C140  H142  S    
C1    O10   A    
C65   C85   A    
C76   O46   A    
C22   H21   S    
C146  H156  S    
C48   C49   S    
C83   C85   A    
C46   C97   A    
C88   C90   A    
C13   C92   A    
C133  C134  S    
C112  O32   S    
C42   C43   S    
O48   Zn2   S    
C127  C128  S    
O3    Zn3   S    
C44   C45   S    
C123  H99   S    
C56   C96   A    
C79   O16   A    
C135  H131  S    
C27   H31   S    
C62   C125  A    
C31   H43   S    
C38   H59   S    
C82   C90   A    
C25   O35   S    
C76   O15   A    
C126  H104  S    
C121  H68   S    
C66   C88   A    
C70   O13   A    
C7    H169  S    
C10   H176  S    
C49   H83   S    
C138  C139  S    
C33   H49   S    
C37   H55   S    
C56   C61   A    
C127  O20   S    
C28   O36   S    
C17   H10   S    
O13   Zn4   S    
C107  O25   S    
C47   H78   S    
C18   O32   S    
O12   Zn4   S    
C118  H57   S    
C60   C99   A    
C145  H154  S    
C57   C62   A    
C131  H120  S    
C2    C46   A    
C142  H147  S    
C117  O37   S    
C51   H88   S    
C30   H40   S    
C12   H181  S    
C67   C72   A    
C15   C16   S    
C95   O7    A    
C139  H139  S    
C120  H98   S    
C115  O35   S    
C118  C119  S    
C9    H173  S    
C25   H28   S    
C23   H26   S    
C76   C101  S    
C8    C9    S    
C39   H61   S    
C63   C92   A    
C81   O45   A    
O5    Zn5   S    
O11   Zn4   S    
C43   H71   S    
C44   H73   S    
O9    Zn3   S    
C51   O43   S    
C77   O47   A    
C127  H110  S    
O2    Zn2   S    
C16   H6    S    
C1    C97   S    
C48   H81   S    
O12   Zn8   S    
C4    H161  S    
C68   C73   A    
C94   O5    A    
C128  H112  S    
C31   H42   S    
C14   H183  S    
C69   C83   A    
C132  H122  S    
C73   C124  S    
C50   H85   S    
C35   H1    S    
C52   H91   S    
C86   O39   S    
C93   O4    A    
C14   H184  S    
C111  O31   S    
C59   O9    A    
O12   Zn2   S    
C134  H128  S    
C55   C99   A    
C91   O18   A    
C122  H102  S    
C71   C84   A    
C106  C110  A    
C34   H50   S    
C58   C63   A    
C29   H37   S    
C72   C122  S    
C100  C113  A    
C106  O28   S    
C146  O27   S    
C35   C136  A    
C11   C12   S    
C143  H148  S    
C141  H143  S    
C11   O30   S    
C137  C138  S    
C139  H137  S    
C48   O42   S    
C141  C142  S    
C122  H103  S    
C123  H101  S    
C34   H51   S    
C26   H29   S    
C74   H130  S    
O45   Zn7   S    
O1    Zn5   S    
C102  C116  A    
C71   O43   S    
C119  H24   S    
O16   Zn8   S    
C5    H164  S    
C89   C118  S    
C3    C146  S    
C16   H7    S    
C54   C98   A    
C27   H32   S    
C122  C123  S    
C131  C132  S    
C17   H9    S    
