data_mof_unit_56877.cif
_audit_creation_date              2012-10-26T19:21:52-0400
_audit_creation_method            fapswitch 2.2
_symmetry_space_group_name_H-M    P1
_symmetry_Int_Tables_number       1
_space_group_crystal_system       triclinic
_cell_length_a                    23.519612
_cell_length_b                    10.917196
_cell_length_c                    9.789802
_cell_angle_alpha                 110.202091
_cell_angle_beta                  98.793252
_cell_angle_gamma                 90.712613
_cell_volume                      2325.56706629

loop_
_atom_site_label
_atom_site_type_symbol
_atom_type_description
_atom_site_fract_x
_atom_site_fract_y
_atom_site_fract_z
_atom_type_partial_charge
Br1   Br    Br    0.316047 0.650301 0.314287 -0.472549
Br2   Br    Br    0.644458 0.285138 0.206793 -0.540061
C1    C     C_R   0.498936 0.253956 0.442296 0.549556
C2    C     C_R   0.710024 0.574434 0.622979 0.186461
C3    C     C_R   0.249684 0.426566 0.603466 0.274586
C4    C     C_R   0.769565 0.564866 0.628740 0.265621
C5    C     C_R   0.210699 0.481093 0.520354 0.158462
C6    C     C_R   0.791488 0.486421 0.503728 0.154717
C7    C     C_2   0.505659 0.115243 0.414392 -0.092980
C8    C     C_2   0.515267 0.885711 0.587506 -0.100665
C9    C     C_2   0.533478 0.073134 0.518978 0.232717
C10   C     C_2   0.531810 0.931246 0.487457 0.227191
C11   C     C_2   0.505189 0.510118 0.080978 0.028070
C12   C     C_R   0.506515 0.746155 0.557916 0.563194
C13   C     C_2   0.494936 0.489446 0.918834 0.014112
C14   C     C_R   0.391051 0.499182 0.500594 0.601388
C15   C     C_R   0.608984 0.497693 0.498737 0.582500
C16   C     C_R   0.884635 0.598743 0.533644 0.421837
C17   C     C_R   0.118335 0.365012 0.493839 0.416911
C18   C     C_R   0.879008 0.369254 0.490026 0.421105
C19   C     C_R   0.125524 0.598673 0.577146 0.433063
C20   C     C_R   0.938729 0.365625 0.492042 0.016585
C21   C     C_R   0.065649 0.601476 0.570329 0.016238
C22   C     C_R   0.971897 0.483362 0.524040 -0.035495
C23   C     C_R   0.230769 0.537944 0.425411 0.275742
C24   C     C_R   0.032223 0.482896 0.530938 -0.037066
C25   C     C_R   0.944864 0.601509 0.548116 0.019612
C26   C     C_R   0.058889 0.363776 0.496947 0.016845
C27   C     C_R   0.965999 0.247659 0.463334 -0.129932
C28   C     C_R   0.038432 0.719456 0.599083 -0.128156
C29   C     C_R   0.025351 0.246483 0.463407 -0.127370
C30   C     C_R   0.978537 0.719216 0.585589 -0.130417
C31   C     C_3   0.165425 0.495427 0.215164 0.005026
C32   C     C_3   0.127725 0.558022 0.120576 -0.350035
C33   C     C_3   0.783298 0.391050 0.159794 0.005659
C34   C     C_R   0.753284 0.410269 0.375770 0.277309
C35   C     C_3   0.801054 0.293380 0.022379 -0.347956
C36   C     C_3   0.345265 0.226787 0.557204 0.005312
C37   C     C_3   0.384347 0.150401 0.632303 -0.364500
C38   C     C_3   0.686939 0.782244 0.737214 0.011414
C39   C     C_3   0.668217 0.874120 0.876598 -0.352956
C40   C     C_3   0.249956 0.440004 0.843268 0.037583
C41   C     C_3   0.267297 0.345965 0.923871 -0.349023
C42   C     C_3   0.817389 0.563594 0.847433 -0.000414
C43   C     C_3   0.859634 0.641746 0.985363 -0.358354
C44   C     C_3   0.598747 0.855246 0.334573 -0.030269
C45   C     C_R   0.289948 0.548650 0.422233 0.095194
C46   C     C_3   0.605224 0.914896 0.217856 -0.371266
C47   C     C_3   0.611713 0.145765 0.708729 -0.013588
C48   C     C_3   0.651467 0.220245 0.650196 -0.367556
C49   C     C_R   0.693552 0.410116 0.374604 0.085766
C50   C     C_R   0.328778 0.490469 0.501991 -0.071295
C51   C     C_R   0.671507 0.494502 0.497408 -0.085374
C52   C     C_R   0.307890 0.422936 0.585789 0.184929
Cu1   Cu    Cu3+1 0.509980 0.521810 0.644910 1.002274
Cu2   Cu    Cu3+1 0.490020 0.478190 0.355090 1.023216
H1    H     H_    0.941457 0.155675 0.438067 0.166034
H2    H     H_    0.538954 0.581642 0.153383 0.167944
H3    H     H_    0.137365 0.426369 0.240871 0.139052
H4    H     H_    0.197447 0.439659 0.149934 0.126994
H5    H     H_    0.154465 0.627891 0.092904 0.181630
H6    H     H_    0.106452 0.481273 0.016587 0.100828
H7    H     H_    0.094061 0.611205 0.181266 0.167317
H8    H     H_    0.818333 0.470425 0.212552 0.132112
H9    H     H_    0.743111 0.433373 0.125101 0.146145
H10   H     H_    0.766517 0.213570 0.966952 0.172419
H11   H     H_    0.808342 0.342704 0.944204 0.075032
H12   H     H_    0.063170 0.811936 0.628838 0.170336
H13   H     H_    0.841543 0.250730 0.053012 0.173792
H14   H     H_    0.362196 0.225145 0.456354 0.119758
H15   H     H_    0.301177 0.176426 0.524446 0.187827
H16   H     H_    0.367613 0.145590 0.730472 0.151264
H17   H     H_    0.386084 0.049248 0.554164 0.132512
H18   H     H_    0.428652 0.198168 0.667681 0.179937
H19   H     H_    0.654883 0.781156 0.640297 0.102683
H20   H     H_    0.729869 0.821173 0.729246 0.175580
H21   H     H_    0.698310 0.872835 0.975169 0.177480
H22   H     H_    0.668800 0.975556 0.876087 0.105957
H23   H     H_    0.556760 0.622223 0.934027 0.204652
H24   H     H_    0.623883 0.842922 0.883051 0.158976
H25   H     H_    0.214444 0.496597 0.891425 0.141366
H26   H     H_    0.287700 0.510906 0.864051 0.163042
H27   H     H_    0.301614 0.285774 0.874545 0.181374
H28   H     H_    0.284183 0.401479 0.041886 0.135537
H29   H     H_    0.229464 0.280372 0.915641 0.156156
H30   H     H_    0.836874 0.471029 0.790535 0.137555
H31   H     H_    0.776805 0.540258 0.881941 0.148968
H32   H     H_    0.841073 0.733830 0.046341 0.177002
H33   H     H_    0.868653 0.583447 0.058420 0.090741
H34   H     H_    0.443304 0.377592 0.065908 0.206046
H35   H     H_    0.900739 0.665882 0.954435 0.168432
H36   H     H_    0.613349 0.754448 0.296952 0.142425
H37   H     H_    0.628750 0.910543 0.438514 0.104548
H38   H     H_    0.575867 0.860324 0.113257 0.153659
H39   H     H_    0.595024 0.018977 0.256135 0.179901
H40   H     H_    0.650389 0.910012 0.197246 0.125279
H41   H     H_    0.622503 0.042098 0.679562 0.089758
H42   H     H_    0.620489 0.188463 0.831176 0.192029
H43   H     H_    0.643552 0.325728 0.689902 0.191442
H44   H     H_    0.697155 0.209249 0.690858 0.103454
H45   H     H_    0.044863 0.153590 0.437850 0.168368
H46   H     H_    0.643912 0.181650 0.527631 0.161803
H47   H     H_    0.958798 0.811575 0.605864 0.166212
H48   H     H_    0.509261 0.953021 0.695062 0.097265
H49   H     H_    0.488669 0.046115 0.304829 0.110337
H50   H     H_    0.461189 0.417755 0.846347 0.173964
N1    N     N_R   0.852955 0.484266 0.507931 -0.376982
N2    N     N_R   0.150496 0.481476 0.533622 -0.377334
N3    N     N_2   0.475010 0.445410 0.137370 -0.331032
N4    N     N_2   0.524990 0.554590 0.862630 -0.346284
O1    O     O_R   0.505330 0.332340 0.577400 -0.447724
O2    O     O_2   0.143462 0.250711 0.447877 -0.469865
O3    O     O_2   0.847353 0.259106 0.471752 -0.470598
O4    O     O_2   0.158544 0.712182 0.625187 -0.454081
O5    O     O_3   0.193079 0.594375 0.345342 -0.477085
O6    O     O_3   0.774433 0.325196 0.256715 -0.479403
O7    O     O_3   0.344694 0.356547 0.655549 -0.554093
O8    O     O_3   0.689704 0.655952 0.745765 -0.530777
O9    O     O_3   0.229655 0.366911 0.692517 -0.505954
O10   O     O_3   0.806711 0.638563 0.755438 -0.505912
O11   O     O_3   0.540016 0.846743 0.349782 -0.556788
O12   O     O_R   0.494670 0.667660 0.422600 -0.427488
O13   O     O_3   0.553077 0.160476 0.661571 -0.558085
O14   O     O_R   0.488470 0.295500 0.332650 -0.496246
O15   O     O_R   0.511530 0.704500 0.667350 -0.514135
O16   O     O_R   0.426310 0.518390 0.622390 -0.461856
O17   O     O_R   0.573690 0.481610 0.377610 -0.471230
O18   O     O_R   0.409450 0.481550 0.377650 -0.472642
O19   O     O_R   0.590550 0.518450 0.622350 -0.461546
O20   O     O_2   0.857853 0.709589 0.544755 -0.488699

loop_
_geom_bond_atom_site_label_1
_geom_bond_atom_site_label_2
_ccdc_geom_bond_type
C38   O8    S    
Cu1   Cu2   S    
C36   H14   S    
C12   O12   A    
C20   C27   A    
C35   H13   S    
C2    C51   A    
C41   H27   S    
C40   H26   S    
C22   C25   A    
C39   H24   S    
C17   O2    S    
C42   C43   S    
C48   H43   S    
C12   O15   A    
C46   H38   S    
C3    O9    S    
C29   H45   S    
C13   H50   S    
C46   H39   S    
C22   C24   A    
C23   O5    S    
C39   H21   S    
C18   O3    S    
C40   O9    S    
Cu2   O17   S    
C44   H36   S    
C33   H9    S    
C7    H49   S    
C47   O13   S    
C32   H6    S    
C6    C34   A    
C21   C24   A    
C16   N1    A    
C11   N3    D    
C47   H42   S    
C36   O7    S    
C10   O11   S    
Cu1   O15   S    
C1    O1    A    
Cu1   O19   S    
C37   H16   S    
C44   O11   S    
C33   H8    S    
C42   H31   S    
C43   H33   S    
C23   C45   A    
C18   N1    A    
Cu1   O1    S    
C17   N2    A    
C37   H17   S    
C15   C51   S    
C31   H3    S    
C41   H28   S    
C13   N4    D    
C2    O8    S    
C40   H25   S    
C42   H30   S    
C4    O10   S    
C50   C52   A    
C44   C46   S    
C31   O5    S    
C15   O19   A    
C41   H29   S    
C21   C28   A    
C3    C52   A    
C43   H32   S    
C2    C4    A    
C8    C12   S    
C39   H22   S    
C3    C5    A    
Br1   C45   S    
C4    C6    A    
C11   H2    S    
C37   H18   S    
C32   H5    S    
C38   H20   S    
C49   C51   A    
Cu2   O12   S    
C1    C7    S    
C14   O18   A    
Cu1   O16   S    
C35   H10   S    
C31   C32   S    
C30   H47   S    
C33   O6    S    
C17   C26   A    
C7    C9    D    
C34   C49   A    
C8    C10   D    
C38   C39   S    
C18   C20   A    
C48   H46   S    
C31   H4    S    
C19   C21   A    
Cu1   N4    S    
C20   C22   A    
C16   O20   S    
C40   C41   S    
C34   O6    S    
C6    N1    S    
Cu2   O14   S    
Cu2   N3    S    
C1    O14   A    
C9    O13   S    
C36   H15   S    
C46   H40   S    
H23   N4    S    
C33   C35   S    
C25   C30   A    
C48   H44   S    
C26   C29   A    
C15   O17   A    
C16   C25   A    
C14   C50   S    
C27   H1    S    
C19   O4    S    
C9    C10   S    
C45   C50   A    
C24   C26   A    
C5    C23   A    
C38   H19   S    
C11   C13   S    
C27   C29   A    
C28   C30   A    
C36   C37   S    
C44   H37   S    
C35   H11   S    
C8    H48   S    
C32   H7    S    
Cu2   O18   S    
C43   H35   S    
C19   N2    A    
Br2   C49   S    
C47   H41   S    
C47   C48   S    
C52   O7    S    
C42   O10   S    
C5    N2    S    
H34   N3    S    
C14   O16   A    
C28   H12   S    
