data_mof_unit_33614.cif
_audit_creation_date              2012-12-10T20:32:47-0500
_audit_creation_method            fapswitch 2.2
_symmetry_space_group_name_H-M    P1
_symmetry_Int_Tables_number       1
_space_group_crystal_system       triclinic
_cell_length_a                    19.376599
_cell_length_b                    18.986756
_cell_length_c                    19.370398
_cell_angle_alpha                 111.1553
_cell_angle_beta                  111.899033
_cell_angle_gamma                 104.433436
_cell_volume                      5526.54973212

loop_
_atom_site_label
_atom_site_type_symbol
_atom_type_description
_atom_site_fract_x
_atom_site_fract_y
_atom_site_fract_z
_atom_type_partial_charge
C1    C     C_R   0.890585 0.390453 0.999698 0.896387
C2    C     C_R   0.926750 0.795154 0.082354 -0.146842
C3    C     C_R   0.743396 0.573868 0.760942 0.506489
C4    C     C_R   0.682451 0.496767 0.686551 -0.191661
C5    C     C_R   0.675832 0.419119 0.681549 -0.070623
C6    C     C_R   0.742071 0.418690 0.743564 -0.032856
C7    C     C_R   0.806551 0.496744 0.816681 -0.199363
C8    C     C_R   0.800787 0.573168 0.829857 -0.000898
C9    C     C_R   0.543797 0.314213 0.650438 0.492308
C10   C     C_R   0.466702 0.241142 0.592696 -0.154251
C11   C     C_R   0.444312 0.191356 0.505659 -0.109061
C12   C     C_R   0.877650 0.498712 0.880549 0.919955
C13   C     C_R   0.497428 0.218366 0.476696 0.006865
C14   C     C_R   0.570332 0.294278 0.533717 -0.290149
C15   C     C_R   0.595520 0.340553 0.620538 0.011138
C16   C     C_1   0.829258 0.329832 0.998123 -0.186998
C17   C     C_1   0.777686 0.279103 0.997385 0.047483
C18   C     C_1   0.718174 0.220269 0.997592 0.064012
C19   C     C_1   0.667782 0.169774 0.998329 -0.141768
C20   C     C_R   0.992026 0.513090 0.272684 -0.446715
C21   C     C_R   0.071251 0.533441 0.282354 0.494149
C22   C     C_R   0.091114 0.468281 0.246199 -0.205984
C23   C     C_R   0.109890 0.609564 0.000809 0.868285
C24   C     C_R   0.034398 0.383574 0.207017 0.256662
C25   C     C_R   0.958290 0.364468 0.205069 0.368997
C26   C     C_R   0.934444 0.428487 0.232622 0.391429
C27   C     C_R   0.240880 0.497559 0.319765 -0.038877
C28   C     C_R   0.315609 0.509342 0.318283 -0.180962
C29   C     C_R   0.324993 0.521231 0.253083 -0.084437
C30   C     C_R   0.256568 0.513086 0.185801 0.443716
C31   C     C_R   0.182038 0.496276 0.185207 -0.172198
C32   C     C_R   0.172926 0.488513 0.251036 0.044951
C33   C     C_R   0.471573 0.627384 0.316741 0.591338
C34   C     C_R   0.116402 0.496339 0.119391 0.900377
C35   C     C_R   0.543997 0.653972 0.312071 -0.157130
C36   C     C_R   0.545122 0.604435 0.237774 -0.148982
C37   C     C_R   0.474844 0.526852 0.170918 -0.000486
C38   C     C_R   0.407978 0.497447 0.181969 -0.137894
C39   C     C_R   0.405071 0.546701 0.253878 -0.037790
C40   C     C_1   0.171671 0.670407 0.002998 -0.203321
C41   C     C_1   0.223522 0.721647 0.004535 0.010498
C42   C     C_1   0.283108 0.780827 0.004687 0.018856
C43   C     C_1   0.332936 0.831089 0.003157 -0.170543
C44   C     C_R   0.506850 0.379781 0.386385 0.863261
C45   C     C_R   0.861954 0.721860 0.060907 -0.087444
C46   C     C_R   0.619438 0.498391 0.619574 0.918322
C47   C     C_R   0.499885 0.621498 0.619993 0.993641
C48   C     C_R   0.380118 0.502215 0.380378 0.976245
C49   C     C_R   0.495120 0.876824 0.878907 0.979090
C50   C     C_R   0.608743 0.109536 0.999585 0.963294
C51   C     C_R   0.502014 0.120529 0.121617 0.951517
C52   C     C_R   0.391365 0.890679 0.000724 0.897665
C53   C     C_R   0.757653 0.543554 0.450407 -0.410854
C54   C     C_R   0.683570 0.470670 0.387609 0.505774
C55   C     C_R   0.667839 0.397446 0.394012 -0.157444
C56   C     C_R   0.817979 0.650189 0.976952 -0.015888
C57   C     C_R   0.732704 0.393426 0.456004 0.281960
C58   C     C_R   0.811774 0.465655 0.513325 -0.186794
C59   C     C_R   0.821803 0.542674 0.514993 0.495654
C60   C     C_R   0.583507 0.257880 0.256583 -0.002731
C61   C     C_R   0.505435 0.190403 0.187708 -0.119810
C62   C     C_R   0.430868 0.189897 0.182571 -0.012702
C63   C     C_R   0.434592 0.250206 0.251819 -0.238114
C64   C     C_R   0.510710 0.314744 0.322570 -0.055024
C65   C     C_R   0.586740 0.320951 0.325754 0.122689
C66   C     C_R   0.322551 0.167706 0.043744 -0.012776
C67   C     C_R   0.844295 0.649484 0.917441 0.025168
C68   C     C_R   0.241017 0.120489 0.970153 -0.143446
C69   C     C_R   0.186891 0.043570 0.954902 -0.133329
C70   C     C_R   0.216503 0.012370 0.010451 0.572790
C71   C     C_R   0.296057 0.060354 0.083627 -0.262408
C72   C     C_R   0.349055 0.137398 0.100913 -0.020932
C73   C     C_R   0.696689 0.865664 0.664400 0.508579
C74   C     C_R   0.648674 0.815721 0.682782 -0.296242
C75   C     C_R   0.566133 0.800863 0.655612 -0.020678
C76   C     C_R   0.529674 0.835115 0.606273 0.602027
C77   C     C_R   0.580182 0.892964 0.594731 -0.154855
C78   C     C_R   0.912070 0.720547 0.941053 0.487820
C79   C     C_R   0.663758 0.906247 0.621921 -0.135181
C80   C     C_R   0.523281 0.832779 0.763190 0.503197
C81   C     C_R   0.497829 0.812314 0.814783 -0.270741
C82   C     C_R   0.486575 0.735512 0.812813 -0.075962
C83   C     C_R   0.489741 0.673673 0.749732 0.432816
C84   C     C_R   0.505662 0.690001 0.690357 -0.294853
C85   C     C_R   0.528484 0.772007 0.700802 -0.118519
C86   C     C_R   0.554417 0.743139 0.955768 -0.243640
C87   C     C_R   0.548183 0.727260 0.019623 0.498835
C88   C     C_R   0.469970 0.687944 0.008423 0.344683
C89   C     C_R   0.950908 0.794614 0.021609 -0.136721
C90   C     C_R   0.396632 0.662430 0.932598 -0.277049
C91   C     C_R   0.402516 0.681661 0.870241 0.491795
C92   C     C_R   0.481071 0.722062 0.882010 -0.105315
H1    H     H_    0.606346 0.319026 0.509650 0.187396
H2    H     H_    0.975739 0.563364 0.296882 0.193226
H3    H     H_    0.355016 0.437350 0.131717 0.250732
H4    H     H_    0.766452 0.599745 0.445528 0.165728
H5    H     H_    0.377164 0.250244 0.247740 0.169251
H6    H     H_    0.316807 0.037060 0.127203 0.167346
H7    H     H_    0.677891 0.793069 0.723942 0.184966
O1    O     O_R   0.916810 0.468940 0.051330 -0.630374
O2    O     O_R   0.453980 0.361630 0.409070 -0.645611
O3    O     O_R   0.638350 0.546700 0.591580 -0.647078
O4    O     O_R   0.544890 0.453260 0.591610 -0.627159
O5    O     O_R   0.546020 0.638330 0.590880 -0.636143
O6    O     O_R   0.452560 0.544900 0.590910 -0.551954
O7    O     O_R   0.455110 0.546690 0.408340 -0.593445
O8    O     O_R   0.361650 0.453260 0.408370 -0.598963
O9    O     O_R   0.446640 0.909720 0.856320 -0.564760
O10   O     O_R   0.550070 0.907030 0.957060 -0.672370
O11   O     O_R   0.531060 0.084080 0.949590 -0.609504
O12   O     O_R   0.917640 0.365500 0.948670 -0.590145
O13   O     O_R   0.634490 0.081390 0.050330 -0.595427
O14   O     O_R   0.449930 0.092880 0.042850 -0.646595
O15   O     O_R   0.553360 0.090200 0.143600 -0.585686
O16   O     O_R   0.365510 0.918520 0.949590 -0.629332
O17   O     O_R   0.468940 0.915840 0.050330 -0.642146
O18   O     O_R   0.907960 0.551720 0.959710 -0.652248
O19   O     O_R   0.908790 0.448280 0.857050 -0.584101
O20   O     O_R   0.082360 0.634500 0.051330 -0.627333
O21   O     O_R   0.083190 0.531060 0.948670 -0.582934
O22   O     O_R   0.091210 0.551720 0.142950 -0.589453
O23   O     O_R   0.092040 0.448280 0.040290 -0.585073
O24   O     O_R   0.547440 0.455060 0.409050 -0.584669
Zn1   Zn    Zn3+2 0.999450 0.569070 0.068540 1.002647
Zn2   Zn    Zn3+2 0.000550 0.430930 0.931460 1.054064
Zn3   Zn    Zn3+2 0.562400 0.562360 0.499960 1.003426
Zn4   Zn    Zn3+2 0.437600 0.437590 0.500000 1.001048
Zn5   Zn    Zn3+2 0.430940 0.001750 0.932690 0.996488
Zn6   Zn    Zn3+2 0.569060 0.998160 0.067220 0.969838
C93   C     C_2   0.967949 0.872119 0.168572 0.373300
H8    H     H_    0.977963 0.866265 0.224816 0.072054
O25   O     O_2   0.987949 0.942360 0.177160 -0.554786
C94   C     C_2   0.364534 0.113472 0.445019 0.470313
H9    H     H_    0.308502 0.112986 0.445202 0.104404
O26   O     O_2   0.361184 0.048549 0.396207 -0.552676
C95   C     C_2   0.476450 0.170343 0.386149 0.470800
H10   H     H_    0.412466 0.129833 0.334339 0.085257
O27   O     O_2   0.531044 0.175119 0.368424 -0.557401
O28   O     O_3   0.856937 0.405710 0.225231 -0.561055
C96   C     C_3   0.816507 0.450427 0.196377 -0.230573
H11   H     H_    0.827081 0.459784 0.146928 0.172460
H12   H     H_    0.835591 0.511789 0.251819 0.159832
H13   H     H_    0.748716 0.413168 0.165607 0.187308
O29   O     O_3   0.127186 0.616463 0.319972 -0.568494
C97   C     C_3   0.151654 0.660539 0.407766 -0.277185
H14   H     H_    0.100295 0.670177 0.415786 0.168686
H15   H     H_    0.202621 0.723959 0.438743 0.207062
H16   H     H_    0.175666 0.628344 0.442207 0.161066
O30   O     O_3   0.057218 0.320258 0.178372 -0.583830
C98   C     C_3   0.015738 0.277971 0.087570 -0.162037
H17   H     H_    0.028350 0.322090 0.063783 0.139023
H18   H     H_    0.947758 0.242349 0.058105 0.187715
H19   H     H_    0.039118 0.231753 0.065474 0.203285
O31   O     O_3   0.904112 0.281749 0.170183 -0.575320
C99   C     C_3   0.920372 0.263297 0.237196 -0.164768
H20   H     H_    0.909444 0.303644 0.286235 0.163862
H21   H     H_    0.984732 0.269966 0.268247 0.161855
H22   H     H_    0.877095 0.196829 0.209356 0.188100
C100  C     C_2   0.232957 0.497582 0.393573 0.425159
H23   H     H_    0.174338 0.458031 0.382496 0.068958
O32   O     O_2   0.290593 0.544621 0.467779 -0.621140
O33   O     O_3   0.259988 0.514961 0.116093 -0.574704
C101  C     C_3   0.285710 0.598117 0.131567 -0.263264
H24   H     H_    0.253245 0.630873 0.157497 0.134217
H25   H     H_    0.271063 0.595475 0.069450 0.193697
H26   H     H_    0.353809 0.634936 0.175210 0.148348
C102  C     C_2   0.836483 0.723920 0.124942 0.418152
H27   H     H_    0.827905 0.777392 0.159139 0.114433
O34   O     O_2   0.829148 0.668400 0.143234 -0.600365
O35   O     O_3   0.466302 0.680223 0.383876 -0.584735
C103  C     C_3   0.430524 0.729423 0.358857 -0.282812
H28   H     H_    0.460128 0.759243 0.330692 0.149817
H29   H     H_    0.439412 0.780771 0.416558 0.246185
H30   H     H_    0.362584 0.691696 0.313958 0.150389
C104  C     C_2   0.616200 0.736325 0.382651 0.411562
H31   H     H_    0.660427 0.770318 0.371028 0.054850
O36   O     O_2   0.627714 0.766969 0.455447 -0.548275
C105  C     C_2   0.619550 0.634922 0.230911 0.368511
H32   H     H_    0.681191 0.664985 0.286965 0.049192
O37   O     O_2   0.612970 0.629343 0.163769 -0.489904
C106  C     C_2   0.469218 0.475625 0.088509 0.573042
H33   H     H_    0.524433 0.476844 0.086069 0.062415
O38   O     O_2   0.402153 0.432365 0.021377 -0.509207
O39   O     O_3   0.899334 0.612145 0.571911 -0.543114
C107  C     C_3   0.892564 0.687663 0.607308 -0.261147
H34   H     H_    0.839861 0.678972 0.619081 0.123312
H35   H     H_    0.887066 0.715366 0.565006 0.147939
H36   H     H_    0.950240 0.733615 0.670481 0.199650
O40   O     O_3   0.624512 0.471140 0.320160 -0.579248
C108  C     C_3   0.651057 0.467650 0.260937 -0.342176
H37   H     H_    0.669497 0.415866 0.242757 0.182627
H38   H     H_    0.598609 0.454407 0.201110 0.175532
H39   H     H_    0.702878 0.528938 0.286745 0.162048
O41   O     O_3   0.719874 0.314783 0.448743 -0.587747
C109  C     C_3   0.746799 0.317833 0.528915 -0.258963
H40   H     H_    0.700704 0.261911 0.519706 0.213496
H41   H     H_    0.754107 0.375192 0.580716 0.128877
H42   H     H_    0.805407 0.311567 0.550117 0.162972
C110  C     C_2   0.886257 0.459384 0.565365 0.494243
H43   H     H_    0.893798 0.402813 0.538818 0.058321
O42   O     O_2   0.939920 0.517179 0.638041 -0.525104
C111  C     C_2   0.743186 0.577103 0.950796 0.457993
H44   H     H_    0.740675 0.556903 0.995717 0.123905
O43   O     O_2   0.682242 0.539364 0.878581 -0.572919
C112  C     C_2   0.660372 0.268062 0.251835 0.396379
H45   H     H_    0.720006 0.294733 0.309187 0.119006
O44   O     O_2   0.658277 0.250151 0.183669 -0.593337
C113  C     C_2   0.380165 0.250618 0.064453 0.370290
H46   H     H_    0.446820 0.272730 0.100178 0.088524
O45   O     O_2   0.354038 0.296714 0.044882 -0.563199
C114  C     C_2   0.213406 0.151427 0.909154 0.477680
H47   H     H_    0.254863 0.176766 0.889861 0.108732
O46   O     O_2   0.145630 0.151698 0.882457 -0.552875
C115  C     C_2   0.100364 0.995105 0.880284 0.482918
H48   H     H_    0.086277 0.993865 0.820040 0.062020
O47   O     O_2   0.043538 0.957373 0.885880 -0.471028
O48   O     O_3   0.168128 0.935411 0.995741 -0.564038
C116  C     C_3   0.160371 0.869547 0.924458 -0.232883
H49   H     H_    0.214768 0.885764 0.915877 0.143567
H50   H     H_    0.103084 0.848517 0.864254 0.194712
H51   H     H_    0.154063 0.815084 0.934348 0.180418
C117  C     C_2   0.718791 0.961845 0.607346 0.418475
H52   H     H_    0.785128 0.995824 0.653053 0.117011
O49   O     O_2   0.691714 0.966594 0.542136 -0.576758
O50   O     O_3   0.779660 0.883370 0.698754 -0.611883
C118  C     C_3   0.788869 0.825566 0.636706 -0.274307
H53   H     H_    0.852351 0.831066 0.668845 0.183473
H54   H     H_    0.782681 0.841058 0.585274 0.192858
H55   H     H_    0.744156 0.759073 0.607878 0.149627
O51   O     O_3   0.936908 0.719404 0.882450 -0.608996
C119  C     C_3   0.000317 0.693404 0.896297 -0.235525
H56   H     H_    0.054938 0.736939 0.962596 0.152885
H57   H     H_    0.020551 0.693921 0.849898 0.208508
H58   H     H_    0.977645 0.627909 0.883651 0.138100
O52   O     O_3   0.448724 0.823646 0.581166 -0.552652
C120  C     C_3   0.392207 0.737063 0.528102 -0.196997
H59   H     H_    0.417814 0.695125 0.501072 0.178170
H60   H     H_    0.338532 0.728842 0.472523 0.191518
H61   H     H_    0.368841 0.715943 0.564913 0.193922
C121  C     C_2   0.548648 0.945992 0.563111 0.520338
H62   H     H_    0.591242 0.002862 0.572986 0.100293
O53   O     O_2   0.474935 0.928604 0.527593 -0.504543
O54   O     O_3   0.542106 0.912625 0.773136 -0.563403
C122  C     C_3   0.626585 0.966636 0.836704 -0.318455
H63   H     H_    0.668496 0.943810 0.819573 0.165923
H64   H     H_    0.640069 0.975287 0.900938 0.158343
H65   H     H_    0.641346 0.029300 0.841944 0.192911
O55   O     O_3   0.472740 0.595505 0.743676 -0.633089
C123  C     C_3   0.547447 0.589506 0.781401 -0.150814
H66   H     H_    0.599009 0.628390 0.778879 0.164033
H67   H     H_    0.535431 0.522896 0.746289 0.234149
H68   H     H_    0.567469 0.606904 0.849221 0.200402
C124  C     C_2   0.637133 0.780728 0.964918 0.477252
H69   H     H_    0.643988 0.807307 0.925506 0.060879
O56   O     O_2   0.698464 0.780875 0.015001 -0.554364
O57   O     O_3   0.618258 0.743211 0.090209 -0.499594
C125  C     C_3   0.654440 0.827786 0.156280 -0.143399
H70   H     H_    0.651615 0.872722 0.132058 0.113401
H71   H     H_    0.720973 0.847151 0.199028 0.180068
H72   H     H_    0.625275 0.833301 0.196277 0.146144
O58   O     O_3   0.466567 0.671115 0.071220 -0.545808
C126  C     C_3   0.452591 0.732877 0.124186 -0.300347
H73   H     H_    0.485194 0.797213 0.136416 0.150203
H74   H     H_    0.475707 0.736279 0.187576 0.183665
H75   H     H_    0.385308 0.715059 0.095537 0.141945
C127  C     C_2   0.314985 0.612315 0.918244 0.484864
H76   H     H_    0.312372 0.585994 0.958948 0.110398
O59   O     O_2   0.249660 0.599419 0.861221 -0.530107
O60   O     O_3   0.331698 0.665370 0.800042 -0.579498
C128  C     C_3   0.300427 0.584126 0.729954 -0.083170
H77   H     H_    0.316377 0.538940 0.749117 0.151533
H78   H     H_    0.322079 0.588900 0.685594 0.181390
H79   H     H_    0.231740 0.557037 0.693146 0.186411
C129  C     C_2   0.018372 0.870558 0.042387 0.584967
H80   H     H_    0.071611 0.911609 0.107276 0.078712
O61   O     O_2   0.014111 0.888886 0.987209 -0.435588
O62   O     O_3   0.734812 0.647234 0.773472 -0.646965
C130  C     C_3   0.781738 0.691931 0.748985 -0.186946
H81   H     H_    0.739429 0.697387 0.696127 0.170183
H82   H     H_    0.818788 0.663190 0.727267 0.168954
H83   H     H_    0.824299 0.757069 0.804017 0.237993
C131  C     C_2   0.738724 0.335758 0.732582 0.402734
H84   H     H_    0.710951 0.282668 0.668384 0.058413
O63   O     O_2   0.762215 0.324514 0.793847 -0.582155
O64   O     O_3   0.566819 0.364600 0.735355 -0.597351
C132  C     C_3   0.590358 0.325214 0.783786 -0.207998
H85   H     H_    0.595249 0.266838 0.749518 0.154364
H86   H     H_    0.545230 0.309465 0.804428 0.165110
H87   H     H_    0.651808 0.370630 0.842903 0.214439
C133  C     C_2   0.411464 0.219108 0.625807 0.372738
H88   H     H_    0.412112 0.268773 0.676798 0.113866
O65   O     O_2   0.367453 0.145971 0.599507 -0.546139

loop_
_geom_bond_atom_site_label_1
_geom_bond_atom_site_label_2
_ccdc_geom_bond_type
C66   C68   A    
C103  H28   S    
C99   H20   S    
C108  H37   S    
C109  H41   S    
C54   O40   S    
O62   C130  S    
C99   H21   S    
C41   C42   S    
C6    C7    A    
C35   C36   A    
C51   C61   S    
C96   H13   S    
C87   C88   A    
C130  H82   S    
C126  H75   S    
C105  H32   S    
C53   C59   A    
C116  H49   S    
C7    C8    A    
C104  O36   D    
O14   Zn5   S    
C4    C46   S    
C106  H33   S    
C44   C64   S    
C86   C124  S    
C46   O3    A    
C123  H66   S    
C29   C30   A    
C57   O41   S    
C22   C32   S    
C116  H51   S    
C83   C84   A    
C21   C22   A    
C36   C37   A    
C101  H25   S    
O18   Zn1   S    
C96   H12   S    
C133  H88   S    
C11   C94   S    
C23   O20   A    
C5    C6    A    
C115  O47   D    
C60   C112  S    
C3    O62   S    
C48   O8    A    
C56   C111  S    
O35   C103  S    
C27   C100  S    
C23   C40   S    
C87   O57   S    
C50   O11   A    
C128  H78   S    
C82   C92   S    
C120  H59   S    
C132  H86   S    
C125  H70   S    
C73   C74   A    
C49   C81   S    
O22   Zn1   S    
C20   H2    S    
C108  H39   S    
C55   C65   S    
C54   C55   A    
C75   C85   S    
C48   O7    A    
O17   Zn6   S    
C101  H24   S    
C45   C56   A    
C122  H64   S    
C16   C17   T    
C47   O6    A    
C130  H83   S    
C38   H3    S    
O12   Zn2   S    
C77   C121  S    
O52   C120  S    
C100  O32   D    
C24   C25   A    
C70   C71   A    
C129  H80   S    
O19   Zn2   S    
O13   Zn6   S    
C119  H58   S    
O4    Zn4   S    
C122  H63   S    
C14   H1    S    
C133  O65   D    
C61   C62   A    
C91   C92   A    
C109  H42   S    
C112  O44   D    
O41   C109  S    
C27   C32   A    
C110  H43   S    
C34   O23   A    
O60   C128  S    
C53   H4    S    
C94   O26   D    
C128  H79   S    
C28   C48   S    
C80   C85   A    
C6    C131  S    
C67   C78   A    
C33   O35   S    
C1    O1    A    
C50   O13   A    
C97   H15   S    
C88   O58   S    
C81   C82   A    
C49   O9    A    
C57   C58   A    
C76   C77   A    
C52   O17   A    
C78   C89   A    
C73   C79   A    
C38   C39   A    
C103  H30   S    
C66   C72   A    
C58   C110  S    
C123  H67   S    
C70   O48   S    
C111  H44   S    
O6    Zn4   S    
C63   C64   A    
O2    Zn4   S    
C51   O15   A    
C101  H26   S    
C36   C105  S    
C84   C85   A    
C102  O34   D    
C3    C8    A    
C74   C75   A    
C106  O38   D    
C113  H46   S    
C102  H27   S    
C124  O56   D    
C2    C93   S    
O21   Zn2   S    
C68   C69   A    
C107  H36   S    
C126  H74   S    
O3    Zn3   S    
C25   C26   A    
O20   Zn1   S    
C59   O39   S    
C98   H19   S    
O9    Zn5   S    
O16   Zn5   S    
C12   O18   A    
C60   C61   A    
O1    Zn1   S    
C37   C38   A    
C2    C89   A    
C93   O25   D    
C75   C76   A    
C114  H47   S    
O64   C132  S    
C124  H69   S    
C98   H18   S    
C103  H29   S    
C116  H50   S    
C100  H23   S    
C14   C15   A    
C30   C31   A    
O28   C96   S    
C37   C106  S    
O57   C125  S    
C29   C39   S    
C62   C63   A    
C121  O53   D    
C17   C18   S    
C131  H84   S    
C31   C34   S    
C62   C72   S    
C119  H57   S    
C1    C16   S    
C33   C39   A    
C47   C84   S    
C96   H11   S    
C125  H71   S    
C117  O49   D    
C45   C102  S    
O31   C99   S    
C74   H7    S    
C111  O43   D    
C12   O19   A    
C47   O5    A    
C83   O55   S    
C95   O27   D    
C40   C41   T    
C114  O46   D    
C88   C90   A    
C60   C65   A    
C26   O28   S    
C34   O22   A    
C118  H54   S    
C55   C57   A    
O10   Zn6   S    
C94   H9    S    
O15   Zn6   S    
C22   C24   A    
C7    C12   S    
C58   C59   A    
C42   C43   T    
C30   O33   S    
C90   C91   A    
C3    C4    A    
C56   C67   A    
C97   H14   S    
C23   O21   A    
C97   H16   S    
O55   C123  S    
C90   C127  S    
C79   C117  S    
C49   O10   A    
O33   C101  S    
C9    C10   A    
C52   O16   A    
O40   C108  S    
C112  H45   S    
C71   H6    S    
C28   C29   A    
C123  H68   S    
C108  H38   S    
C13   C95   S    
C132  H87   S    
O50   C118  S    
C25   O31   S    
C86   C87   A    
C51   O14   A    
C31   C32   A    
C69   C115  S    
C118  H53   S    
C21   O29   S    
C80   C81   A    
C91   O60   S    
C105  O37   D    
C44   O2    A    
C120  H61   S    
C53   C54   A    
C126  H73   S    
C78   O51   S    
C118  H55   S    
C46   O4    A    
O7    Zn3   S    
C44   O24   A    
C131  O63   D    
C127  O59   D    
C80   O54   S    
C9    O64   S    
C66   C113  S    
O29   C97   S    
C125  H72   S    
C35   C104  S    
C64   C65   A    
O23   Zn2   S    
C89   C129  S    
C93   H8    S    
O48   C116  S    
C2    C45   A    
O8    Zn4   S    
O51   C119  S    
C63   H5    S    
C104  H31   S    
C86   C92   A    
O30   C98   S    
C1    O12   A    
C73   O50   S    
C11   C13   A    
C19   C50   S    
C107  H34   S    
C132  H85   S    
C20   C26   A    
C99   H22   S    
C4    C5    A    
C115  H48   S    
C121  H62   S    
C33   C35   A    
C24   O30   S    
C120  H60   S    
C76   O52   S    
C129  O61   D    
C9    C15   A    
C69   C70   A    
C43   C52   S    
C5    C15   S    
C107  H35   S    
C10   C11   A    
C109  H40   S    
C77   C79   A    
C71   C72   A    
O5    Zn3   S    
C20   C21   A    
C8    C67   S    
C113  O45   D    
C82   C83   A    
C127  H76   S    
C119  H56   S    
C110  O42   D    
C18   C19   T    
O58   C126  S    
C130  H81   S    
C95   H10   S    
O24   Zn3   S    
O39   C107  S    
C10   C133  S    
C122  H65   S    
C13   C14   A    
C68   C114  S    
C117  H52   S    
C128  H77   S    
O54   C122  S    
O11   Zn5   S    
C98   H17   S    
C27   C28   A    
