data_mof_unit_61893.cif
_audit_creation_date              2012-12-10T20:17:52-0500
_audit_creation_method            fapswitch 2.2
_symmetry_space_group_name_H-M    P1
_symmetry_Int_Tables_number       1
_space_group_crystal_system       triclinic
_cell_length_a                    19.070942
_cell_length_b                    18.430482
_cell_length_c                    23.44501
_cell_angle_alpha                 89.985147
_cell_angle_beta                  89.775863
_cell_angle_gamma                 90.330172
_cell_volume                      8240.40789629

loop_
_atom_site_label
_atom_site_type_symbol
_atom_type_description
_atom_site_fract_x
_atom_site_fract_y
_atom_site_fract_z
_atom_type_partial_charge
C1    C     C_R   0.365506 0.499779 0.499186 1.013950
C2    C     C_R   0.634464 0.500222 0.499262 1.004568
C3    C     C_R   0.501941 0.565904 0.237867 -0.095810
C4    C     C_R   0.498558 0.433961 0.762122 -0.092384
C5    C     C_R   0.501591 0.565998 0.297059 -0.155806
C6    C     C_R   0.498889 0.433923 0.702930 -0.168070
C7    C     C_R   0.500615 0.500021 0.327008 -0.035941
C8    C     C_R   0.499430 0.499930 0.673010 -0.041982
C9    C     C_R   0.500203 0.434054 0.297070 -0.156231
C10   C     C_R   0.499447 0.565866 0.702988 -0.161336
C11   C     C_R   0.500551 0.434173 0.237878 -0.100780
C12   C     C_R   0.499132 0.565692 0.762183 -0.096747
C13   C     C_R   0.501345 0.500045 0.208379 0.287717
C14   C     C_R   0.498754 0.499793 0.791652 0.286696
C15   C     C_R   0.734922 0.535451 0.439781 0.580810
C16   C     C_R   0.265152 0.460872 0.441516 0.549096
C17   C     C_R   0.246076 0.540053 0.523128 0.573204
C18   C     C_R   0.753931 0.463515 0.525360 0.555438
C19   C     C_R   0.806017 0.532859 0.427348 -0.224396
C20   C     C_R   0.194231 0.463255 0.428895 -0.212829
C21   C     C_R   0.174825 0.540553 0.511376 -0.237835
C22   C     C_R   0.825298 0.462819 0.513695 -0.223352
C23   C     C_R   0.851444 0.497289 0.464600 -0.003800
C24   C     C_R   0.148790 0.502242 0.464215 -0.001933
C25   C     C_R   0.708967 0.500726 0.488808 -0.313523
C26   C     C_R   0.291034 0.499256 0.488701 -0.320371
C27   C     C_R   0.500137 0.500008 0.389180 0.928354
C28   C     C_R   0.499873 0.499986 0.610825 0.899659
C29   C     C_R   0.963006 0.565519 0.451193 0.112282
C30   C     C_R   0.037252 0.433177 0.454639 0.108903
C31   C     C_R   0.036600 0.566161 0.449018 0.113888
C32   C     C_R   0.963696 0.432359 0.452489 0.110864
C33   C     C_R   0.073157 0.500302 0.454144 0.027665
C34   C     C_R   0.927112 0.498496 0.454228 0.027938
C35   C     C_R   0.540932 0.726086 0.461910 0.618878
C36   C     C_R   0.547627 0.274372 0.467443 0.596509
C37   C     C_R   0.459068 0.725608 0.538072 0.622248
C38   C     C_R   0.452334 0.273784 0.532510 0.595083
C39   C     C_R   0.542708 0.802591 0.461127 0.008415
C40   C     C_R   0.548795 0.197854 0.466512 -0.010741
C41   C     C_R   0.457343 0.802096 0.538838 0.007339
C42   C     C_R   0.451170 0.197245 0.533436 -0.011405
C43   C     C_R   0.500032 0.841703 0.499975 -0.199708
C44   C     C_R   0.499991 0.158307 0.499978 -0.120902
C45   C     C_R   0.441067 0.961519 0.481214 -0.199199
C46   C     C_R   0.559169 0.038413 0.518334 -0.171002
C47   C     C_R   0.558991 0.962225 0.518696 -0.198365
C48   C     C_R   0.440859 0.037703 0.481594 -0.171103
C49   C     C_R   0.500004 0.077015 0.499972 0.233565
C50   C     C_R   0.500033 0.922964 0.499957 0.170499
C51   C     C_R   0.558495 0.479523 0.880103 0.550907
C52   C     C_R   0.441593 0.520264 0.119937 0.551613
C53   C     C_R   0.439545 0.520015 0.880839 0.553775
C54   C     C_R   0.560531 0.479731 0.119203 0.554500
C55   C     C_R   0.438477 0.520736 0.940592 -0.151195
C56   C     C_R   0.561597 0.479000 0.059450 -0.150709
C57   C     C_R   0.499643 0.499880 0.970024 -0.092980
C58   C     C_R   0.500431 0.499860 0.030018 -0.093246
C59   C     C_R   0.560092 0.479033 0.939595 -0.078151
C60   C     C_R   0.439985 0.520720 0.060446 -0.077422
C61   C     C_R   0.378448 0.541442 0.971647 0.678610
C62   C     C_R   0.621623 0.458288 0.028395 0.677292
C63   C     C_R   0.379459 0.541339 0.030968 -0.233432
C64   C     C_R   0.620615 0.458403 0.969074 -0.231841
H1    H     H_    0.395352 0.932599 0.465872 0.149293
H2    H     H_    0.605217 0.067373 0.533081 0.153965
H3    H     H_    0.604721 0.933851 0.534024 0.149561
H4    H     H_    0.394802 0.066111 0.466848 0.153077
H5    H     H_    0.332532 0.557524 0.053707 0.220158
H6    H     H_    0.667544 0.442224 0.946335 0.221258
H7    H     H_    0.502695 0.616828 0.214811 0.150450
H8    H     H_    0.498121 0.383011 0.785146 0.147849
H9    H     H_    0.502067 0.617534 0.319248 0.196913
H10   H     H_    0.498732 0.382400 0.680715 0.184035
H11   H     H_    0.499506 0.382506 0.319269 0.185525
H12   H     H_    0.499802 0.617433 0.680818 0.195508
H13   H     H_    0.499957 0.383258 0.214831 0.148458
H14   H     H_    0.499419 0.616589 0.785256 0.151529
H15   H     H_    0.825806 0.558894 0.389058 0.192360
H16   H     H_    0.174542 0.434254 0.392043 0.189396
H17   H     H_    0.139737 0.570139 0.539277 0.187739
H18   H     H_    0.860372 0.435949 0.543063 0.186529
N1    N     N_R   0.498910 0.499734 0.852327 -0.368793
N2    N     N_R   0.501177 0.500053 0.147709 -0.367657
N3    N     N_R   0.500000 0.689440 0.500000 -0.236724
N4    N     N_R   0.500000 0.310560 0.500000 -0.205448
O1    O     O_R   0.398180 0.560840 0.499980 -0.576372
O2    O     O_R   0.601820 0.439160 0.500020 -0.552565
O3    O     O_R   0.601820 0.560840 0.500020 -0.578094
O4    O     O_R   0.398180 0.439160 0.499980 -0.545779
O5    O     O_R   0.499980 0.560830 0.416150 -0.585000
O6    O     O_R   0.500020 0.439170 0.583850 -0.596694
O7    O     O_R   0.500020 0.560830 0.583850 -0.588332
O8    O     O_R   0.499980 0.439170 0.416150 -0.589022
O9    O     O_2   0.616037 0.460454 0.850047 -0.538180
O10   O     O_2   0.384068 0.539377 0.149998 -0.543839
O11   O     O_2   0.381950 0.538883 0.851180 -0.447569
O12   O     O_2   0.618111 0.460834 0.148868 -0.453330
Zn1   Zn    Zn3+2 0.500000 0.581210 0.500000 1.084045
Zn2   Zn    Zn3+2 0.500000 0.418790 0.500000 1.105053
F1    F     F_    0.318533 0.561921 0.945176 -0.594599
F2    F     F_    0.681536 0.437804 0.054868 -0.597000
F3    F     F_    0.579341 0.688041 0.423554 -0.596165
F4    F     F_    0.593447 0.312720 0.434719 -0.642493
F5    F     F_    0.420582 0.687111 0.576407 -0.602507
F6    F     F_    0.406453 0.311583 0.565161 -0.643377
N5    N     N_2   0.584413 0.838887 0.419159 -0.258962
H19   H     H_    0.567728 0.889996 0.407879 0.239935
C65   C     C_3   0.659384 0.835374 0.428052 -0.659382
H20   H     H_    0.686969 0.862760 0.392158 0.228799
H21   H     H_    0.677342 0.778249 0.429667 0.290272
H22   H     H_    0.673822 0.863102 0.468391 0.204087
N6    N     N_2   0.598570 0.161108 0.431715 -0.284490
H23   H     H_    0.645832 0.188127 0.427543 0.273369
C66   C     C_3   0.571441 0.137209 0.377299 -0.703120
H24   H     H_    0.612438 0.106186 0.354227 0.234800
H25   H     H_    0.556375 0.184754 0.350958 0.250870
H26   H     H_    0.525151 0.101163 0.383324 0.241043
N7    N     N_2   0.415684 0.837913 0.580811 -0.261232
H27   H     H_    0.432446 0.889182 0.592105 0.239715
C67   C     C_3   0.340712 0.833641 0.571904 -0.641133
H28   H     H_    0.313160 0.860671 0.607816 0.229627
H29   H     H_    0.322676 0.776332 0.570237 0.296434
H30   H     H_    0.326319 0.861298 0.531586 0.201836
N8    N     N_2   0.401380 0.159871 0.568211 -0.284586
H31   H     H_    0.354127 0.186336 0.572395 0.273147
C68   C     C_3   0.428494 0.136192 0.622614 -0.703124
H32   H     H_    0.387483 0.104661 0.645664 0.235400
H33   H     H_    0.443581 0.183865 0.648984 0.249557
H34   H     H_    0.474768 0.100685 0.616571 0.241565
F7    F     F_    0.691144 0.569832 0.403219 -0.606503
F8    F     F_    0.308851 0.423018 0.406809 -0.652818
F9    F     F_    0.270933 0.577766 0.568579 -0.611654
F10   F     F_    0.728918 0.429431 0.572653 -0.645344
N9    N     N_2   0.924711 0.631780 0.451257 -0.306230
H35   H     H_    0.944018 0.671152 0.424093 0.236132
C69   C     C_3   0.907474 0.659364 0.507349 -0.750850
H36   H     H_    0.874724 0.708658 0.503044 0.243539
H37   H     H_    0.955939 0.673759 0.531008 0.231288
H38   H     H_    0.877218 0.618450 0.532175 0.256767
N10   N     N_2   0.075491 0.367053 0.458283 -0.308340
H39   H     H_    0.056469 0.325453 0.433250 0.234961
C70   C     C_3   0.092084 0.344342 0.515746 -0.730736
H40   H     H_    0.124817 0.294760 0.514138 0.246888
H41   H     H_    0.043345 0.332066 0.540065 0.228495
H42   H     H_    0.122120 0.387274 0.538354 0.259913
N11   N     N_2   0.074768 0.632775 0.444593 -0.305790
H43   H     H_    0.052700 0.676768 0.464760 0.235579
C71   C     C_3   0.099966 0.649221 0.387774 -0.740258
H44   H     H_    0.132408 0.699411 0.388885 0.242820
H45   H     H_    0.055065 0.657835 0.358522 0.234000
H46   H     H_    0.133022 0.604373 0.371295 0.257215
N12   N     N_2   0.925549 0.365517 0.451524 -0.305554
H47   H     H_    0.947406 0.323277 0.473915 0.235438
C72   C     C_3   0.900790 0.344417 0.395695 -0.718061
H48   H     H_    0.868298 0.294447 0.399417 0.245942
H49   H     H_    0.945920 0.333372 0.366918 0.229446
H50   H     H_    0.867899 0.387825 0.376961 0.260392

loop_
_geom_bond_atom_site_label_1
_geom_bond_atom_site_label_2
_ccdc_geom_bond_type
C44   C49   S    
C1    O1    A    
C70   H42   S    
C1    O4    A    
C72   H49   S    
C41   C43   A    
C61   F1    S    
N11   H43   S    
C54   N2    A    
C52   O10   S    
N9    H35   S    
C15   C19   A    
C69   H37   S    
C46   C49   A    
C59   C64   A    
C30   N10   S    
C52   C60   A    
C38   N4    A    
C60   C63   A    
C17   C26   A    
C22   H18   S    
C37   N3    A    
N11   C71   S    
C38   C42   A    
C35   F3    S    
N10   C70   S    
C57   C59   A    
C58   C60   A    
C66   H24   S    
C70   H41   S    
C11   C13   A    
C7    C27   S    
C61   C63   A    
O4    Zn2   S    
C52   N2    A    
C67   H30   S    
C62   C64   A    
C11   H13   S    
C42   N8    S    
C45   H1    S    
C10   H12   S    
C20   C24   A    
C66   H25   S    
C12   H14   S    
N5    H19   S    
C31   C33   A    
C27   O5    A    
C64   H6    S    
N12   C72   S    
N4    Zn2   S    
O7    Zn1   S    
C3    C13   A    
C31   N11   S    
C66   H26   S    
N7    C67   S    
C37   C41   A    
C72   H50   S    
C5    H9    S    
N5    C65   S    
C71   H45   S    
C18   C25   A    
C42   C44   A    
C14   N1    S    
C47   H3    S    
C6    H10   S    
C47   C50   A    
O1    Zn1   S    
C53   C55   A    
C16   C26   A    
C69   H38   S    
C54   C56   A    
C20   H16   S    
C63   H5    S    
C36   C40   A    
C4    C6    A    
C71   H46   S    
C5    C7    A    
C19   C23   A    
C39   C43   A    
C53   O11   S    
C29   C34   A    
C48   H4    S    
N6    C66   S    
C28   O7    A    
C32   C34   A    
C38   F6    S    
C2    O3    A    
C35   C39   A    
C68   H33   S    
C37   F5    S    
N3    Zn1   S    
C40   N6    S    
C13   N2    S    
O8    Zn2   S    
C16   C20   A    
C23   C34   S    
C28   O6    A    
C41   N7    S    
C19   H15   S    
C9    C11   A    
C67   H28   S    
O2    Zn2   S    
C10   C12   A    
C48   C49   A    
C29   N9    S    
O3    Zn1   S    
C55   C57   A    
C17   F9    S    
C1    C26   S    
C8    C28   S    
C56   C62   A    
C2    O2    A    
C65   H22   S    
C51   C59   A    
C68   H32   S    
C51   N1    A    
C4    H8    S    
O6    Zn2   S    
N6    H23   S    
C45   C48   A    
N9    C69   S    
C46   C47   A    
C30   C33   A    
C18   C22   A    
C21   H17   S    
C3    C5    A    
C39   N5    S    
C6    C8    A    
N7    H27   S    
C43   C50   S    
C46   H2    S    
C3    H7    S    
C69   H36   S    
C24   C33   S    
C36   F4    S    
C53   N1    A    
C36   N4    A    
C65   H21   S    
C12   C14   A    
C68   H34   S    
C29   C31   A    
C71   H44   S    
C30   C32   A    
C35   N3    A    
C57   C58   A    
N8    H31   S    
C45   C50   A    
C55   C61   A    
C56   C58   A    
C18   F10   S    
C2    C25   S    
C4    C14   A    
C16   F8    S    
C17   C21   A    
C67   H29   S    
C15   C25   A    
C32   N12   S    
C7    C9    A    
C40   C44   A    
C15   F7    S    
C8    C10   A    
C21   C24   A    
C65   H20   S    
C72   H48   S    
N8    C68   S    
C22   C23   A    
C54   O12   S    
C27   O8    A    
C9    H11   S    
O5    Zn1   S    
N12   H47   S    
N10   H39   S    
C70   H40   S    
C51   O9    S    
C62   F2    S    
