data_mof_unit_59803.cif
_audit_creation_date              2012-12-10T20:28:38-0500
_audit_creation_method            fapswitch 2.2
_symmetry_space_group_name_H-M    P1
_symmetry_Int_Tables_number       1
_space_group_crystal_system       triclinic
_cell_length_a                    10.615883
_cell_length_b                    10.733802
_cell_length_c                    9.922476
_cell_angle_alpha                 88.290715
_cell_angle_beta                  90.980109
_cell_angle_gamma                 91.242133
_cell_volume                      1129.73217361

loop_
_atom_site_label
_atom_site_type_symbol
_atom_type_description
_atom_site_fract_x
_atom_site_fract_y
_atom_site_fract_z
_atom_type_partial_charge
C1    C     C_R   0.511787 0.260619 0.501159 0.887135
C2    C     C_R   0.060756 0.532418 0.617861 0.030911
C3    C     C_R   0.124276 0.528546 0.495202 -0.249506
C4    C     C_R   0.057583 0.502822 0.375920 0.239438
C5    C     C_R   0.936039 0.455038 0.383311 0.250425
C6    C     C_R   0.873300 0.455545 0.506675 -0.210627
C7    C     C_R   0.539189 0.057335 0.619170 0.200558
C8    C     C_R   0.540534 0.129628 0.500522 -0.217230
C9    C     C_R   0.558675 0.068594 0.377596 -0.071740
C10   C     C_R   0.514600 0.944463 0.369506 -0.033196
C11   C     C_R   0.503942 0.873757 0.492262 -0.257587
C12   C     C_R   0.260107 0.514476 0.498248 0.902915
C13   C     C_R   0.526205 0.930754 0.614411 0.193058
C14   C     C_3   0.447253 0.922423 0.737605 -0.417358
C15   C     C_3   0.463753 0.061955 0.744028 -0.458168
C16   C     C_R   0.404525 0.442329 0.071417 0.165014
C17   C     C_R   0.586738 0.569798 0.071270 -0.099332
C18   C     C_R   0.585020 0.571289 0.926853 0.260458
C19   C     C_R   0.403643 0.444253 0.929202 0.128454
C20   C     C_3   0.365974 0.311099 0.924655 -0.435549
C21   C     C_3   0.370213 0.306592 0.078127 -0.261811
C22   C     C_R   0.495035 0.740241 0.497348 0.887431
C23   C     C_R   0.738842 0.481136 0.501995 0.966684
C24   C     C_R   0.111549 0.595126 0.729603 -0.137524
C25   C     C_R   0.054389 0.582617 0.853922 -0.052308
C26   C     C_R   0.952904 0.499707 0.870920 -0.095107
C27   C     C_R   0.897900 0.440806 0.759597 0.012710
C28   C     C_R   0.942402 0.473491 0.628174 0.056387
H1    H     H_    0.493981 0.871710 0.823199 0.259207
H2    H     H_    0.373786 0.111984 0.728568 0.205017
H3    H     H_    0.524306 0.087597 0.831711 0.245583
H4    H     H_    0.271837 0.297908 0.875778 0.238860
H5    H     H_    0.442919 0.259796 0.881479 0.195517
H6    H     H_    0.447501 0.248754 0.120483 0.160634
H7    H     H_    0.193855 0.656033 0.720402 0.150339
H8    H     H_    0.092649 0.633876 0.937457 0.206390
H9    H     H_    0.916968 0.481728 0.970703 0.229891
H10   H     H_    0.348429 0.891558 0.715906 0.191189
N1    N     N_R   0.499160 0.499140 0.142800 -0.174896
N2    N     N_R   0.499160 0.499180 0.857150 -0.153632
O1    O     O_R   0.500020 0.316790 0.614690 -0.597970
O2    O     O_R   0.500000 0.316760 0.385350 -0.673435
O3    O     O_R   0.316770 0.500020 0.614690 -0.622476
O4    O     O_R   0.316760 0.499980 0.385350 -0.590646
O5    O     O_R   0.500000 0.683240 0.614650 -0.574497
O6    O     O_R   0.499980 0.683210 0.385310 -0.678007
O7    O     O_R   0.683240 0.500020 0.614650 -0.583440
O8    O     O_R   0.683230 0.499980 0.385310 -0.617641
Zn1   Zn    Zn3+2 0.500010 0.500020 0.653130 0.987637
Zn2   Zn    Zn3+2 0.499990 0.499980 0.346870 0.948994
Br1   Br    Br    0.119625 0.557404 0.202554 -0.496225
C29   C     C_2   0.682783 0.645392 0.143930 0.600630
H11   H     H_    0.658578 0.697204 0.230333 0.102060
O9    O     O_2   0.792295 0.650101 0.108426 -0.519664
Br2   Br    Br    0.696307 0.684328 0.829476 -0.431986
C30   C     C_2   0.246616 0.279405 0.146251 0.575004
H12   H     H_    0.239745 0.293213 0.253685 0.086436
O10   O     O_2   0.154814 0.239361 0.084183 -0.516648
C31   C     C_2   0.805073 0.338019 0.786595 0.490504
H13   H     H_    0.760575 0.328895 0.884239 0.077519
O11   O     O_2   0.780564 0.260273 0.702167 -0.578582
Br3   Br    Br    0.864612 0.374192 0.228213 -0.465959
C32   C     C_2   0.634303 0.127058 0.266506 0.526784
H14   H     H_    0.649334 0.226388 0.257665 0.111220
O12   O     O_2   0.688457 0.062852 0.186986 -0.488414
C33   C     C_2   0.455484 0.900512 0.240442 0.439202
H15   H     H_    0.395601 0.817707 0.239095 0.105182
O13   O     O_2   0.464024 0.961077 0.134812 -0.554217

loop_
_geom_bond_atom_site_label_1
_geom_bond_atom_site_label_2
_ccdc_geom_bond_type
C21   C30   S    
C33   O13   D    
C24   C25   A    
C32   O12   D    
C26   H9    S    
C15   H3    S    
C16   C21   S    
C3    C12   S    
C14   H10   S    
C1    C8    S    
C9    C10   A    
O6    Zn2   S    
C11   C22   S    
C19   C20   S    
C20   H4    S    
O5    Zn1   S    
C4    Br1   S    
C10   C11   A    
C22   O5    A    
C7    C15   S    
C17   C18   A    
C23   O8    A    
C7    C8    A    
O7    Zn1   S    
C31   H13   S    
C27   C31   S    
C13   C14   S    
C29   H11   S    
C1    O1    A    
C11   C13   A    
C26   C27   A    
C4    C5    A    
C18   Br2   S    
O2    Zn2   S    
C16   C19   A    
C6    C23   S    
C17   C29   S    
O8    Zn2   S    
C22   O6    A    
C29   O9    D    
C5    Br3   S    
C2    C3    A    
C12   O3    A    
C19   N2    A    
C10   C33   S    
C2    C24   A    
C5    C6    A    
C31   O11   D    
C24   H7    S    
C23   O7    A    
C30   H12   S    
C20   H5    S    
C25   H8    S    
O4    Zn2   S    
N2    Zn1   S    
C1    O2    A    
C7    C13   A    
N1    Zn2   S    
C33   H15   S    
C20   C21   S    
C15   H2    S    
C12   O4    A    
C14   H1    S    
C17   N1    A    
O1    Zn1   S    
C27   C28   A    
C18   N2    A    
C14   C15   S    
O3    Zn1   S    
C2    C28   A    
C21   H6    S    
C16   N1    A    
C25   C26   A    
C9    C32   S    
C6    C28   A    
C3    C4    A    
C30   O10   D    
C8    C9    A    
C32   H14   S    
