data_mof_unit_25360.cif
_audit_creation_date              2013-03-05T15:55:17-0500
_audit_creation_method            fapswitch 2.2
_symmetry_space_group_name_H-M    P1
_symmetry_Int_Tables_number       1
_space_group_crystal_system       triclinic
_cell_length_a                    27.735815
_cell_length_b                    10.582347
_cell_length_c                    9.912935
_cell_angle_alpha                 90.224464
_cell_angle_beta                  89.522068
_cell_angle_gamma                 91.653266
_cell_volume                      2908.21370778

loop_
_atom_site_label
_atom_site_type_symbol
_atom_site_description
_atom_site_fract_x
_atom_site_fract_y
_atom_site_fract_z
_atom_type_partial_charge
O1    O     O_R   0.500000 0.316780 0.614690 -0.633926
O2    O     O_R   0.500000 0.316750 0.385360 -0.637273
C1    C     C_R   0.500907 0.260784 0.499984 0.848267
O3    O     O_R   0.428760 0.500030 0.614650 -0.640797
O4    O     O_R   0.428750 0.500010 0.385320 -0.645115
C2    C     C_R   0.406111 0.499896 0.500684 0.852328
Zn1   Zn    Zn3+2 0.500000 0.500020 0.653130 0.928086
Zn2   Zn    Zn3+2 0.500000 0.499980 0.346870 0.988836
O5    O     O_R   0.500000 0.683250 0.614640 -0.617706
O6    O     O_R   0.500000 0.683220 0.385310 -0.584429
O7    O     O_R   0.571250 0.499990 0.614680 -0.640555
O8    O     O_R   0.571240 0.499970 0.385350 -0.524289
C3    C     C_R   0.500398 0.739328 0.500215 0.875923
C4    C     C_R   0.593922 0.500015 0.499605 0.892103
C5    C     C_R   0.177892 0.368135 0.511894 0.535601
O9    O     O_2   0.203690 0.261976 0.512391 -0.507275
N1    N     N_R   0.201576 0.482872 0.509183 -0.366070
C6    C     C_R   0.177733 0.593496 0.507079 0.486139
C7    C     C_R   0.278400 0.485396 0.632112 0.215670
C8    C     C_R   0.328733 0.490682 0.627456 -0.242639
C9    C     C_R   0.327522 0.501586 0.382877 -0.241925
C10   C     C_R   0.277516 0.495855 0.386205 -0.138732
C11   C     C_R   0.252936 0.487618 0.509657 0.289558
C12   C     C_R   0.101621 0.475043 0.514539 -0.124690
C13   C     C_R   0.127121 0.361271 0.514617 -0.147981
C14   C     C_R   0.101329 0.244870 0.517509 0.561924
C15   C     C_R   0.127422 0.591791 0.509898 0.011014
C16   C     C_R   0.353435 0.497821 0.503398 -0.074343
H1    H     H_    0.345825 0.507637 0.286058 0.173429
H2    H     H_    0.257645 0.497824 0.292678 0.140372
C17   C     C_R   0.646501 0.491839 0.500420 -0.217654
C18   C     C_R   0.973346 0.352869 0.519750 0.007317
C19   C     C_R   0.974652 0.586081 0.529716 0.062812
C20   C     C_R   0.948688 0.468398 0.524744 0.072914
C21   C     C_R   0.945733 0.238701 0.511681 -0.318825
C22   C     C_R   0.895493 0.236845 0.506875 0.559636
C23   C     C_R   0.870837 0.351015 0.515777 -0.148990
C24   C     C_R   0.897505 0.466637 0.524965 -0.122331
C25   C     C_R   0.872881 0.581143 0.534136 -0.011517
C26   C     C_R   0.822616 0.579021 0.531380 0.574413
N2    N     N_R   0.797601 0.466938 0.518944 -0.335115
C27   C     C_R   0.820108 0.354053 0.513239 0.534415
C28   C     C_R   0.718153 0.434147 0.620908 -0.183413
C29   C     C_R   0.668521 0.444301 0.616064 -0.333405
C30   C     C_R   0.675111 0.529547 0.388358 0.389249
C31   C     C_R   0.725051 0.512271 0.391101 0.468178
C32   C     C_R   0.746394 0.468960 0.509482 0.158633
O10   O     O_2   0.793254 0.246098 0.503511 -0.506567
C33   C     C_R   0.024610 0.354978 0.521520 0.006360
C34   C     C_R   0.050438 0.472654 0.518829 0.069877
C35   C     C_R   0.025653 0.588347 0.520742 0.062360
C36   C     C_R   0.051122 0.242929 0.524915 -0.320174
H3    H     H_    0.647350 0.415097 0.703429 0.199612
H4    H     H_    0.734838 0.400396 0.711819 0.173228
H5    H     H_    0.961725 0.147494 0.506826 0.153918
H6    H     H_    0.034339 0.150573 0.534964 0.158158
O11   O     O_2   0.202849 0.704686 0.503214 -0.560426
C37   C     C_R   0.102725 0.704468 0.507610 -0.137559
H7    H     H_    0.348518 0.489316 0.721220 0.168007
H8    H     H_    0.121872 0.794937 0.502340 0.191237
C38   C     C_R   0.948528 0.698191 0.544451 -0.220427
C39   C     C_R   0.898684 0.695531 0.545852 -0.138206
O12   O     O_2   0.798683 0.688143 0.540616 -0.536563
C40   C     C_R   0.052898 0.703111 0.511723 -0.222096
H9    H     H_    0.965334 0.790303 0.557483 0.143042
H10   H     H_    0.880425 0.784319 0.555797 0.201946
H11   H     H_    0.037010 0.794427 0.505020 0.138919
H12   H     H_    0.429699 0.110352 0.434454 0.147134
C41   C     C_R   0.587802 0.137505 0.580495 -0.280980
H13   H     H_    0.589668 0.239540 0.578194 0.168268
C42   C     C_R   0.628701 0.074631 0.621161 -0.183423
H14   H     H_    0.660826 0.128869 0.649059 0.181983
C43   C     C_R   0.628397 0.942862 0.627085 0.583425
C44   C     C_R   0.586906 0.874199 0.584998 -0.349457
H15   H     H_    0.587751 0.772294 0.582052 0.145563
C45   C     C_R   0.545237 0.937091 0.543791 0.030335
C46   C     C_R   0.545571 0.069167 0.542443 0.095928
C47   C     C_R   0.503481 0.128676 0.500448 -0.052955
C48   C     C_R   0.462132 0.061924 0.461105 -0.249583
H16   H     H_    0.429867 0.880237 0.428711 0.150173
C49   C     C_R   0.462103 0.932827 0.459503 -0.225053
C50   C     C_R   0.503083 0.871780 0.500953 -0.059254
C51   C     C_R   0.438839 0.328033 0.138935 -0.194335
H17   H     H_    0.436768 0.325101 0.245980 0.218405
C52   C     C_R   0.409262 0.240056 0.069240 0.165114
C53   C     C_R   0.408438 0.243990 0.927178 0.126544
C54   C     C_R   0.438051 0.332737 0.860048 -0.213054
H18   H     H_    0.435796 0.332618 0.753349 0.217998
C55   C     C_R   0.469547 0.416849 0.928046 0.116794
C56   C     C_R   0.469782 0.415752 0.071999 0.015800
N3    N     N_R   0.499540 0.498800 0.142780 -0.151548
C57   C     C_R   0.527807 0.583908 0.071797 0.595991
H19   H     H_    0.552547 0.644961 0.872333 0.154612
C58   C     C_R   0.528627 0.581019 0.927704 -0.232713
N4    N     N_R   0.499520 0.498720 0.857170 -0.128044
C59   C     C_3   0.253024 0.480447 0.767934 -0.408688
C60   C     C_3   0.260988 0.355244 0.839271 -0.853276
H20   H     H_    0.248961 0.274666 0.774481 0.298653
H21   H     H_    0.299661 0.345733 0.863963 0.245140
H22   H     H_    0.239878 0.352008 0.934927 0.250399
H23   H     H_    0.266983 0.559523 0.832051 0.208473
H24   H     H_    0.213612 0.492785 0.758458 0.214362
O13   O     O_3   0.654651 0.580459 0.274859 -0.574384
C61   C     C_3   0.658897 0.713423 0.283943 -0.124035
H25   H     H_    0.648197 0.754233 0.186202 0.188334
H26   H     H_    0.696598 0.747437 0.303161 0.178431
H27   H     H_    0.634309 0.749484 0.363324 0.144242
O14   O     O_3   0.753636 0.547917 0.282099 -0.593364
C62   C     C_3   0.755720 0.444709 0.192167 -0.280252
H28   H     H_    0.719394 0.418408 0.152203 0.186541
H29   H     H_    0.772077 0.361575 0.240498 0.167097
H30   H     H_    0.778994 0.472555 0.105090 0.191962
O15   O     O_3   0.670577 0.884720 0.663270 -0.590488
C63   C     C_3   0.661203 0.791496 0.762398 -0.257355
H31   H     H_    0.647012 0.702543 0.715896 0.168728
H32   H     H_    0.636248 0.824589 0.843040 0.135713
H33   H     H_    0.695743 0.769309 0.811365 0.213589
O16   O     O_3   0.557265 0.667782 0.142453 -0.563784
C64   C     C_3   0.544346 0.792910 0.113998 -0.335599
H34   H     H_    0.504625 0.805304 0.121223 0.165845
H35   H     H_    0.558209 0.823027 0.013340 0.144926
H36   H     H_    0.561312 0.856751 0.190146 0.193671
C65   C     C_3   0.380795 0.141377 0.150160 -0.444410
C66   C     C_3   0.341646 0.200454 0.236923 -0.847745
H37   H     H_    0.358095 0.258602 0.318663 0.252259
H38   H     H_    0.318353 0.259961 0.174123 0.264234
H39   H     H_    0.318871 0.124646 0.284413 0.270696
H40   H     H_    0.363515 0.067358 0.086476 0.226202
H41   H     H_    0.405986 0.090562 0.215354 0.206012
C67   C     C_3   0.377281 0.155081 0.842184 -0.435899
C68   C     C_3   0.402987 0.032011 0.813525 -0.826187
H42   H     H_    0.437431 0.051998 0.758607 0.272118
H43   H     H_    0.410888 0.982069 0.908718 0.248449
H44   H     H_    0.379781 0.969180 0.749913 0.257215
H45   H     H_    0.341581 0.135929 0.890296 0.217600
H46   H     H_    0.369117 0.199751 0.743864 0.207264
O17   O     O_3   0.124987 0.131592 0.521395 -0.559066
C69   C     C_3   0.122496 0.074587 0.392616 -0.238369
H47   H     H_    0.135129 0.140624 0.311551 0.159073
H48   H     H_    0.085318 0.038079 0.371410 0.126528
H49   H     H_    0.146730 0.993078 0.390612 0.206987
O18   O     O_3   0.870704 0.121426 0.503667 -0.557163
C70   C     C_3   0.872849 0.071990 0.371432 -0.222504
H50   H     H_    0.910176 0.045774 0.343514 0.124943
H51   H     H_    0.858599 0.139357 0.296515 0.157050
H52   H     H_    0.849857 0.984547 0.367124 0.213695

loop_
_geom_bond_atom_site_label_1
_geom_bond_atom_site_label_2
_geom_bond_distance
_ccdc_geom_bond_type
C70   H52   1.109433 S    
C54   H18   1.060063 S    
H19   C58   1.081775 S    
C59   H24   1.109441 S    
N2    C27   1.364496 A    
C41   C46   1.411951 A    
C21   C22   1.394236 A    
C12   C15   1.410490 A    
C4    C17   1.463450 S    
C68   H44   1.110315 S    
C61   H26   1.113702 S    
C63   H31   1.109844 S    
C65   H40   1.105123 S    
C65   C66   1.526101 S    
C30   C31   1.402875 A    
Zn1   O7    2.009483 S    
N1    C11   1.423991 S    
C26   O12   1.350892 S    
C44   C45   1.414170 A    
C22   C23   1.407473 A    
C62   H29   1.113230 S    
O4    C2    1.300031 A    
O7    C4    1.297971 A    
C5    C13   1.407984 A    
C37   H8    1.082547 S    
C70   H50   1.112022 S    
C60   H20   1.110743 S    
C43   O15   1.387855 S    
O14   C62   1.409294 S    
C70   H51   1.114107 S    
C43   C44   1.408448 A    
C23   C27   1.408749 A    
C41   C42   1.394739 A    
C22   O18   1.384611 S    
O16   C64   1.411856 S    
C57   O16   1.381583 S    
C30   O13   1.382461 S    
C29   H3    1.083262 S    
C2    C16   1.460546 S    
C7    C8    1.395913 A    
C31   O14   1.382053 S    
O6    C3    1.282432 A    
C52   C65   1.518463 S    
C6    C15   1.395052 A    
C38   C39   1.381904 A    
C46   C47   1.408995 A    
C14   O17   1.383925 S    
H12   C48   1.083166 S    
O1    Zn1   1.974730 S    
C59   H23   1.111469 S    
C65   H41   1.107670 S    
C37   C40   1.381930 A    
C41   H13   1.079834 S    
O3    Zn1   2.015510 S    
C61   H25   1.108522 S    
C60   H21   1.109679 S    
C49   C50   1.389354 A    
C64   H35   1.110885 S    
C12   C34   1.419375 A    
O2    Zn2   1.977652 S    
O18   C70   1.410899 S    
C17   C29   1.405053 A    
C39   H10   1.083938 S    
C21   H5    1.074530 S    
C40   H11   1.076081 S    
C12   C13   1.413833 A    
O3    C2    1.297196 A    
C44   H15   1.079600 S    
C62   H30   1.109210 S    
C45   C50   1.408664 A    
N3    C57   1.369658 A    
C42   C43   1.395664 A    
C53   C54   1.396680 A    
C53   C67   1.516874 S    
C8    C16   1.403991 A    
C34   C35   1.421271 A    
C13   C14   1.406751 A    
C52   C53   1.409427 A    
C9    H1    1.083250 S    
C3    C50   1.401471 S    
C69   H49   1.108720 S    
O1    C1    1.280547 A    
C18   C20   1.418477 A    
C55   N4    1.374348 A    
C7    C11   1.410096 A    
C28   C29   1.385123 A    
C18   C21   1.414037 A    
C23   C24   1.414397 A    
C14   C36   1.393418 A    
C6    O11   1.350510 S    
C51   H17   1.062725 S    
Zn2   O8    2.015507 S    
C33   C36   1.413815 A    
C59   C60   1.526813 S    
C57   C58   1.428601 A    
N1    C6    1.361351 A    
N2    C32   1.424930 S    
Zn2   N3    2.023265 S    
C27   O10   1.349225 S    
C45   C46   1.397561 A    
C8    H7    1.083670 S    
C69   H48   1.112089 S    
C66   H39   1.110388 S    
Zn2   O6    1.974729 S    
C26   N2    1.362436 A    
C51   C52   1.406204 A    
C67   H45   1.109187 S    
O8    C4    1.300165 A    
C54   C55   1.403563 A    
C68   H42   1.110991 S    
C25   C26   1.394165 A    
C60   H22   1.110377 S    
C66   H38   1.111180 S    
O15   C63   1.412432 S    
C64   H36   1.109617 S    
Zn1   O5    1.977654 S    
C51   C56   1.409923 A    
O5    C3    1.282026 A    
C31   C32   1.403222 A    
C10   H2    1.083084 S    
C20   C24   1.419157 A    
C9    C16   1.400657 A    
C67   H46   1.112708 S    
C35   C40   1.414480 A    
H16   C49   1.084803 S    
C68   H43   1.109892 S    
C15   C37   1.392532 A    
O4    Zn2   2.009485 S    
C63   H32   1.115054 S    
C64   H34   1.114906 S    
C5    N1    1.363980 A    
C19   C35   1.416109 A    
Zn1   N4    2.022665 S    
O17   C69   1.411159 S    
C48   C49   1.366160 A    
O2    C1    1.284173 A    
C42   H14   1.083124 S    
C62   H28   1.113176 S    
C47   C48   1.387414 A    
C56   N3    1.381614 A    
C24   C25   1.410269 A    
C36   H6    1.074956 S    
C19   C20   1.421383 A    
C67   C68   1.527256 S    
C58   N4    1.364995 A    
C28   H4    1.083002 S    
C18   C33   1.421639 A    
C63   H33   1.109105 S    
C69   H47   1.114650 S    
C38   H9    1.076065 S    
C19   C38   1.414323 A    
C33   C34   1.418838 A    
C17   C30   1.411888 A    
O13   C61   1.411181 S    
C25   C39   1.393287 A    
C10   C11   1.397672 A    
C55   C56   1.427164 A    
C9    C10   1.386673 A    
C1    C47   1.401913 S    
C28   C32   1.393340 A    
C61   H27   1.110701 S    
C7    C59   1.514428 S    
C5    O9    1.349289 S    
C66   H37   1.108784 S    
