data_mof_unit_46606.cif
_audit_creation_date              2013-03-05T16:48:15-0500
_audit_creation_method            fapswitch 2.2
_symmetry_space_group_name_H-M    P1
_symmetry_Int_Tables_number       1
_space_group_crystal_system       triclinic
_cell_length_a                    23.445601
_cell_length_b                    8.925704
_cell_length_c                    8.098859
_cell_angle_alpha                 90.026348
_cell_angle_beta                  90.0
_cell_angle_gamma                 89.999955
_cell_volume                      1694.83585193

loop_
_atom_site_label
_atom_site_type_symbol
_atom_site_description
_atom_site_fract_x
_atom_site_fract_y
_atom_site_fract_z
_atom_type_partial_charge
O1    O     O_R   0.500000 0.285350 0.636850 -0.613436
O2    O     O_R   0.500000 0.714650 0.363150 -0.613436
O3    O     O_R   0.500000 0.714650 0.636850 -0.613123
O4    O     O_R   0.500000 0.285350 0.363150 -0.613123
C1    C     C_R   0.500000 0.217978 0.499976 0.946005
C2    C     C_R   0.500000 0.782022 0.500024 0.946005
O5    O     O_R   0.416160 0.500000 0.636910 -0.623281
O6    O     O_R   0.583840 0.500000 0.363090 -0.623278
O7    O     O_R   0.583840 0.500000 0.636910 -0.623278
O8    O     O_R   0.416160 0.500000 0.363090 -0.623281
C3    C     C_R   0.208170 0.500000 0.500001 0.319988
C4    C     C_R   0.791831 0.500001 0.500000 0.319403
C5    C     C_R   0.388973 0.500000 0.500000 0.872404
C6    C     C_R   0.611026 0.500000 0.500000 0.872413
Zn1   Zn    Zn3+2 0.500000 0.500000 0.682780 0.995974
Zn2   Zn    Zn3+2 0.500000 0.500000 0.317220 0.995974
H1    H     H_    0.214548 0.489866 0.765569 0.138200
H2    H     H_    0.785441 0.486876 0.765353 0.138513
H3    H     H_    0.214548 0.510134 0.234432 0.138200
H4    H     H_    0.785441 0.513127 0.234647 0.138513
C7    C     C_R   0.296827 0.494336 0.650043 -0.205766
C8    C     C_R   0.703167 0.492660 0.649916 -0.205983
C9    C     C_R   0.296827 0.505664 0.349958 -0.205767
C10   C     C_R   0.703167 0.507341 0.350084 -0.205983
H5    H     H_    0.319036 0.489868 0.767232 0.164315
H6    H     H_    0.680955 0.486831 0.766998 0.164363
H7    H     H_    0.319037 0.510132 0.232769 0.164315
H8    H     H_    0.680955 0.513170 0.233002 0.164363
C11   C     C_R   0.326777 0.500000 0.500000 -0.041417
C12   C     C_R   0.673219 0.500000 0.500000 -0.041416
C13   C     C_R   0.880618 0.631357 0.470494 0.505239
C14   C     C_R   0.119397 0.368655 0.529567 0.505304
C15   C     C_R   0.880618 0.368645 0.529506 0.505239
C16   C     C_R   0.119398 0.631344 0.470434 0.505304
N1    N     N_R   0.852455 0.500001 0.500000 -0.363324
N2    N     N_R   0.147554 0.500000 0.500000 -0.363416
C17   C     C_R   0.940164 0.365788 0.530232 -0.013041
C18   C     C_R   0.059851 0.634212 0.469744 -0.013094
C19   C     C_R   0.940164 0.634214 0.469768 -0.013041
C20   C     C_R   0.059851 0.365789 0.530257 -0.013094
C21   C     C_R   0.970051 0.500001 0.500000 -0.021083
C22   C     C_R   0.029964 0.500000 0.500000 -0.021079
C23   C     C_R   0.970323 0.232650 0.560085 -0.163034
C24   C     C_R   0.029692 0.767349 0.439896 -0.163053
C25   C     C_R   0.970324 0.767351 0.439915 -0.163034
C26   C     C_R   0.029692 0.232652 0.560104 -0.163054
C27   C     C_1   0.500000 0.065200 0.499966 -0.182457
C28   C     C_1   0.500000 0.934799 0.500034 -0.182457
C29   C     C_R   0.237625 0.494174 0.649796 -0.095852
C30   C     C_R   0.762369 0.492494 0.649668 -0.095615
C31   C     C_R   0.237625 0.505826 0.350205 -0.095850
C32   C     C_R   0.762369 0.507508 0.350332 -0.095616
N3    N     N_1   0.500000 0.500000 0.073640 -0.034935
N4    N     N_1   0.500000 0.500000 0.926360 -0.034935
O9    O     O_2   0.850939 0.758503 0.442886 -0.531633
O10   O     O_2   0.149083 0.241543 0.557302 -0.531518
O11   O     O_2   0.850939 0.241499 0.557114 -0.531633
O12   O     O_2   0.149083 0.758456 0.442698 -0.531518
H9    H     H_    0.948205 0.128289 0.583648 0.192482
H10   H     H_    0.051812 0.871707 0.416320 0.192467
H11   H     H_    0.948205 0.871713 0.416352 0.192482
H12   H     H_    0.051811 0.128293 0.583681 0.192467

loop_
_geom_bond_atom_site_label_1
_geom_bond_atom_site_label_2
_geom_bond_distance
_ccdc_geom_bond_type
O4    Zn2   1.951847 S    
C4    C30   1.396786 A    
O7    C6    1.278957 A    
C18   C24   1.403869 A    
O1    Zn1   1.951511 S    
C9    H7    1.083306 S    
C19   C21   1.409359 A    
O2    Zn2   1.951510 S    
C21   C22   1.404715 A    
C9    C31   1.388026 A    
C27   C28   1.163920 T    
C23   H9    1.083149 S    
C19   C25   1.403883 A    
O3    C2    1.261027 A    
C13   O9    1.349939 S    
C25   H11   1.083150 S    
C3    C29   1.396945 A    
O5    Zn1   2.000478 S    
O7    Zn1   2.000476 S    
O6    Zn2   2.000476 S    
O8    Zn2   2.000478 S    
N3    N4    1.192799 T    
C4    N1    1.421368 S    
C20   C26   1.403868 A    
C1    C27   1.363646 S    
O2    C2    1.260882 A    
C2    C28   1.363646 S    
C26   H12   1.083150 S    
H3    C31   1.083233 S    
O1    C1    1.260882 A    
C7    C29   1.388026 A    
C14   N2    1.366660 A    
C13   N1    1.366733 A    
C20   C22   1.409381 A    
C3    N2    1.421195 S    
C4    C32   1.396784 A    
C24   H10   1.083151 S    
C18   C22   1.409382 A    
C16   N2    1.366661 A    
C10   C32   1.388022 A    
C14   C20   1.396340 A    
C17   C21   1.409359 A    
C23   C26   1.391930 A    
O6    C6    1.278958 A    
C17   C23   1.403881 A    
C10   C12   1.404117 A    
C3    C31   1.396949 A    
H1    C29   1.083235 S    
Zn1   N4    1.972720 S    
C9    C11   1.404398 A    
C8    C30   1.388022 A    
O5    C5    1.278971 A    
O3    Zn1   1.951846 S    
C24   C25   1.391928 A    
H2    C30   1.083039 S    
H4    C32   1.083041 S    
C8    H6    1.083099 S    
C5    C11   1.458216 S    
C16   O12   1.349937 S    
C7    H5    1.083302 S    
Zn2   N3    1.972720 S    
C15   O11   1.349938 S    
C8    C12   1.404115 A    
C15   N1    1.366733 A    
C6    C12   1.458162 S    
C7    C11   1.404402 A    
C14   O10   1.349936 S    
C15   C17   1.396344 A    
C10   H8    1.083099 S    
C13   C19   1.396344 A    
O4    C1    1.261027 A    
O8    C5    1.278972 A    
C16   C18   1.396338 A    
