data_mof_unit_44961.cif
_audit_creation_date              2012-12-10T17:16:35-0500
_audit_creation_method            fapswitch 2.2
_symmetry_space_group_name_H-M    P1
_symmetry_Int_Tables_number       1
_space_group_crystal_system       triclinic
_cell_length_a                    10.324602
_cell_length_b                    10.563917
_cell_length_c                    10.61764
_cell_angle_alpha                 90.247525
_cell_angle_beta                  94.222379
_cell_angle_gamma                 82.211381
_cell_volume                      1144.2311107

loop_
_atom_site_label
_atom_site_type_symbol
_atom_type_description
_atom_site_fract_x
_atom_site_fract_y
_atom_site_fract_z
_atom_type_partial_charge
C1    C     C_R   0.445206 0.503470 0.267212 0.907873
C2    C     C_R   0.554844 0.496419 0.732640 0.940881
C3    C     C_2   0.417055 0.466498 0.138529 -0.243321
C4    C     C_2   0.583562 0.528836 0.862382 -0.246164
C5    C     C_2   0.461794 0.531600 0.048746 0.210171
C6    C     C_2   0.534608 0.463198 0.948917 0.221385
C7    C     C_2   0.072815 0.484618 0.494117 0.245272
C8    C     C_2   0.927142 0.515692 0.505478 0.243209
C9    C     C_R   0.504126 0.259602 0.517017 0.909388
C10   C     C_R   0.495956 0.740381 0.483734 0.862613
C11   C     C_R   0.748748 0.076953 0.494744 0.289462
C12   C     C_R   0.249701 0.921797 0.500534 0.282377
C13   C     C_R   0.827338 0.038305 0.396390 -0.034493
C14   C     C_R   0.171100 0.960529 0.598893 0.001083
C15   C     C_R   0.793089 0.941175 0.314725 0.284430
C16   C     C_R   0.204658 0.058650 0.679767 0.228304
C17   C     C_R   0.684128 0.879755 0.336411 0.029740
C18   C     C_R   0.313772 0.120175 0.656807 0.008479
C19   C     C_R   0.597586 0.930141 0.428875 -0.058467
C20   C     C_R   0.400127 0.069549 0.565358 -0.015057
C21   C     C_R   0.621402 0.041962 0.492411 -0.061378
C22   C     C_R   0.376736 0.957512 0.502506 -0.053598
C23   C     C_R   0.484574 0.877928 0.456090 -0.097114
C24   C     C_R   0.514078 0.121366 0.540501 -0.061103
H1    H     H_    0.591782 0.629301 0.876169 0.158782
H2    H     H_    0.414177 0.364718 0.128486 0.154129
N1    N     N_2   0.157300 0.551390 0.551120 -0.000252
N2    N     N_2   0.842700 0.448610 0.448880 -0.000536
O1    O     O_R   0.568940 0.489660 0.307530 -0.578881
O2    O     O_R   0.431060 0.510340 0.692470 -0.564484
O3    O     O_R   0.348880 0.522640 0.340350 -0.591401
O4    O     O_R   0.651120 0.477360 0.659650 -0.593651
O5    O     O_R   0.610030 0.300280 0.483580 -0.566446
O6    O     O_R   0.389970 0.699720 0.516420 -0.556729
O7    O     O_R   0.389970 0.333270 0.516400 -0.651570
O8    O     O_R   0.610030 0.666730 0.483600 -0.670501
Zn1   Zn    Zn3+2 0.646940 0.477980 0.478080 1.030648
Zn2   Zn    Zn3+2 0.353060 0.522020 0.521920 1.040514
Br1   Br    Br    0.107156 0.104331 0.824963 -0.357813
Br2   Br    Br    0.889467 0.895854 0.168900 -0.310672
Br3   Br    Br    0.817117 0.173847 0.634124 -0.376979
Br4   Br    Br    0.182384 0.822657 0.362362 -0.392556
N3    N     N_3   0.934257 0.106441 0.374572 -0.378046
H3    H     H_    0.920987 0.141163 0.281961 0.277105
H4    H     H_    0.020312 0.043076 0.381306 0.235105
N4    N     N_3   0.065081 0.891451 0.621506 -0.378678
H5    H     H_    0.978284 0.953688 0.613374 0.236830
H6    H     H_    0.078285 0.858117 0.714603 0.279634
N5    N     N_3   0.654603 0.780174 0.250945 -0.348250
H7    H     H_    0.559071 0.761092 0.256418 0.220064
H8    H     H_    0.718458 0.697410 0.276370 0.242654
N6    N     N_3   0.345813 0.222715 0.736614 -0.385928
H9    H     H_    0.355641 0.189646 0.829796 0.264358
H10   H     H_    0.267063 0.296368 0.728471 0.245068
Br5   Br    Br    0.576806 0.279525 0.947206 -0.418688
Br6   Br    Br    0.410632 0.714392 0.041980 -0.409245
N7    N     N_3   0.881922 0.626476 0.576456 -0.413424
H11   H     H_    0.834156 0.696807 0.514386 0.204661
H12   H     H_    0.820427 0.603637 0.643715 0.247778
N8    N     N_3   0.117971 0.374197 0.422613 -0.414049
H13   H     H_    0.165889 0.303608 0.484275 0.207299
H14   H     H_    0.179175 0.397357 0.355247 0.246034
Br7   Br    Br    0.864501 0.411034 0.276822 -0.363613
Br8   Br    Br    0.135210 0.588339 0.723254 -0.362239

loop_
_geom_bond_atom_site_label_1
_geom_bond_atom_site_label_2
_ccdc_geom_bond_type
C19   C23   A    
N3    H3    S    
N2    Br7   S    
C9    C24   S    
C8    N7    S    
C3    H2    S    
C11   C13   A    
C5    Br6   S    
C2    C4    S    
O3    Zn2   S    
C1    O3    A    
C6    Br5   S    
C2    O2    A    
N6    H10   S    
N5    H8    S    
C1    O1    A    
C4    H1    S    
C3    C5    D    
C18   N6    S    
C7    C8    S    
C14   N4    S    
C16   C18   A    
O4    Zn1   S    
C9    O5    A    
N3    H4    S    
N7    H11   S    
C12   Br4   S    
N2    Zn1   S    
N8    H14   S    
O8    Zn1   S    
C19   C21   A    
C12   C14   A    
C11   Br3   S    
C18   C20   A    
C13   C15   A    
C5    C6    S    
C8    N2    D    
C14   C16   A    
C15   Br2   S    
N7    H12   S    
C4    C6    D    
N1    Br8   S    
N1    Zn2   S    
O1    Zn1   S    
C10   O6    A    
N4    H6    S    
C12   C22   A    
C7    N8    S    
C13   N3    S    
O7    Zn2   S    
C7    N1    D    
N6    H9    S    
O2    Zn2   S    
C2    O4    A    
N5    H7    S    
C21   C24   A    
C17   N5    S    
C15   C17   A    
C20   C24   A    
N4    H5    S    
C10   C23   S    
C10   O8    A    
C16   Br1   S    
C17   C19   A    
O6    Zn2   S    
C11   C21   A    
C22   C23   A    
O5    Zn1   S    
C9    O7    A    
C20   C22   A    
N8    H13   S    
C1    C3    S    
