data_mof_unit_66063.cif
_audit_creation_date              2012-12-10T21:28:14-0500
_audit_creation_method            fapswitch 2.2
_symmetry_space_group_name_H-M    P1
_symmetry_Int_Tables_number       1
_space_group_crystal_system       triclinic
_cell_length_a                    12.90103
_cell_length_b                    16.141653
_cell_length_c                    16.862775
_cell_angle_alpha                 85.691008
_cell_angle_beta                  91.652788
_cell_angle_gamma                 98.85868
_cell_volume                      3459.34276066

loop_
_atom_site_label
_atom_site_type_symbol
_atom_type_description
_atom_site_fract_x
_atom_site_fract_y
_atom_site_fract_z
_atom_type_partial_charge
Br1   Br    Br    0.349032 0.321414 0.729058 -0.461007
Br2   Br    Br    0.650972 0.678584 0.270943 -0.461008
Br3   Br    Br    0.639997 0.292346 0.618795 -0.468417
Br4   Br    Br    0.360003 0.707654 0.381205 -0.468418
C1    C     C_R   0.498308 0.487238 0.652750 0.920113
C2    C     C_R   0.559246 0.592533 0.219552 0.265280
C3    C     C_R   0.452242 0.761584 0.458961 0.403348
C4    C     C_R   0.547758 0.238415 0.541039 0.403348
C5    C     C_R   0.455651 0.848526 0.462000 -0.279824
C6    C     C_R   0.544349 0.151474 0.538000 -0.279824
C7    C     C_R   0.521827 0.892630 0.517443 0.287751
C8    C     C_R   0.478172 0.107370 0.482556 0.287750
C9    C     C_R   0.583459 0.846587 0.568567 -0.282892
C10   C     C_R   0.416541 0.153413 0.431433 -0.282892
C11   C     C_R   0.578005 0.759298 0.563836 -0.048267
C12   C     C_R   0.501692 0.512762 0.347250 0.920115
C13   C     C_R   0.421995 0.240702 0.436164 -0.048267
C14   C     C_R   0.702703 0.515832 0.500706 0.908496
C15   C     C_R   0.297297 0.484168 0.499294 0.908495
C16   C     C_R   0.184987 0.474925 0.498786 -0.054413
C17   C     C_R   0.815013 0.525075 0.501214 -0.054413
C18   C     C_R   0.983874 0.611532 0.508870 -0.190521
C19   C     C_R   0.016126 0.388468 0.491130 -0.190522
C20   C     C_R   0.875698 0.604186 0.507785 -0.175778
C21   C     C_R   0.124302 0.395814 0.492215 -0.175779
C22   C     C_R   0.861781 0.453482 0.495413 -0.233933
C23   C     C_R   0.564012 0.533838 0.861621 -0.141105
C24   C     C_R   0.138219 0.546518 0.504587 -0.233933
C25   C     C_R   0.969272 0.460194 0.496595 0.171437
C26   C     C_R   0.030727 0.539806 0.503405 0.171436
C27   C     C_R   0.500626 0.476656 0.738592 -0.090386
C28   C     C_R   0.499375 0.523344 0.261408 -0.090385
C29   C     C_R   0.563444 0.538515 0.779581 -0.263799
C30   C     C_R   0.436557 0.461485 0.220419 -0.263798
C31   C     C_R   0.435990 0.466163 0.138379 -0.141105
C32   C     C_R   0.500186 0.467394 0.903658 0.272901
C33   C     C_R   0.499817 0.532606 0.096342 0.272901
C34   C     C_R   0.441901 0.403256 0.863083 -0.204799
C35   C     C_R   0.558102 0.596743 0.136917 -0.204799
C36   C     C_R   0.440756 0.407466 0.780448 0.265282
H1    H     H_    0.635600 0.878193 0.612045 0.165237
H2    H     H_    0.374078 0.275364 0.396433 0.143243
H3    H     H_    0.160201 0.339977 0.487713 0.174121
H4    H     H_    0.839799 0.660023 0.512286 0.174121
H5    H     H_    0.030627 0.672785 0.514041 0.154613
H6    H     H_    0.969373 0.327215 0.485959 0.154613
H7    H     H_    0.387489 0.417053 0.107952 0.163657
H8    H     H_    0.612512 0.582948 0.892047 0.163657
H9    H     H_    0.393549 0.351918 0.895899 0.175908
H10   H     H_    0.606456 0.648081 0.104102 0.175908
H11   H     H_    0.364400 0.121807 0.387955 0.165237
H12   H     H_    0.388516 0.408991 0.252006 0.166887
H13   H     H_    0.611484 0.591010 0.747993 0.166887
H14   H     H_    0.593389 0.119160 0.578968 0.187974
H15   H     H_    0.406611 0.880840 0.421032 0.187974
H16   H     H_    0.185134 0.607732 0.509971 0.183993
H17   H     H_    0.814866 0.392268 0.490029 0.183993
H18   H     H_    0.625921 0.724636 0.603568 0.143242
N1    N     N_2   0.489812 0.464725 0.986574 -0.181255
N2    N     N_2   0.510192 0.535275 0.013426 -0.181255
N3    N     N_R   0.512890 0.717880 0.509760 -0.109900
N4    N     N_R   0.487110 0.282120 0.490240 -0.109900
N5    N     N_2   0.528858 0.981692 0.523732 -0.162189
N6    N     N_2   0.471141 0.018307 0.476268 -0.162189
O1    O     O_R   0.495390 0.422190 0.612650 -0.542215
O2    O     O_R   0.504610 0.577810 0.387350 -0.542215
O3    O     O_R   0.503660 0.562120 0.618910 -0.642008
O4    O     O_R   0.496340 0.437880 0.381090 -0.642008
O5    O     O_R   0.650190 0.441600 0.497400 -0.600751
O6    O     O_R   0.349810 0.558400 0.502600 -0.600751
O7    O     O_R   0.658460 0.581530 0.503670 -0.625702
O8    O     O_R   0.341540 0.418470 0.496330 -0.625703
Zn1   Zn    Zn3+2 0.494480 0.406570 0.495820 1.014203
Zn2   Zn    Zn3+2 0.505520 0.593430 0.504180 1.014203

loop_
_geom_bond_atom_site_label_1
_geom_bond_atom_site_label_2
_ccdc_geom_bond_type
C23   H8    S    
O6    Zn2   S    
O7    Zn2   S    
C2    C28   A    
C17   C22   A    
C27   C29   A    
N4    Zn1   S    
O5    Zn1   S    
C25   C26   A    
C5    H15   S    
C23   C32   A    
C12   C28   S    
C14   C17   S    
C5    C7    A    
C15   C16   S    
C30   H12   S    
C10   H11   S    
C9    C11   A    
C1    O3    A    
C32   N1    S    
C31   H7    S    
C21   H3    S    
C14   O5    A    
C9    H1    S    
C11   N3    A    
O1    Zn1   S    
N1    N2    D    
C33   C35   A    
C19   H6    S    
C18   C26   A    
C23   C29   A    
C13   N4    A    
C34   C36   A    
C7    C9    A    
C10   C13   A    
C15   O8    A    
Br2   C2    S    
C6    C8    A    
Br4   C3    S    
C12   O4    A    
C19   C25   A    
C24   C26   A    
C31   C33   A    
C8    C10   A    
C30   C31   A    
C7    N5    S    
C19   C21   A    
O4    Zn1   S    
C24   H16   S    
C20   H4    S    
C22   H17   S    
C18   C20   A    
C33   N2    S    
C12   O2    A    
C16   C21   A    
C6    H14   S    
C32   C34   A    
O2    Zn2   S    
C11   H18   S    
C3    C5    A    
C35   H10   S    
C18   H5    S    
C29   H13   S    
C22   C25   A    
C1    O1    A    
Br3   C4    S    
C17   C20   A    
C14   O7    A    
O3    Zn2   S    
C8    N6    S    
C2    C35   A    
C3    N3    A    
C15   O6    A    
C16   C24   A    
Br1   C36   S    
C34   H9    S    
C27   C36   A    
C13   H2    S    
C4    C6    A    
N5    N6    D    
N3    Zn2   S    
C4    N4    A    
O8    Zn1   S    
C1    C27   S    
C28   C30   A    
