data_mof_unit_56207.cif
_audit_creation_date              2012-12-10T20:58:00-0500
_audit_creation_method            fapswitch 2.2
_symmetry_space_group_name_H-M    P1
_symmetry_Int_Tables_number       1
_space_group_crystal_system       triclinic
_cell_length_a                    18.211412
_cell_length_b                    18.238267
_cell_length_c                    18.370904
_cell_angle_alpha                 120.008061
_cell_angle_beta                  89.975651
_cell_angle_gamma                 119.915068
_cell_volume                      4320.53986504

loop_
_atom_site_label
_atom_site_type_symbol
_atom_type_description
_atom_site_fract_x
_atom_site_fract_y
_atom_site_fract_z
_atom_type_partial_charge
C1    C     C_R   0.360761 0.220045 0.361044 0.782642
C2    C     C_3   0.276137 0.577702 0.360335 -0.350829
C3    C     C_3   0.299992 0.500618 0.302372 0.170765
C4    C     C_3   0.197795 0.500286 0.200800 0.182737
C5    C     C_3   0.151207 0.390846 0.180293 -0.397990
C6    C     C_3   0.216423 0.577541 0.301078 -0.352672
C7    C     C_3   0.676975 0.941485 0.653257 -0.140202
C8    C     C_3   0.738664 0.062076 0.713816 -0.446687
C9    C     C_3   0.680563 0.937685 0.788232 -0.427744
C10   C     C_3   0.800206 0.941473 0.720362 -0.367808
C11   C     C_3   0.698735 0.897521 0.698089 0.103077
C12   C     C_R   0.640938 0.780943 0.640058 0.754099
C13   C     C_3   0.799456 0.102473 0.802444 0.180625
C14   C     C_3   0.738932 0.057729 0.848900 -0.398655
C15   C     C_3   0.858682 0.060673 0.779127 -0.368810
C16   C     C_3   0.638917 0.423409 0.201366 -0.383200
C17   C     C_3   0.698207 0.423577 0.142024 -0.385703
C18   C     C_3   0.760678 0.609782 0.322594 -0.390208
C19   C     C_3   0.755973 0.466483 0.317120 -0.402710
C20   C     C_3   0.697769 0.500002 0.301424 0.200139
C21   C     C_3   0.799089 0.499930 0.199899 0.203468
C22   C     C_3   0.820373 0.609738 0.262751 -0.396034
C23   C     C_R   0.359356 0.500661 0.640845 0.788784
C24   C     C_3   0.815623 0.466375 0.257280 -0.402947
C25   C     C_R   0.475388 0.183210 0.550632 -0.124937
C26   C     C_R   0.432278 0.141492 0.463266 -0.116918
C27   C     C_R   0.340276 0.097938 0.434525 0.153442
C28   C     C_R   0.291948 0.096201 0.493912 -0.139322
C29   C     C_R   0.335441 0.138607 0.581364 -0.132421
C30   C     C_R   0.427017 0.181884 0.609652 -0.104924
C31   C     C_R   0.236349 0.943542 0.285900 -0.257410
C32   C     C_R   0.191882 0.892307 0.196157 -0.052488
C33   C     C_R   0.203669 0.949441 0.160894 -0.011247
C34   C     C_R   0.640587 0.500141 0.359297 0.747034
C35   C     C_R   0.260895 0.056420 0.216349 -0.260801
C36   C     C_R   0.305475 0.107661 0.306079 -0.050826
C37   C     C_R   0.293504 0.050500 0.341367 -0.011317
C38   C     C_R   0.204917 0.903363 0.008206 -0.138191
C39   C     C_R   0.161212 0.860418 0.920639 -0.135804
C40   C     C_R   0.069561 0.816838 0.892362 -0.127580
C41   C     C_R   0.021302 0.815703 0.951488 -0.125426
C42   C     C_R   0.064629 0.857947 0.038983 -0.113687
C43   C     C_R   0.156732 0.901857 0.067729 0.149972
C44   C     C_R   0.915733 0.657132 0.587240 -0.139297
C45   C     C_R   0.641847 0.500726 0.640690 0.792189
C46   C     C_R   0.868563 0.593030 0.614926 -0.154325
C47   C     C_R   0.843252 0.629579 0.690619 0.153390
C48   C     C_R   0.866365 0.731096 0.738823 -0.123262
C49   C     C_R   0.913568 0.794929 0.710913 -0.140830
C50   C     C_R   0.938026 0.757890 0.635061 -0.097948
C51   C     C_R   0.841955 0.556996 0.772053 -0.280022
C52   C     C_R   0.799489 0.496587 0.803968 -0.020151
C53   C     C_R   0.705000 0.436774 0.781146 0.053182
C54   C     C_R   0.655819 0.441816 0.729081 -0.227282
C55   C     C_R   0.698323 0.502615 0.697485 -0.047496
C56   C     C_R   0.358013 0.500258 0.359490 0.763309
C57   C     C_R   0.792785 0.561716 0.719690 -0.016483
C58   C     C_R   0.633294 0.263958 0.751013 -0.175989
C59   C     C_R   0.585750 0.191705 0.770336 -0.094476
C60   C     C_R   0.558152 0.218534 0.844798 -0.129992
C61   C     C_R   0.578238 0.317893 0.900484 -0.204252
C62   C     C_R   0.626849 0.392752 0.882913 0.021722
C63   C     C_R   0.654293 0.364434 0.806301 0.056981
C64   C     C_R   0.392045 0.796434 0.710705 -0.191154
C65   C     C_R   0.372601 0.733410 0.740167 -0.139378
C66   C     C_R   0.291206 0.634952 0.695195 0.166960
C67   C     C_3   0.349242 0.533161 0.244077 -0.386134
C68   C     C_R   0.228426 0.601340 0.622148 -0.181276
C69   C     C_R   0.247531 0.664572 0.593041 -0.210900
C70   C     C_R   0.329922 0.762294 0.636367 0.068231
C71   C     C_R   0.218266 0.563070 0.777010 -0.259885
C72   C     C_R   0.195308 0.498615 0.805532 -0.056011
C73   C     C_R   0.226899 0.435175 0.779694 -0.014411
C74   C     C_R   0.280629 0.438295 0.726406 -0.253521
C75   C     C_R   0.303511 0.502635 0.697792 -0.056990
C76   C     C_R   0.271911 0.566117 0.723623 -0.007711
C77   C     C_R   0.261372 0.398725 0.884556 -0.123472
C78   C     C_3   0.289195 0.533161 0.184493 -0.401351
C79   C     C_R   0.240693 0.331305 0.909275 -0.126224
C80   C     C_R   0.164388 0.229186 0.855617 -0.108913
C81   C     C_R   0.108908 0.194082 0.776841 -0.140636
C82   C     C_R   0.129360 0.261188 0.751813 -0.123278
C83   C     C_R   0.205490 0.364037 0.805859 0.150143
C84   C     C_R   0.856969 0.500092 0.142726 0.743021
C85   C     C_R   0.138597 0.499587 0.861594 0.790245
C86   C     C_R   0.856900 0.218992 0.862042 0.741568
C87   C     C_R   0.136882 0.779946 0.141175 0.788101
C88   C     C_R   0.855924 0.499014 0.861274 0.805083
C89   C     C_3   0.211181 0.391080 0.240144 -0.400135
C90   C     C_R   0.139749 0.499948 0.142945 0.743050
H1    H     H_    0.366816 0.478884 0.201195 0.178526
H2    H     H_    0.152034 0.555900 0.315267 0.177837
H3    H     H_    0.174376 0.366344 0.280607 0.151414
H4    H     H_    0.085408 0.365750 0.191740 0.148776
H5    H     H_    0.606508 0.917405 0.648052 0.157973
H6    H     H_    0.781547 0.093615 0.679883 0.178743
H7    H     H_    0.696108 0.091716 0.728035 0.167827
H8    H     H_    0.608426 0.907657 0.776578 0.174928
H9    H     H_    0.694442 0.084754 0.864805 0.179022
H10   H     H_    0.815844 0.914360 0.756615 0.161870
H11   H     H_    0.413128 0.611805 0.287404 0.180310
H12   H     H_    0.817864 0.912481 0.658813 0.216280
H13   H     H_    0.900832 0.089108 0.743207 0.190790
H14   H     H_    0.904887 0.089764 0.841180 0.167184
H15   H     H_    0.695648 0.908744 0.822846 0.163480
H16   H     H_    0.781340 0.086319 0.912952 0.153017
H17   H     H_    0.596322 0.445591 0.187887 0.187278
H18   H     H_    0.593204 0.343542 0.183828 0.173902
H19   H     H_    0.680457 0.343721 0.095867 0.172614
H20   H     H_    0.684424 0.446541 0.100671 0.200192
H21   H     H_    0.720124 0.635261 0.311572 0.163664
H22   H     H_    0.808632 0.635169 0.222799 0.165589
H23   H     H_    0.799299 0.520271 0.388208 0.178490
H24   H     H_    0.712037 0.387694 0.302155 0.150957
H25   H     H_    0.887450 0.520061 0.299883 0.177525
H26   H     H_    0.804177 0.666555 0.393817 0.182804
H27   H     H_    0.892282 0.666537 0.305499 0.180219
H28   H     H_    0.460326 0.214340 0.677308 0.141301
H29   H     H_    0.546256 0.216496 0.572498 0.122167
H30   H     H_    0.470222 0.142609 0.417963 0.102825
H31   H     H_    0.278320 0.479157 0.113323 0.176524
H32   H     H_    0.220817 0.062270 0.472459 0.123789
H33   H     H_    0.298097 0.137598 0.627111 0.134113
H34   H     H_    0.228462 0.900119 0.313019 0.173683
H35   H     H_    0.268795 0.099849 0.189235 0.170891
H36   H     H_    0.276088 0.937459 0.029623 0.121102
H37   H     H_    0.036097 0.784007 0.824630 0.139539
H38   H     H_    0.950359 0.782155 0.929559 0.138238
H39   H     H_    0.026767 0.856906 0.084361 0.111167
H40   H     H_    0.974451 0.807344 0.613480 0.120862
H41   H     H_    0.225855 0.333767 0.197338 0.181066
H42   H     H_    0.935044 0.628742 0.528743 0.121380
H43   H     H_    0.851361 0.514995 0.577325 0.115305
H44   H     H_    0.847561 0.760371 0.797579 0.114899
H45   H     H_    0.931339 0.873134 0.748120 0.113932
H46   H     H_    0.914209 0.601168 0.787761 0.177426
H47   H     H_    0.583531 0.397139 0.712996 0.169633
H48   H     H_    0.654169 0.241722 0.692750 0.122425
H49   H     H_    0.570154 0.114698 0.727357 0.173318
H50   H     H_    0.521114 0.162185 0.859556 0.139448
H51   H     H_    0.555807 0.336035 0.957823 0.171390
H52   H     H_    0.137643 0.333713 0.109053 0.179321
H53   H     H_    0.455755 0.871650 0.745841 0.147506
H54   H     H_    0.421521 0.760439 0.796948 0.117477
H55   H     H_    0.165107 0.525684 0.587184 0.128255
H56   H     H_    0.197993 0.636540 0.536217 0.166299
H57   H     H_    0.194187 0.611645 0.796066 0.175361
H58   H     H_    0.304378 0.389375 0.707036 0.176327
H59   H     H_    0.283888 0.358088 0.969891 0.120891
H60   H     H_    0.240118 0.555721 0.402460 0.173258
H61   H     H_    0.050183 0.114829 0.735121 0.121234
H62   H     H_    0.085872 0.233387 0.690779 0.119693
H63   H     H_    0.338504 0.657393 0.405741 0.205938
H64   H     H_    0.250398 0.657231 0.318220 0.190697
O1    O     O_3   0.500000 0.500000 0.500000 -0.477504
O2    O     O_R   0.383400 0.560740 0.616060 -0.637132
O3    O     O_R   0.555060 0.439270 0.322940 -0.651592
O4    O     O_R   0.383950 0.268380 0.445700 -0.634176
O5    O     O_R   0.677590 0.731610 0.615290 -0.639739
O6    O     O_3   0.997750 0.500010 0.002220 -0.474898
O7    O     O_R   0.942690 0.560750 0.179280 -0.648212
O8    O     O_R   0.114340 0.439270 0.886160 -0.633720
O9    O     O_R   0.820160 0.268410 0.886930 -0.641117
O10   O     O_R   0.113800 0.731630 0.056520 -0.632171
O11   O     O_R   0.819390 0.439310 0.886160 -0.638578
O12   O     O_R   0.383400 0.268380 0.323710 -0.652578
O13   O     O_R   0.115110 0.560720 0.179280 -0.649947
O14   O     O_R   0.941380 0.560750 0.885620 -0.646296
O15   O     O_R   0.115110 0.439270 0.057830 -0.642039
O16   O     O_R   0.942690 0.268390 0.886930 -0.645853
O17   O     O_R   0.114340 0.731630 0.178520 -0.648659
O18   O     O_R   0.820160 0.439310 0.057830 -0.646227
O19   O     O_R   0.113800 0.560730 0.885620 -0.647439
O20   O     O_R   0.555060 0.731630 0.615290 -0.635070
O21   O     O_R   0.383950 0.439280 0.616600 -0.645589
O22   O     O_R   0.677590 0.560710 0.444390 -0.638658
O23   O     O_R   0.556370 0.439260 0.616600 -0.646073
O24   O     O_R   0.382640 0.439290 0.322940 -0.648718
O25   O     O_R   0.678360 0.560700 0.616060 -0.636364
O26   O     O_R   0.382640 0.560750 0.444390 -0.636051
Zn1   Zn    Zn3+2 0.456040 0.586770 0.543190 0.987047
Zn2   Zn    Zn3+2 0.456820 0.413240 0.543960 0.968850
Zn3   Zn    Zn3+2 0.631110 0.586750 0.543190 0.976413
Zn4   Zn    Zn3+2 0.456040 0.413240 0.369660 0.953163
Zn5   Zn    Zn3+2 0.041710 0.413240 0.959030 0.962985
Zn6   Zn    Zn3+2 0.866640 0.413270 0.959030 0.965371
Zn7   Zn    Zn3+2 0.040930 0.586780 0.958260 0.973295
Zn8   Zn    Zn3+2 0.041710 0.586770 0.132560 0.952004
C91   C     C_2   0.681483 0.898718 0.559592 0.882167
O27   O     O_2   0.612415 0.840073 0.496193 -0.646135
O28   O     O_R   0.764006 0.926787 0.545376 -0.832554
H65   H     H_    0.757667 0.892742 0.479887 0.336753
H66   H     H_    0.324046 0.611863 0.199269 0.159097
H67   H     H_    0.800407 0.387495 0.213354 0.149975
H68   H     H_    0.198449 0.861236 0.874786 0.131991
C92   C     C_2   0.648323 0.498445 0.946367 0.861860
O29   O     O_2   0.694623 0.567875 0.937094 -0.641624
O30   O     O_R   0.615774 0.519054 0.018173 -0.840939
H69   H     H_    0.635086 0.593396 0.056974 0.342703
C93   C     C_2   0.350848 0.827808 0.603614 0.874770
O31   O     O_2   0.423387 0.911763 0.639997 -0.672744
O32   O     O_R   0.287707 0.793522 0.530615 -0.836242
H70   H     H_    0.310053 0.844647 0.514220 0.345585
H71   H     H_    0.320481 0.477781 0.926663 0.118666
H72   H     H_    0.148433 0.177162 0.874905 0.116774

loop_
_geom_bond_atom_site_label_1
_geom_bond_atom_site_label_2
_ccdc_geom_bond_type
C2    H60   S    
O22   Zn3   S    
C66   C68   A    
C13   C14   S    
C9    H8    S    
C69   H56   S    
C90   O13   A    
C22   H27   S    
C41   C42   A    
C71   H57   S    
C35   C36   A    
C8    H6    S    
O6    Zn6   S    
C8    H7    S    
O10   Zn7   S    
C17   H20   S    
C5    H4    S    
O1    Zn2   S    
C7    C8    S    
C56   O24   A    
C53   C54   A    
C52   C53   A    
C7    C11   S    
C28   C29   A    
C26   C27   A    
C8    C13   S    
O17   Zn8   S    
O9    Zn6   S    
C48   H44   S    
C1    O4    A    
C51   H46   S    
C26   H30   S    
C31   H34   S    
O7    Zn8   S    
C10   C15   S    
C71   C76   A    
C80   C81   A    
C28   H32   S    
C54   H47   S    
C23   O21   A    
C19   H23   S    
C9    H15   S    
O23   Zn2   S    
C92   O29   D    
O16   Zn5   S    
C18   C20   S    
C35   H35   S    
C73   C74   A    
C91   O28   S    
C78   H31   S    
C82   H62   S    
C50   H40   S    
C16   H17   S    
C54   C55   A    
C47   C48   A    
O18   Zn6   S    
C93   O31   D    
C88   O14   A    
C13   C86   S    
C85   O19   A    
O30   H69   S    
C51   C57   A    
O3    Zn4   S    
C64   C70   A    
C15   H14   S    
C4    C90   S    
C45   O23   A    
C79   H59   S    
C20   C34   S    
C58   H48   S    
C80   H72   S    
C49   H45   S    
C66   C76   S    
C59   C60   A    
O14   Zn7   S    
C86   O16   A    
C21   C22   S    
C85   O8    A    
C41   H38   S    
C2    C6    S    
C67   C78   S    
O6    Zn5   S    
C25   H29   S    
O20   Zn1   S    
C38   H36   S    
C44   C46   A    
C81   C82   A    
O25   Zn3   S    
C77   C79   A    
C72   C85   S    
C5    C89   S    
O32   H70   S    
C51   C52   A    
C33   C43   S    
C11   C12   S    
C52   C88   S    
O12   Zn4   S    
C18   H21   S    
C4    C6    S    
C74   C75   A    
C18   H26   S    
C39   C40   A    
C65   H54   S    
C16   H18   S    
O1    Zn4   S    
C16   C17   S    
C30   H28   S    
C19   H24   S    
C58   C59   A    
C81   H61   S    
C40   H37   S    
C39   H68   S    
C17   C21   S    
C31   C37   A    
C60   C61   A    
C78   H66   S    
C75   C76   A    
C4    C78   S    
C29   C30   A    
C87   O10   A    
C47   C57   S    
C9    C11   S    
C3    C56   S    
C31   C32   A    
C21   C84   S    
C59   H49   S    
C16   C20   S    
C87   O17   A    
C62   C63   A    
C67   H1    S    
C9    C14   S    
C91   O27   D    
C10   H10   S    
C4    C5    S    
O4    Zn2   S    
C6    H64   S    
C60   H50   S    
O21   Zn2   S    
C62   C92   S    
C61   H51   S    
C40   C41   A    
C65   C66   A    
C2    H63   S    
C22   H22   S    
C13   C15   S    
C49   C50   A    
C24   H67   S    
O6    Zn8   S    
C77   H71   S    
O26   Zn1   S    
C67   H11   S    
C12   O20   A    
C56   O26   A    
C44   C50   A    
C25   C30   A    
C46   C47   A    
O19   Zn7   S    
C70   C93   S    
C18   C22   S    
C68   C69   A    
C3    C67   S    
C58   C63   A    
C23   C75   S    
C72   C73   A    
C84   O18   A    
C17   H19   S    
O8    Zn5   S    
O2    Zn1   S    
O1    Zn1   S    
C64   H53   S    
C44   H42   S    
C7    H5    S    
C74   H58   S    
O11   Zn6   S    
C89   H41   S    
C3    C89   S    
C15   H13   S    
C32   C33   A    
C19   C20   S    
C55   C57   A    
C2    C3    S    
C25   C26   A    
O15   Zn5   S    
C38   C43   A    
C88   O11   A    
C64   C65   A    
C46   H43   S    
C53   C63   S    
C14   H9    S    
C5    H52   S    
C38   C39   A    
O6    Zn7   S    
C1    O12   A    
C27   C37   S    
C48   C49   A    
O13   Zn8   S    
C29   H33   S    
C90   O15   A    
C33   C35   A    
C73   C83   S    
C19   C24   S    
C42   H39   S    
O1    Zn3   S    
C6    H2    S    
C68   H55   S    
C12   O5    A    
C89   H3    S    
C61   C62   A    
O28   H65   S    
C69   C70   A    
C92   O30   S    
C34   O22   A    
C10   C11   S    
C45   O25   A    
C79   C80   A    
C34   O3    A    
C14   H16   S    
C71   C72   A    
C45   C55   S    
C24   H25   S    
C36   C37   A    
C82   C83   A    
C42   C43   A    
C21   C24   S    
C27   C28   A    
C77   C83   A    
C7    C91   S    
C86   O9    A    
C32   C87   S    
O5    Zn3   S    
C23   O2    A    
C10   H12   S    
C93   O32   S    
O24   Zn4   S    
C84   O7    A    
C1    C36   S    
