data_mof_unit_19124.cif
_audit_creation_date              2012-12-11T15:12:21-0500
_audit_creation_method            fapswitch 2.2
_symmetry_space_group_name_H-M    P1
_symmetry_Int_Tables_number       1
_space_group_crystal_system       triclinic
_cell_length_a                    31.01365
_cell_length_b                    22.534502
_cell_length_c                    18.088412
_cell_angle_alpha                 90.825661
_cell_angle_beta                  124.087578
_cell_angle_gamma                 89.253332
_cell_volume                      10468.2511445

loop_
_atom_site_label
_atom_site_type_symbol
_atom_type_description
_atom_site_fract_x
_atom_site_fract_y
_atom_site_fract_z
_atom_type_partial_charge
C1    C     C_R   0.532942 0.609552 0.707215 -0.131060
C2    C     C_R   0.259442 0.640145 0.557266 0.135451
C3    C     C_R   0.370412 0.193587 0.121039 -0.014315
C4    C     C_R   0.857532 0.280817 0.080813 -0.014568
C5    C     C_R   0.142388 0.718698 0.918228 -0.014501
C6    C     C_R   0.191991 0.161534 0.065597 -0.011083
C7    C     C_R   0.808320 0.838365 0.934641 -0.010687
C8    C     C_R   0.234150 0.664642 0.952284 0.117648
C9    C     C_R   0.766102 0.335357 0.047336 0.117791
C10   C     C_R   0.704312 0.806226 0.865123 0.126403
C11   C     C_R   0.296163 0.193501 0.135616 0.125774
C12   C     C_R   0.789469 0.289612 0.110758 0.131179
C13   C     C_R   0.262086 0.350985 0.546735 0.135981
C14   C     C_R   0.210864 0.710615 0.889216 0.130849
C15   C     C_R   0.270092 0.153347 0.062595 0.116633
C16   C     C_R   0.730068 0.847151 0.937108 0.116095
C17   C     C_R   0.794173 0.360219 0.015248 -0.241577
C18   C     C_R   0.205892 0.639409 0.983772 -0.240528
C19   C     C_R   0.272004 0.209611 0.180020 -0.231941
C20   C     C_R   0.728514 0.789673 0.820949 -0.232522
C21   C     C_R   0.233563 0.726367 0.842855 -0.254184
C22   C     C_R   0.766957 0.274323 0.157603 -0.253279
C23   C     C_R   0.701642 0.874052 0.968233 -0.236328
C24   C     C_R   0.737860 0.648985 0.453049 0.137251
C25   C     C_R   0.298265 0.126951 0.030639 -0.235128
C26   C     C_R   0.839687 0.333720 0.032966 -0.162633
C27   C     C_R   0.160217 0.665661 0.965746 -0.162454
C28   C     C_R   0.221236 0.192451 0.146676 -0.173591
C29   C     C_R   0.779216 0.806919 0.854034 -0.174711
C30   C     C_R   0.282129 0.704288 0.868584 -0.174842
C31   C     C_R   0.718537 0.296758 0.132206 -0.175684
C32   C     C_R   0.651848 0.854959 0.938013 -0.162182
C33   C     C_R   0.348147 0.145814 0.061185 -0.154051
C34   C     C_R   0.593382 0.583527 0.423804 -0.197875
C35   C     C_R   0.151468 0.740638 0.398903 0.133487
C36   C     C_R   0.406648 0.416418 0.576208 -0.196231
C37   C     C_R   0.403809 0.581939 0.573859 -0.211111
C38   C     C_R   0.596189 0.418047 0.426144 -0.217898
C39   C     C_R   0.076161 0.108172 0.424457 -0.202981
C40   C     C_R   0.923800 0.891859 0.575542 -0.203344
C41   C     C_R   0.927507 0.110787 0.577370 -0.205232
C42   C     C_R   0.072514 0.889206 0.422650 -0.204642
C43   C     C_R   0.383289 0.584370 0.259025 -0.107436
C44   C     C_R   0.616755 0.415775 0.741013 -0.109268
C45   C     C_R   0.605745 0.608542 0.708049 -0.122392
C46   C     C_R   0.848399 0.259065 0.601246 0.133612
C47   C     C_R   0.394327 0.391352 0.292088 -0.120953
C48   C     C_R   0.885949 0.093004 0.266176 -0.119183
C49   C     C_R   0.114040 0.906958 0.733764 -0.119462
C50   C     C_R   0.117451 0.080959 0.744067 -0.070857
C51   C     C_R   0.882540 0.919147 0.255843 -0.071191
C52   C     C_R   0.577770 0.641778 0.733691 0.071554
C53   C     C_R   0.422410 0.358083 0.266705 0.071874
C54   C     C_R   0.402767 0.599211 0.208336 0.071507
C55   C     C_R   0.597346 0.400953 0.791793 0.072377
C56   C     C_R   0.098624 0.096210 0.795710 0.066723
C57   C     C_R   0.810656 0.785555 0.571332 0.135928
C58   C     C_R   0.901372 0.904092 0.204140 0.066514
C59   C     C_R   0.909243 0.119129 0.227778 0.066830
C60   C     C_R   0.090740 0.880760 0.772110 0.066844
C61   C     C_R   0.641891 0.596912 0.497302 -0.093174
C62   C     C_R   0.358157 0.402974 0.502714 -0.094224
C63   C     C_R   0.354464 0.594727 0.499189 -0.092111
C64   C     C_R   0.645514 0.405219 0.500818 -0.092200
C65   C     C_R   0.113611 0.139896 0.497546 -0.093097
C66   C     C_R   0.886326 0.860151 0.502451 -0.092194
C67   C     C_R   0.890521 0.144406 0.506105 -0.091555
C68   C     C_R   0.189621 0.214120 0.429063 0.135862
C69   C     C_R   0.109514 0.855597 0.493945 -0.091619
C70   C     C_R   0.727200 0.350489 0.583076 -0.293041
C71   C     C_R   0.272605 0.649184 0.416855 -0.289485
C72   C     C_R   0.301615 0.319947 0.444674 -0.271336
C73   C     C_R   0.698663 0.679737 0.555703 -0.273464
C74   C     C_R   0.152901 0.757041 0.554460 -0.289125
C75   C     C_R   0.847257 0.243050 0.445898 -0.289714
C76   C     C_R   0.844545 0.762648 0.458324 -0.287320
C77   C     C_R   0.155334 0.237417 0.541416 -0.284749
C78   C     C_R   0.690719 0.381284 0.505610 0.124752
C79   C     C_R   0.776903 0.328625 0.521685 0.031966
C80   C     C_R   0.309233 0.618577 0.494430 0.125350
C81   C     C_R   0.319834 0.368961 0.501475 0.115568
C82   C     C_R   0.680259 0.630881 0.498590 0.115644
C83   C     C_R   0.127437 0.797660 0.484036 0.133758
C84   C     C_R   0.872574 0.202282 0.516128 0.133548
C85   C     C_R   0.857951 0.814302 0.509799 0.131244
C86   C     C_R   0.142055 0.185653 0.490213 0.130659
C87   C     C_R   0.697833 0.387386 0.436088 -0.241753
C88   C     C_R   0.302272 0.612649 0.564157 -0.239011
C89   C     C_R   0.300946 0.385059 0.552960 -0.242452
C90   C     C_R   0.223091 0.671230 0.478557 0.032316
C91   C     C_R   0.698988 0.614923 0.446815 -0.246565
C92   C     C_R   0.122448 0.785396 0.403488 -0.225057
C93   C     C_R   0.877416 0.214338 0.596603 -0.226078
C94   C     C_R   0.842770 0.824773 0.568104 -0.236545
C95   C     C_R   0.157444 0.174973 0.432240 -0.234162
C96   C     C_3   0.395726 0.626276 0.902151 -0.288225
C97   C     C_3   0.605976 0.376441 0.099870 -0.277924
C98   C     C_3   0.565559 0.774176 0.966140 -0.242593
C99   C     C_3   0.488515 0.166754 0.171814 -0.238335
C100  C     C_3   0.906065 0.241022 0.969171 -0.258166
C101  C     C_R   0.243233 0.301246 0.488548 0.027571
C102  C     C_3   0.092674 0.757596 0.028516 -0.257300
C103  C     C_3   0.110906 0.120936 0.110725 -0.293472
C104  C     C_3   0.889895 0.877707 0.889926 -0.293568
C105  C     C_R   0.467177 0.390363 0.293082 -0.129729
C106  C     C_R   0.756896 0.698556 0.511557 0.027073
C107  C     C_R   0.184498 0.706003 0.475093 0.030166
C108  C     C_R   0.815516 0.293874 0.525196 0.029507
C109  C     C_R   0.793758 0.734867 0.515436 0.029227
C110  C     C_R   0.206358 0.264952 0.484657 0.029879
C111  C     C_R   0.771205 0.326697 0.593475 0.146832
C112  C     C_R   0.228623 0.672966 0.406574 0.146185
C113  C     C_R   0.263004 0.286186 0.436940 0.147305
C114  C     C_R   0.737300 0.713461 0.563477 0.146915
C115  C     C_R   0.182815 0.711457 0.551188 0.144803
C116  C     C_R   0.455266 0.583909 0.258254 -0.121672
C117  C     C_R   0.817356 0.288620 0.449241 0.144626
C118  C     C_R   0.811624 0.722502 0.460083 0.147553
C119  C     C_R   0.188298 0.277506 0.539680 0.146588
C120  C     C_R   0.746692 0.360099 0.371772 -0.200944
C121  C     C_R   0.253622 0.640153 0.628784 -0.198992
C122  C     C_R   0.242431 0.364816 0.598277 -0.199088
C123  C     C_R   0.757336 0.635321 0.401187 -0.204944
C124  C     C_R   0.153157 0.735781 0.323410 -0.205015
C125  C     C_R   0.846559 0.263724 0.676601 -0.205695
C126  C     C_R   0.792661 0.798496 0.625354 -0.190826
C127  C     C_R   0.544813 0.416172 0.741868 -0.121843
C128  C     C_R   0.207811 0.200997 0.375376 -0.189045
C129  C     C_R   0.192219 0.702441 0.327647 -0.195198
C130  C     C_R   0.807475 0.297047 0.672309 -0.196495
C131  C     C_R   0.755595 0.762548 0.620870 -0.194223
C132  C     C_R   0.244890 0.236931 0.379874 -0.192999
C133  C     C_R   0.785045 0.324615 0.375009 -0.206591
C134  C     C_R   0.215291 0.675656 0.625589 -0.205488
C135  C     C_R   0.205579 0.328028 0.594835 -0.189787
C136  C     C_R   0.794176 0.672127 0.404620 -0.194973
C137  C     C_R   0.371251 0.617230 0.113727 0.075478
C138  C     C_R   0.046022 0.081878 0.744823 -0.142190
C139  C     C_R   0.629019 0.383089 0.886480 0.073656
C140  C     C_R   0.592912 0.700794 0.778245 0.075843
C141  C     C_R   0.407597 0.298854 0.222844 0.076835
C142  C     C_R   0.889759 0.172029 0.170829 0.074460
C143  C     C_R   0.110207 0.827760 0.828898 0.074607
C144  C     C_R   0.130780 0.114082 0.891340 0.070562
C145  C     C_R   0.869290 0.886417 0.108460 0.071252
C146  C     C_R   0.363774 0.656708 0.982380 0.611877
C147  C     C_R   0.636932 0.344647 0.018715 0.611383
C148  C     C_R   0.583728 0.780409 0.861037 0.610962
C149  C     C_R   0.953985 0.918280 0.255128 -0.142518
C150  C     C_R   0.417308 0.218804 0.141249 0.603729
C151  C     C_R   0.898657 0.248506 0.086796 0.614737
C152  C     C_R   0.101010 0.750687 0.911849 0.614574
C153  C     C_R   0.138370 0.151474 0.025196 0.614001
C154  C     C_R   0.861981 0.848192 0.975233 0.613635
C155  C     C_R   0.394160 0.632784 0.068375 -0.341575
C156  C     C_R   0.606382 0.368362 0.932574 -0.339941
C157  C     C_R   0.565283 0.728120 0.809786 -0.339832
C158  C     C_R   0.434631 0.272238 0.189680 -0.337691
C159  C     C_R   0.915101 0.194820 0.133226 -0.342126
C160  C     C_R   0.958383 0.094274 0.267834 -0.117512
C161  C     C_R   0.084573 0.804495 0.865703 -0.342081
C162  C     C_R   0.108028 0.128965 0.937804 -0.336272
C163  C     C_R   0.892218 0.870906 0.062487 -0.336824
C164  C     C_R   0.317314 0.621706 0.069672 -0.253005
C165  C     C_R   0.682871 0.377996 0.929920 -0.254501
C166  C     C_R   0.636728 0.729251 0.791708 -0.252507
C167  C     C_R   0.364495 0.269671 0.211107 -0.252041
C168  C     C_R   0.848834 0.204070 0.163797 -0.254785
C169  C     C_R   0.151431 0.796067 0.836468 -0.254950
C170  C     C_R   0.184849 0.119320 0.935307 -0.255426
C171  C     C_R   0.041608 0.905652 0.732102 -0.117474
C172  C     C_R   0.815145 0.881816 0.064028 -0.256834
C173  C     C_R   0.286484 0.648882 0.986638 0.019892
C174  C     C_R   0.713860 0.351315 0.013271 0.019908
C175  C     C_R   0.656265 0.781634 0.842525 0.023423
C176  C     C_R   0.344456 0.217836 0.158937 0.020790
C177  C     C_R   0.832711 0.258840 0.121030 0.021838
C178  C     C_R   0.167472 0.741129 0.878738 0.021936
C179  C     C_R   0.216223 0.142494 0.022261 0.022950
C180  C     C_R   0.783917 0.858089 0.977413 0.022638
C181  C     C_R   0.644090 0.580735 0.572296 0.502439
C182  C     C_R   0.740693 0.359896 0.443084 0.135308
C183  C     C_R   0.355935 0.419172 0.427706 0.501339
C184  C     C_R   0.354836 0.578606 0.425690 0.511841
C185  C     C_R   0.645151 0.421351 0.574314 0.512165
C186  C     C_R   0.127953 0.107969 0.573202 0.532525
C187  C     C_R   0.872008 0.892063 0.426792 0.531420
C188  C     C_R   0.872962 0.109709 0.429423 0.526554
C189  C     C_R   0.127066 0.890318 0.570600 0.527408
C190  C     C_R   0.310652 0.669049 0.944508 -0.006694
C191  C     C_R   0.689927 0.331819 0.056093 -0.006913
C192  C     C_R   0.630035 0.806383 0.879607 -0.014023
H1    H     H_    0.502276 0.622145 0.715722 0.101870
H2    H     H_    0.300044 0.609710 0.104516 0.131426
H3    H     H_    0.507267 0.145123 0.141131 0.186054
H4    H     H_    0.863189 0.246566 0.921569 0.124689
H5    H     H_    0.916718 0.193104 0.979689 0.137320
H6    H     H_    0.924742 0.260835 0.938073 0.185721
H7    H     H_    0.081629 0.805409 0.017831 0.137353
H8    H     H_    0.135552 0.752479 0.076652 0.124677
H9    H     H_    0.073842 0.737348 0.059066 0.185866
H10   H     H_    0.150230 0.103012 0.161979 0.129431
H11   H     H_    0.086039 0.085401 0.062462 0.138258
H12   H     H_    0.092594 0.135823 0.145815 0.182508
H13   H     H_    0.344354 0.290162 0.237394 0.127580
H14   H     H_    0.914799 0.913330 0.937945 0.138170
H15   H     H_    0.850668 0.895678 0.838298 0.129116
H16   H     H_    0.908326 0.862329 0.855245 0.182668
H17   H     H_    0.718825 0.582000 0.656611 0.319480
H18   H     H_    0.281215 0.417631 0.343335 0.319283
H19   H     H_    0.283087 0.554224 0.346821 0.325944
H20   H     H_    0.716966 0.445490 0.653295 0.326369
H21   H     H_    0.189362 0.151731 0.660450 0.318175
H22   H     H_    0.810511 0.848421 0.339557 0.315537
H23   H     H_    0.805680 0.146604 0.351934 0.313384
H24   H     H_    0.657594 0.708128 0.767251 0.127956
H25   H     H_    0.194449 0.853625 0.648004 0.314662
H26   H     H_    0.171440 0.815220 0.809882 0.145592
H27   H     H_    0.829137 0.185305 0.191213 0.145647
H28   H     H_    0.797849 0.891898 0.100062 0.133163
H29   H     H_    0.201955 0.110093 0.898742 0.134995
H30   H     H_    0.564860 0.372757 0.901179 0.148229
H31   H     H_    0.435766 0.628906 0.100285 0.145603
H32   H     H_    0.468230 0.293530 0.198287 0.145941
H33   H     H_    0.497955 0.377661 0.284921 0.101357
H34   H     H_    0.530215 0.708324 0.797419 0.145289
H35   H     H_    0.051739 0.827593 0.858862 0.145062
H36   H     H_    0.947697 0.171423 0.139627 0.145239
H37   H     H_    0.933858 0.874058 0.094760 0.146165
H38   H     H_    0.066444 0.125405 0.905866 0.146078
H39   H     H_    0.781361 0.400155 0.975837 0.145765
H40   H     H_    0.218634 0.599345 0.022881 0.145880
H41   H     H_    0.291911 0.234838 0.241569 0.125412
H42   H     H_    0.708692 0.763957 0.759839 0.126295
H43   H     H_    0.214501 0.755640 0.786233 0.137620
H44   H     H_    0.480641 0.581662 0.235014 0.091202
H45   H     H_    0.786059 0.245183 0.214373 0.136789
H46   H     H_    0.717078 0.910537 0.015484 0.141367
H47   H     H_    0.282593 0.090955 0.982545 0.141220
H48   H     H_    0.579878 0.586146 0.354320 0.126948
H49   H     H_    0.420157 0.413789 0.645694 0.128971
H50   H     H_    0.415332 0.581703 0.642421 0.120594
H51   H     H_    0.584680 0.418281 0.357590 0.121746
H52   H     H_    0.060590 0.117798 0.355794 0.130047
H53   H     H_    0.939392 0.882227 0.644209 0.130009
H54   H     H_    0.949953 0.122967 0.646962 0.131550
H55   H     H_    0.519462 0.418413 0.765158 0.092170
H56   H     H_    0.050056 0.877013 0.353060 0.131299
H57   H     H_    0.343282 0.583155 0.238249 0.157141
H58   H     H_    0.656750 0.417245 0.761786 0.157473
H59   H     H_    0.642502 0.619044 0.718551 0.155484
H60   H     H_    0.357552 0.380729 0.281467 0.155991
H61   H     H_    0.845185 0.094245 0.240570 0.171725
H62   H     H_    0.154798 0.905756 0.759341 0.171860
H63   H     H_    0.157653 0.074834 0.767506 0.155710
H64   H     H_    0.842339 0.925152 0.232467 0.155199
H65   H     H_    0.720611 0.342960 0.635042 0.157227
H66   H     H_    0.021525 0.078401 0.769575 0.090680
H67   H     H_    0.279069 0.656624 0.364724 0.157509
H68   H     H_    0.317761 0.308220 0.406354 0.129628
H69   H     H_    0.682632 0.691385 0.594227 0.130323
H70   H     H_    0.153164 0.763901 0.614126 0.137319
H71   H     H_    0.847100 0.236324 0.386311 0.137288
H72   H     H_    0.857939 0.755287 0.414909 0.137192
H73   H     H_    0.141796 0.244919 0.584597 0.137404
H74   H     H_    0.669479 0.411333 0.376213 0.115481
H75   H     H_    0.330734 0.588858 0.624125 0.115258
H76   H     H_    0.316147 0.423740 0.596498 0.125193
H77   H     H_    0.978504 0.921840 0.230429 0.090858
H78   H     H_    0.683644 0.576372 0.403025 0.124964
H79   H     H_    0.101483 0.814961 0.347229 0.116980
H80   H     H_    0.898250 0.184633 0.652710 0.116979
H81   H     H_    0.853479 0.865466 0.607291 0.121596
H82   H     H_    0.146823 0.134188 0.393270 0.121913
H83   H     H_    0.720100 0.385028 0.311884 0.126021
H84   H     H_    0.280338 0.615384 0.688785 0.125994
H85   H     H_    0.256399 0.403122 0.642517 0.132031
H86   H     H_    0.743228 0.597143 0.356696 0.130865
H87   H     H_    0.127193 0.761593 0.264078 0.124784
H88   H     H_    0.984011 0.098451 0.245741 0.084891
H89   H     H_    0.872414 0.237777 0.735832 0.124607
H90   H     H_    0.805820 0.837418 0.668413 0.126367
H91   H     H_    0.194778 0.161961 0.332553 0.126520
H92   H     H_    0.195726 0.702442 0.271282 0.131171
H93   H     H_    0.803842 0.296901 0.728535 0.131146
H94   H     H_    0.740174 0.773902 0.660136 0.124307
H95   H     H_    0.260448 0.225450 0.340862 0.123782
H96   H     H_    0.787571 0.322890 0.317845 0.143833
H97   H     H_    0.212915 0.677558 0.682907 0.143868
H98   H     H_    0.191676 0.338114 0.636833 0.137181
H99   H     H_    0.015991 0.901454 0.754213 0.084663
H100  H     H_    0.807928 0.662184 0.362366 0.136137
H101  H     H_    0.859088 0.353044 0.004628 0.178569
H102  H     H_    0.140648 0.646019 0.993575 0.178609
H103  H     H_    0.203918 0.206603 0.181967 0.174209
H104  H     H_    0.796634 0.792318 0.819090 0.174558
H105  H     H_    0.298772 0.718736 0.832873 0.181319
H106  H     H_    0.702047 0.282717 0.168341 0.179668
H107  H     H_    0.631938 0.876081 0.965127 0.177317
H108  H     H_    0.367911 0.124995 0.033593 0.179158
H109  H     H_    0.358456 0.603389 0.853252 0.125589
H110  H     H_    0.699941 0.389023 0.894425 0.131793
H111  H     H_    0.424134 0.594580 0.953735 0.139596
H112  H     H_    0.412281 0.641863 0.865174 0.179136
H113  H     H_    0.577541 0.408117 0.048280 0.139594
H114  H     H_    0.643490 0.399155 0.147963 0.120051
H115  H     H_    0.589820 0.361517 0.137778 0.180112
H116  H     H_    0.607948 0.771372 0.019499 0.127580
H117  H     H_    0.548531 0.728973 0.945865 0.138264
H118  H     H_    0.546445 0.797676 0.994847 0.187472
H119  H     H_    0.479874 0.131401 0.204070 0.128310
H120  H     H_    0.516794 0.199011 0.222743 0.139256
N1    N     N_R   0.532970 0.559900 0.665210 -0.047114
N2    N     N_R   0.402100 0.440070 0.454470 -0.071439
N3    N     N_R   0.402100 0.559930 0.454470 -0.069198
N4    N     N_R   0.597900 0.440070 0.545530 -0.069350
N5    N     N_R   0.097900 0.059930 0.545530 -0.072660
N6    N     N_R   0.902100 0.940070 0.454470 -0.072655
N7    N     N_R   0.902100 0.059930 0.454470 -0.070093
N8    N     N_R   0.097900 0.940070 0.545530 -0.070036
N9    N     N_R   0.567170 0.559950 0.454460 -0.069116
N10   N     N_R   0.432830 0.440050 0.545540 -0.069835
N11   N     N_R   0.432830 0.559950 0.545540 -0.068275
N12   N     N_R   0.467030 0.440100 0.334790 -0.047057
N13   N     N_R   0.567170 0.440050 0.454460 -0.068082
N14   N     N_R   0.067170 0.059950 0.454460 -0.069352
N15   N     N_R   0.932830 0.940050 0.545540 -0.069420
N16   N     N_R   0.932830 0.059950 0.545540 -0.068685
N17   N     N_R   0.067170 0.940050 0.454460 -0.068625
N18   N     N_R   0.421470 0.559970 0.334770 -0.042976
N19   N     N_R   0.578530 0.440030 0.665230 -0.043212
N20   N     N_R   0.578530 0.559970 0.665230 -0.036351
N21   N     N_R   0.421470 0.440030 0.334770 -0.036611
N22   N     N_R   0.921470 0.059970 0.334770 -0.048208
N23   N     N_R   0.467030 0.559900 0.334790 -0.047841
N24   N     N_R   0.078530 0.940030 0.665230 -0.048351
N25   N     N_R   0.078530 0.059970 0.665230 -0.050044
N26   N     N_R   0.921470 0.940030 0.334770 -0.049750
N27   N     N_R   0.532970 0.440100 0.665210 -0.048152
N28   N     N_R   0.032970 0.059900 0.665210 -0.046223
N29   N     N_R   0.967030 0.940100 0.334790 -0.046212
N30   N     N_R   0.967030 0.059900 0.334790 -0.044064
N31   N     N_R   0.032970 0.940100 0.665210 -0.044051
N32   N     N_R   0.597900 0.559930 0.545530 -0.071069
Ni1   Ni    Ni4+2 0.483030 0.500000 0.604430 0.190792
Ni2   Ni    Ni4+2 0.516970 0.500000 0.395570 0.191680
Ni3   Ni    Ni4+2 0.983030 0.000000 0.604430 0.190714
Ni4   Ni    Ni4+2 0.016970 0.000000 0.395570 0.191181
Ni5   Ni    Ni4+2 0.587400 0.500000 0.604430 0.286861
Ni6   Ni    Ni4+2 0.412600 0.500000 0.395570 0.287575
Ni7   Ni    Ni4+2 0.087400 0.000000 0.604430 0.265156
Ni8   Ni    Ni4+2 0.912600 0.000000 0.395570 0.263956
O1    O     O_3   0.387579 0.675843 0.941402 -0.612315
O2    O     O_3   0.312119 0.427516 0.342988 -0.763444
O3    O     O_3   0.312745 0.562750 0.342216 -0.768989
O4    O     O_3   0.687254 0.437127 0.657821 -0.769159
O5    O     O_3   0.170763 0.115951 0.658929 -0.790562
O6    O     O_3   0.829207 0.884098 0.341053 -0.793475
O7    O     O_3   0.827301 0.116377 0.346873 -0.804042
O8    O     O_3   0.172757 0.883714 0.653125 -0.802687
O9    O     O_3   0.613386 0.326367 0.060524 -0.609700
O10   O     O_3   0.556137 0.806543 0.892220 -0.615043
O11   O     O_3   0.442610 0.195405 0.104154 -0.616665
O12   O     O_3   0.924393 0.270660 0.050771 -0.610159
O13   O     O_3   0.074997 0.728059 0.947091 -0.610377
O14   O     O_3   0.114185 0.169952 0.066624 -0.607423
O15   O     O_3   0.886311 0.829093 0.934325 -0.607617
O16   O     O_3   0.687902 0.572281 0.656987 -0.763976

loop_
_geom_bond_atom_site_label_1
_geom_bond_atom_site_label_2
_ccdc_geom_bond_type
N5    N14   A    
C7    C29   A    
C6    C179  A    
C101  C113  A    
C75   C117  A    
C74   C83   A    
C171  N31   A    
C66   C85   S    
C41   C67   A    
C97   H114  S    
C49   C60   A    
C36   H49   S    
C167  H13   S    
C183  O2    S    
C35   C124  A    
C90   C107  A    
N24   N31   A    
C61   C82   S    
C99   H3    S    
C55   C139  S    
C120  C133  A    
C2    C90   A    
C50   H63   S    
C62   C183  A    
C11   C15   A    
N29   Ni4   S    
C57   C109  A    
C59   C142  S    
C10   C20   A    
C3    C150  A    
C54   C116  A    
C98   H118  S    
C26   H101  S    
C96   H111  S    
C112  C129  A    
C34   H48   S    
C68   C128  A    
C174  C191  A    
C47   C53   A    
C169  H26   S    
C117  C133  A    
C39   C65   A    
C87   C182  A    
C36   C62   A    
C51   H64   S    
C37   N11   A    
C29   H104  S    
C127  N27   A    
C37   C63   A    
C32   H107  S    
C109  C118  A    
C38   C64   A    
C100  H4    S    
C75   H71   S    
C68   C95   A    
N26   Ni8   S    
C92   H79   S    
C101  C110  A    
C72   C113  A    
C34   C61   A    
C76   C118  A    
C73   C114  A    
C1    H1    S    
H22   O6    S    
N20   Ni5   S    
C59   C160  A    
C43   C54   A    
C186  N5    A    
C164  C173  A    
C68   C110  A    
H18   O2    S    
C157  H34   S    
C62   C81   S    
H20   O4    S    
N25   N28   A    
C118  C136  A    
C14   C21   A    
C2    C121  A    
C23   H46   S    
N32   Ni5   S    
N14   Ni4   S    
N8    Ni7   S    
N5    Ni7   S    
C115  C134  A    
C79   C182  A    
C89   H76   S    
C160  N30   A    
C43   N18   A    
C80   C88   A    
H17   O16   S    
C10   C16   A    
C102  H7    S    
C44   C55   A    
N19   N27   A    
C34   N9    A    
C79   C108  A    
C84   C93   A    
C103  H10   S    
C6    C153  A    
C35   C107  A    
C86   C95   A    
C87   H74   S    
C142  C168  A    
C132  H95   S    
C3    C176  A    
C153  O14   S    
C186  O5    S    
C47   N21   A    
C48   H61   S    
C187  O6    S    
C120  C182  A    
C76   C85   A    
C143  C161  A    
C100  H6    S    
C78   C87   A    
C44   N19   A    
C138  H66   S    
N31   Ni3   S    
C41   H54   S    
C155  H31   S    
C160  H88   S    
C184  N3    A    
C139  C156  A    
C94   H81   S    
C40   H53   S    
C38   H51   S    
C51   N26   A    
C42   H56   S    
C11   C176  A    
C95   H82   S    
N1    N20   A    
C102  H9    S    
C60   C143  S    
N25   Ni7   S    
C164  H2    S    
C75   C84   A    
C15   C25   A    
C25   H47   S    
C71   H67   S    
C188  O7    S    
C12   C22   A    
N11   Ni1   S    
C137  C155  A    
C156  H30   S    
C104  H15   S    
C139  C165  A    
N23   Ni2   S    
C5    C27   A    
C154  O15   S    
N2    N10   A    
C70   H65   S    
C6    C28   A    
C147  C191  A    
C46   C108  A    
N6    N15   A    
C105  N12   A    
C105  H33   S    
C99   O11   S    
C152  C161  A    
C172  H28   S    
C22   H45   S    
N22   N30   A    
C76   H72   S    
C145  C172  A    
C168  H27   S    
C99   H120  S    
C1    C52   A    
C73   H69   S    
N10   Ni1   S    
C63   C80   S    
C150  O11   S    
C175  C192  A    
N16   Ni3   S    
C145  C163  A    
C45   C52   A    
C165  C174  A    
N7    Ni8   S    
C24   C123  A    
C50   C56   A    
C151  C159  A    
C43   H57   S    
C133  H96   S    
C71   C112  A    
C159  H36   S    
C19   C28   A    
C14   C178  A    
N3    Ni6   S    
C55   C127  A    
C16   C23   A    
C57   C94   A    
C36   N10   A    
C116  N23   A    
C24   C106  A    
N13   Ni2   S    
C148  O10   S    
C48   C59   A    
C48   N22   A    
C10   C175  A    
C65   C186  A    
C60   C171  A    
C64   C78   S    
C108  C117  A    
C125  H89   S    
C110  C119  A    
C77   C86   A    
C189  N8    A    
N26   N29   A    
C97   H113  S    
C170  C179  A    
N18   N23   A    
N2    Ni6   S    
C121  H84   S    
N30   Ni4   S    
N4    Ni5   S    
C49   H62   S    
C7    C154  A    
C74   C115  A    
C147  O9    S    
C7    C180  A    
C149  N29   A    
C148  C157  A    
C30   C190  A    
C9    C12   A    
C5    C178  A    
C53   C105  A    
C96   H112  S    
C16   C180  A    
C25   C33   A    
C106  C109  A    
C148  C192  A    
C122  H85   S    
C113  C132  A    
C114  C131  A    
C46   C125  A    
C142  C159  A    
C91   H78   S    
C96   O1    S    
C58   C145  S    
C65   C86   S    
C11   C19   A    
C166  C175  A    
C120  H83   S    
C41   N16   A    
C15   C179  A    
C54   C137  S    
C3    C33   A    
C168  C177  A    
C31   C191  A    
C173  C190  A    
C32   C192  A    
C183  N2    A    
C103  H12   S    
C42   N17   A    
C184  O3    S    
C165  H110  S    
C146  C155  A    
N22   Ni8   S    
C104  O15   S    
N12   Ni2   S    
N8    N17   A    
C134  H97   S    
N28   Ni3   S    
C104  H14   S    
C121  C134  A    
C72   C81   A    
C81   C89   A    
C35   C92   A    
C172  C180  A    
C40   C66   A    
C66   C187  A    
C188  N7    A    
C39   N14   A    
C140  C166  A    
N27   Ni1   S    
C141  C167  A    
C97   H115  S    
C98   H116  S    
C136  H100  S    
C102  O13   S    
C77   C119  A    
C119  C135  A    
C50   N25   A    
C129  H92   S    
C31   H106  S    
C102  H8    S    
C4    C177  A    
C116  H44   S    
C98   H117  S    
C51   C58   A    
H19   O3    S    
N24   Ni7   S    
C147  C156  A    
C162  H38   S    
C103  O14   S    
C74   H70   S    
C44   H58   S    
C127  H55   S    
C17   C26   A    
C73   C82   A    
C144  C170  A    
C67   C188  A    
N19   Ni5   S    
N12   N21   A    
C185  N4    A    
C158  H32   S    
C63   C184  A    
C150  C158  A    
N17   Ni4   S    
C131  H94   S    
C4    C26   A    
C88   H75   S    
C21   C30   A    
C61   C181  A    
C153  C162  A    
C97   O9    S    
C23   C32   A    
C38   N13   A    
C149  H77   S    
C21   H43   S    
C126  H90   S    
C181  O16   S    
C52   C140  S    
C77   H73   S    
C124  C129  A    
C53   C141  S    
C104  H16   S    
H25   O8    S    
C135  H98   S    
C8    C18   A    
C122  C135  A    
C100  O12   S    
C70   C111  A    
C82   C91   A    
C56   C144  S    
C141  C158  A    
H21   O5    S    
C45   H59   S    
C152  O13   S    
C166  H24   S    
N6    Ni8   S    
C70   C78   A    
N18   Ni6   S    
C99   H119  S    
C90   C112  A    
C17   H39   S    
C123  H86   S    
C83   C92   A    
C46   C93   A    
C5    C152  A    
N1    Ni1   S    
C106  C114  A    
C151  O12   S    
C126  C131  A    
C138  N28   A    
C40   N15   A    
C181  N32   A    
N21   Ni6   S    
C111  C130  A    
N3    N11   A    
C33   H108  S    
C125  C130  A    
C2    C88   A    
C64   C185  A    
C98   O10   S    
C58   C149  A    
C100  H5    S    
C12   C177  A    
C67   C84   S    
C130  H93   S    
C19   H41   S    
C71   C80   A    
C124  H87   S    
C13   C89   A    
C20   C29   A    
N9    Ni2   S    
C22   C31   A    
C154  C163  A    
C146  O1    S    
C143  C169  A    
C69   C189  A    
C57   C126  A    
C8    C173  A    
C42   C69   A    
C69   C83   S    
C140  C157  A    
C170  H29   S    
C56   C138  A    
C85   C94   A    
C9    C174  A    
C107  C115  A    
C47   H60   S    
C45   N20   A    
C9    C17   A    
C1    N1    A    
C72   H68   S    
C20   H42   S    
C96   H109  S    
C27   H102  S    
C13   C101  A    
C24   C91   A    
C169  C178  A    
C189  O8    S    
N9    N32   A    
C39   H52   S    
C4    C151  A    
C128  C132  A    
C8    C14   A    
C37   H50   S    
C144  C162  A    
C185  O4    S    
C18   C27   A    
C163  H37   S    
C137  C164  A    
C49   N24   A    
C30   H105  S    
C28   H103  S    
C79   C111  A    
C123  C136  A    
C18   H40   S    
C13   C122  A    
C93   H80   S    
N4    N13   A    
H23   O7    S    
C103  H11   S    
N15   Ni3   S    
N7    N16   A    
C146  C190  A    
C187  N6    A    
C128  H91   S    
C167  C176  A    
C161  H35   S    
C171  H99   S    
