data_mof_unit_13453.cif
_audit_creation_date              2012-12-11T16:24:14-0500
_audit_creation_method            fapswitch 2.2
_symmetry_space_group_name_H-M    P1
_symmetry_Int_Tables_number       1
_space_group_crystal_system       triclinic
_cell_length_a                    14.721387
_cell_length_b                    14.761523
_cell_length_c                    33.31712
_cell_angle_alpha                 96.101073
_cell_angle_beta                  96.044482
_cell_angle_gamma                 61.232746
_cell_volume                      6298.44289295

loop_
_atom_site_label
_atom_site_type_symbol
_atom_type_description
_atom_site_fract_x
_atom_site_fract_y
_atom_site_fract_z
_atom_type_partial_charge
C1    C     C_R   0.390679 0.700583 0.446279 0.533792
C2    C     C_R   0.332077 0.345570 0.308873 0.041254
C3    C     C_R   0.413109 0.262987 0.328749 -0.109701
C4    C     C_R   0.432309 0.272917 0.370441 -0.124783
C5    C     C_R   0.397566 0.275730 0.164547 -0.097550
C6    C     C_R   0.390167 0.258392 0.122311 -0.006193
C7    C     C_R   0.201663 0.357950 0.123887 -0.138835
C8    C     C_R   0.210592 0.374495 0.165624 -0.118690
C9    C     C_R   0.308113 0.330631 0.186057 0.028264
C10   C     C_1   0.315761 0.337065 0.229326 -0.020698
C11   C     C_1   0.322148 0.340970 0.265625 -0.018891
C12   C     C_R   0.405989 0.386295 0.433993 0.545585
C13   C     C_R   0.290187 0.296025 0.101817 0.023943
C14   C     C_R   0.765004 0.369636 0.412377 0.022034
C15   C     C_R   0.797900 0.432160 0.396148 -0.132239
C16   C     C_R   0.838349 0.405604 0.358272 -0.120423
C17   C     C_R   0.847507 0.315684 0.336113 0.036826
C18   C     C_R   0.824559 0.247672 0.353914 -0.126326
C19   C     C_R   0.782969 0.274787 0.391828 -0.136027
C20   C     C_R   0.882008 0.282880 0.211734 0.332995
C21   C     C_R   0.866193 0.301917 0.292964 0.342979
C22   C     C_R   0.905876 0.353904 0.153156 -0.139397
C23   C     C_R   0.701848 0.409528 0.447852 0.545274
C24   C     C_R   0.920770 0.353421 0.113037 -0.152340
C25   C     C_R   0.884989 0.208429 0.096867 0.008719
C26   C     C_R   0.883215 0.199955 0.139195 0.008091
C27   C     C_R   0.891549 0.276104 0.167416 0.029687
C28   C     C_R   0.916982 0.277915 0.084856 0.019820
C29   C     C_R   0.372526 0.755439 0.409105 0.019759
C30   C     C_R   0.272471 0.811310 0.389283 -0.009590
C31   C     C_R   0.266896 0.835419 0.348954 -0.099491
C32   C     C_R   0.356796 0.809873 0.329354 0.018776
C33   C     C_R   0.453022 0.766759 0.351035 -0.129472
C34   C     C_R   0.392791 0.702269 0.560995 0.532028
C35   C     C_R   0.460826 0.739582 0.390319 -0.141941
C36   C     C_R   0.342699 0.830739 0.204420 0.346863
C37   C     C_R   0.350785 0.821339 0.285642 0.346012
C38   C     C_R   0.250763 0.841776 0.136635 -0.123032
C39   C     C_R   0.231457 0.871294 0.097073 -0.130490
C40   C     C_R   0.384707 0.894296 0.103592 -0.134400
C41   C     C_R   0.404233 0.864434 0.143285 -0.121249
C42   C     C_R   0.334529 0.842713 0.160691 0.036233
C43   C     C_R   0.295260 0.902888 0.080883 0.023471
C44   C     C_R   0.372322 0.374532 0.586605 0.005326
C45   C     C_R   0.407388 0.389578 0.549279 0.543965
C46   C     C_R   0.292102 0.459875 0.606480 -0.111158
C47   C     C_R   0.274561 0.457647 0.646944 -0.004295
C48   C     C_R   0.335732 0.363907 0.666496 0.037222
C49   C     C_R   0.410457 0.276641 0.645401 -0.133222
C50   C     C_R   0.429147 0.281970 0.605925 -0.138554
C51   C     C_R   0.319801 0.352497 0.790090 0.344231
C52   C     C_R   0.329616 0.356985 0.709697 0.334254
C53   C     C_R   0.216989 0.401433 0.850725 -0.125515
C54   C     C_R   0.205559 0.381177 0.889141 -0.132176
C55   C     C_R   0.388296 0.255620 0.894762 -0.145883
C56   C     C_R   0.701340 0.413892 0.562663 0.539641
C57   C     C_R   0.399958 0.276707 0.856387 -0.132674
C58   C     C_R   0.313129 0.345714 0.833265 0.035984
C59   C     C_R   0.289897 0.304149 0.910555 0.022512
C60   C     C_R   0.754145 0.382948 0.602962 0.005182
C61   C     C_R   0.775524 0.453112 0.628761 -0.123313
C62   C     C_R   0.803349 0.436965 0.669963 0.012808
C63   C     C_R   0.811875 0.347357 0.685251 0.049465
C64   C     C_R   0.797516 0.273938 0.659069 -0.127816
C65   C     C_R   0.768561 0.291600 0.618227 -0.137092
C66   C     C_R   0.899757 0.209917 0.821134 0.001716
C67   C     C_R   0.370776 0.365997 0.392569 0.019558
C68   C     C_R   0.926289 0.198450 0.862854 -0.117918
C69   C     C_R   0.861355 0.383191 0.875239 -0.127249
C70   C     C_R   0.832031 0.397659 0.834095 0.005269
C71   C     C_R   0.855182 0.310277 0.806756 0.048270
C72   C     C_1   0.839450 0.322661 0.763745 -0.048625
C73   C     C_1   0.827614 0.333081 0.727935 -0.044452
C74   C     C_R   0.911384 0.283925 0.889637 -0.011381
C75   C     C_R   0.376196 0.754000 0.602017 0.028036
C76   C     C_R   0.275923 0.824199 0.615665 -0.011181
C77   C     C_R   0.265296 0.850978 0.657320 -0.105147
C78   C     C_R   0.284977 0.445828 0.372661 -0.126635
C79   C     C_R   0.351521 0.809940 0.684779 0.027045
C80   C     C_R   0.450396 0.746795 0.671105 -0.124902
C81   C     C_R   0.462775 0.719499 0.630058 -0.141544
C82   C     C_R   0.375777 0.912915 0.828645 0.009981
C83   C     C_R   0.359670 0.937245 0.870166 -0.109801
C84   C     C_R   0.242780 0.863582 0.865830 -0.146254
C85   C     C_R   0.259730 0.836794 0.824900 -0.132357
C86   C     C_R   0.322771 0.864183 0.806060 0.034461
C87   C     C_1   0.330073 0.844801 0.763110 -0.052090
C88   C     C_1   0.338603 0.829598 0.727281 -0.042577
C89   C     C_R   0.266050 0.435674 0.330947 -0.109286
C90   C     C_R   0.290387 0.916483 0.888524 0.003858
C91   C     C_R   0.964202 0.263824 0.045987 0.535722
C92   C     C_R   0.273066 0.260142 0.059884 0.535006
C93   C     C_R   0.259021 0.959644 0.043772 0.547468
C94   C     C_R   0.962769 0.267378 0.930734 0.539317
C95   C     C_R   0.271141 0.264190 0.945562 0.541705
C96   C     C_R   0.256355 0.965055 0.928985 0.541353
Cr1   Cr    Cr6+3 0.576280 0.580550 0.506370 1.006150
Cr2   Cr    Cr6+3 0.346780 0.572400 0.496520 0.994559
Cr3   Cr    Cr6+3 0.576960 0.347070 0.497150 1.008963
Cr4   Cr    Cr6+3 0.087320 0.083240 0.984860 0.998715
Cr5   Cr    Cr6+3 0.087720 0.316210 0.996740 1.006760
Cr6   Cr    Cr6+3 0.317350 0.090340 0.995890 0.997861
H1    H     H_    0.759384 0.224542 0.403892 0.121537
H2    H     H_    0.940588 0.410317 0.104597 0.131744
H3    H     H_    0.857339 0.458337 0.345399 0.129737
H4    H     H_    0.831532 0.177553 0.337402 0.125385
H5    H     H_    0.537887 0.699386 0.404943 0.138672
H6    H     H_    0.162599 0.875725 0.080155 0.127048
H7    H     H_    0.523498 0.747740 0.336857 0.139966
H8    H     H_    0.196920 0.823230 0.148956 0.129964
H9    H     H_    0.436092 0.916567 0.091607 0.116176
H10   H     H_    0.248067 0.530305 0.590913 0.129823
H11   H     H_    0.128885 0.420643 0.900723 0.131190
H12   H     H_    0.464324 0.192805 0.311792 0.114683
H13   H     H_    0.454869 0.196894 0.910956 0.119855
H14   H     H_    0.475438 0.234081 0.843921 0.128823
H15   H     H_    0.804195 0.204928 0.670630 0.107232
H16   H     H_    0.848260 0.449437 0.895995 0.122105
H17   H     H_    0.498857 0.210061 0.384882 0.128280
H18   H     H_    0.395478 0.978461 0.887968 0.130786
H19   H     H_    0.517658 0.715536 0.692331 0.107319
H20   H     H_    0.539947 0.665728 0.620594 0.132153
H21   H     H_    0.220154 0.798383 0.807494 0.114042
H22   H     H_    0.189101 0.846834 0.879296 0.124891
H23   H     H_    0.236264 0.518521 0.388812 0.125888
H24   H     H_    0.140979 0.417863 0.182132 0.116355
H25   H     H_    0.202930 0.499837 0.315701 0.115286
H26   H     H_    0.786626 0.504918 0.411531 0.128531
N1    N     N_R   0.844029 0.377056 0.232200 -0.232787
N2    N     N_R   0.236631 0.400231 0.726369 -0.265321
N3    N     N_R   0.417761 0.309878 0.733781 -0.235858
N4    N     N_R   0.412947 0.307351 0.773265 -0.246909
N5    N     N_R   0.836250 0.386417 0.271902 -0.228469
N6    N     N_R   0.904740 0.207345 0.272809 -0.235455
N7    N     N_R   0.913561 0.198104 0.233011 -0.241323
N8    N     N_R   0.260839 0.838307 0.222587 -0.232088
N9    N     N_R   0.264878 0.833445 0.262362 -0.232180
N10   N     N_R   0.432911 0.813548 0.267510 -0.229767
N11   N     N_R   0.428685 0.818893 0.227674 -0.231144
N12   N     N_R   0.231842 0.398029 0.765809 -0.257470
O1    O     O_R   0.679450 0.499830 0.463150 -0.522241
O2    O     O_R   0.356040 0.477400 0.534170 -0.506483
O3    O     O_R   0.495910 0.323070 0.537100 -0.516585
O4    O     O_R   0.663920 0.359620 0.542290 -0.500471
O5    O     O_3   0.500010 0.500010 0.500010 -0.230140
O6    O     O_R   0.170070 0.978950 0.027680 -0.523185
O7    O     O_R   0.001760 0.175230 0.026640 -0.500540
O8    O     O_R   0.984760 0.333570 0.037150 -0.524300
O9    O     O_R   0.183410 0.309240 0.041890 -0.503131
O10   O     O_R   0.340240 0.172500 0.045430 -0.521975
O11   O     O_R   0.309670 0.000990 0.032050 -0.501423
O12   O     O_R   0.480650 0.664000 0.464630 -0.501454
O13   O     O_R   0.168330 0.982130 0.939200 -0.520450
O14   O     O_R   0.000140 0.178170 0.944610 -0.504937
O15   O     O_R   0.983010 0.336750 0.948660 -0.517986
O16   O     O_R   0.181800 0.312190 0.959860 -0.501356
O17   O     O_R   0.338500 0.175680 0.956950 -0.526960
O18   O     O_R   0.308050 0.003930 0.950020 -0.504355
O19   O     O_3   0.164130 0.163270 0.992500 -0.230072
O20   O     O_R   0.323930 0.675950 0.455370 -0.528528
O21   O     O_R   0.354700 0.475360 0.451930 -0.501145
O22   O     O_R   0.494470 0.320860 0.448390 -0.519069
O23   O     O_R   0.662580 0.357570 0.460050 -0.501359
O24   O     O_R   0.680900 0.502040 0.551870 -0.524625
O25   O     O_R   0.481990 0.666040 0.546870 -0.503393
O26   O     O_R   0.325370 0.678160 0.544080 -0.527048
C97   C     C_3   0.489920 0.198985 0.100798 -0.240972
C98   C     C_3   0.538406 0.082545 0.106313 -0.277452
C99   C     C_3   0.630504 0.019650 0.080167 -0.457555
H27   H     H_    0.604653 0.029514 0.047643 0.152329
H28   H     H_    0.690706 0.044525 0.087648 0.143853
H29   H     H_    0.665168 0.936322 0.085760 0.137639
H30   H     H_    0.564730 0.067332 0.138538 0.149359
H31   H     H_    0.479717 0.055887 0.098000 0.188865
H32   H     H_    0.477027 0.214348 0.068243 0.163319
H33   H     H_    0.545017 0.227584 0.113338 0.119900
H34   H     H_    0.912263 0.412929 0.173683 0.137510
C100  C     C_3   0.846223 0.150645 0.064751 -0.252587
C101  C     C_3   0.757829 0.225298 0.036615 -0.294061
C102  C     C_3   0.718212 0.167188 0.005260 -0.457226
H35   H     H_    0.781992 0.110685 0.986332 0.150430
H36   H     H_    0.686814 0.125622 0.020369 0.145037
H37   H     H_    0.655137 0.223045 0.985317 0.145035
H38   H     H_    0.692460 0.281815 0.054923 0.160027
H39   H     H_    0.784220 0.269167 0.020236 0.167980
H40   H     H_    0.911242 0.091360 0.047145 0.168269
H41   H     H_    0.813253 0.108632 0.078275 0.127801
C103  C     C_3   0.878422 0.108201 0.153894 -0.244216
C104  C     C_3   0.769708 0.139096 0.166695 -0.290610
C105  C     C_3   0.766965 0.048699 0.183814 -0.444691
H42   H     H_    0.786585 0.983543 0.160482 0.148988
H43   H     H_    0.822996 0.021747 0.210499 0.174608
H44   H     H_    0.687950 0.074061 0.193522 0.137333
H45   H     H_    0.744611 0.204729 0.189955 0.188595
H46   H     H_    0.713622 0.164727 0.140094 0.149841
H47   H     H_    0.902647 0.042333 0.130848 0.118552
H48   H     H_    0.938256 0.073475 0.178690 0.181987
C106  C     C_3   0.173963 0.842177 0.410677 -0.245963
C107  C     C_3   0.073677 0.928800 0.391638 -0.314631
C108  C     C_3   0.983027 0.967366 0.418659 -0.455472
H49   H     H_    0.971958 0.901861 0.426093 0.150157
H50   H     H_    0.997233 0.006689 0.446972 0.150123
H51   H     H_    0.910779 0.023986 0.402675 0.143336
H52   H     H_    0.085812 0.995345 0.386522 0.175340
H53   H     H_    0.051909 0.898925 0.362232 0.161239
H54   H     H_    0.163241 0.772822 0.411330 0.166303
H55   H     H_    0.184800 0.869429 0.442364 0.156035
H56   H     H_    0.473211 0.244015 0.180772 0.107318
H57   H     H_    0.192921 0.871733 0.331994 0.132178
H58   H     H_    0.470281 0.864450 0.160986 0.131017
H59   H     H_    0.491338 0.215139 0.591243 0.129428
C109  C     C_3   0.197659 0.555115 0.670333 -0.247506
C110  C     C_3   0.155570 0.657536 0.649776 -0.314550
C111  C     C_3   0.090507 0.750083 0.678110 -0.457581
H60   H     H_    0.024634 0.742667 0.687869 0.149623
H61   H     H_    0.139120 0.755378 0.705177 0.156126
H62   H     H_    0.058910 0.822524 0.662142 0.134392
H63   H     H_    0.221242 0.666998 0.641074 0.180639
H64   H     H_    0.105810 0.657405 0.622281 0.152112
H65   H     H_    0.130730 0.544554 0.676527 0.162296
H66   H     H_    0.237256 0.563565 0.699708 0.169788
H67   H     H_    0.457417 0.204929 0.660144 0.124310
H68   H     H_    0.149137 0.456878 0.833935 0.124266
H69   H     H_    0.964425 0.122454 0.874553 0.131521
C112  C     C_3   0.921594 0.117406 0.790956 -0.251121
C113  C     C_3   0.968922 0.011282 0.808942 -0.309140
C114  C     C_3   0.987689 0.925366 0.775828 -0.460464
H70   H     H_    0.913513 0.939480 0.758782 0.150902
H71   H     H_    0.043023 0.921422 0.754593 0.152250
H72   H     H_    0.021313 0.849746 0.789660 0.138641
H73   H     H_    0.044527 0.994165 0.825331 0.173478
H74   H     H_    0.915557 0.011694 0.830303 0.157162
H75   H     H_    0.847238 0.131610 0.773938 0.150057
H76   H     H_    0.975442 0.113766 0.769032 0.152403
H77   H     H_    0.752481 0.236254 0.599113 0.125026
H78   H     H_    0.765002 0.523768 0.617315 0.122426
C115  C     C_3   0.779563 0.506650 0.820029 -0.257263
C116  C     C_3   0.664298 0.543090 0.808071 -0.289661
C117  C     C_3   0.608981 0.655560 0.796995 -0.459312
H79   H     H_    0.611445 0.706898 0.823525 0.156020
H80   H     H_    0.645724 0.665694 0.771586 0.137205
H81   H     H_    0.526712 0.678298 0.787542 0.161163
H82   H     H_    0.655594 0.494364 0.781756 0.177095
H83   H     H_    0.626113 0.536016 0.833770 0.171119
H84   H     H_    0.785935 0.561254 0.844451 0.131057
H85   H     H_    0.819786 0.509517 0.794227 0.143997
C118  C     C_3   0.816231 0.519607 0.697105 -0.263600
C119  C     C_3   0.930812 0.485398 0.709701 -0.282005
C120  C     C_3   0.943516 0.572658 0.734089 -0.457098
H86   H     H_    0.915772 0.640326 0.715490 0.140764
H87   H     H_    0.899021 0.596934 0.761674 0.140703
H88   H     H_    0.026645 0.545687 0.743407 0.182544
H89   H     H_    0.963155 0.417262 0.728356 0.181131
H90   H     H_    0.975980 0.463023 0.682304 0.172356
H91   H     H_    0.783552 0.592540 0.681261 0.128430
H92   H     H_    0.770930 0.538283 0.724164 0.142176
C121  C     C_3   0.442953 0.943068 0.807119 -0.253810
C122  C     C_3   0.507429 0.984154 0.834576 -0.316475
C123  C     C_3   0.576183 0.005404 0.809965 -0.451653
H93   H     H_    0.631348 0.933020 0.793557 0.147483
H94   H     H_    0.527818 0.064216 0.787840 0.177379
H95   H     H_    0.621409 0.035426 0.830545 0.139125
H96   H     H_    0.454817 0.057677 0.850987 0.170619
H97   H     H_    0.557698 0.926335 0.856816 0.155369
H98   H     H_    0.497453 0.874033 0.788926 0.145283
H99   H     H_    0.391515 0.002903 0.785752 0.160239
C124  C     C_3   0.179378 0.871282 0.587326 -0.251823
C125  C     C_3   0.186392 0.941676 0.558432 -0.285311
C126  C     C_3   0.087778 0.991084 0.530879 -0.459320
H100  H     H_    0.075007 0.930079 0.512768 0.149279
H101  H     H_    0.019593 0.040238 0.549050 0.151751
H102  H     H_    0.095567 0.040352 0.509954 0.142497
H103  H     H_    0.197807 0.003949 0.576221 0.164709
H104  H     H_    0.253293 0.896699 0.539238 0.166395
H105  H     H_    0.165746 0.809780 0.570281 0.168100
H106  H     H_    0.109530 0.918619 0.604931 0.124188
H107  H     H_    0.189394 0.901990 0.668614 0.102201
H108  H     H_    0.124321 0.388390 0.109290 0.130197

loop_
_geom_bond_atom_site_label_1
_geom_bond_atom_site_label_2
_ccdc_geom_bond_type
Cr4   O13   S    
C8    C9    A    
C35   H5    S    
C66   C68   A    
C87   C88   T    
Cr5   O8    S    
C105  H42   S    
C55   C59   A    
C49   H67   S    
C106  H54   S    
C41   C42   A    
C74   C94   S    
C96   O18   A    
C122  H96   S    
C20   N1    A    
C123  H95   S    
N2    N12   A    
Cr4   O14   S    
Cr6   O18   S    
C91   O7    A    
C100  C101  S    
C110  H64   S    
C7    C8    A    
C103  H47   S    
C85   C86   A    
C44   C45   S    
C25   C28   A    
C98   H31   S    
C111  H60   S    
C124  H105  S    
C26   C27   A    
C62   C63   A    
C59   C95   S    
C23   O1    A    
C112  H76   S    
C103  H48   S    
Cr3   O3    S    
N8    N9    A    
C76   C124  S    
C117  H79   S    
C38   C42   A    
C46   H10   S    
C5    C6    A    
C111  H61   S    
Cr5   O15   S    
Cr4   O7    S    
C68   C74   A    
C15   C16   A    
C54   H11   S    
C116  H83   S    
C69   H16   S    
C107  H53   S    
C109  C110  S    
C1    O12   A    
C18   C19   A    
C99   H27   S    
C77   H107  S    
C49   C50   A    
C79   C88   S    
C51   N4    A    
C105  H44   S    
C43   C93   S    
C12   O21   A    
C116  C117  S    
C26   C103  S    
C104  H45   S    
C40   C43   A    
C34   O26   A    
C114  H70   S    
C53   C54   A    
C44   C46   A    
C108  H49   S    
C125  H103  S    
C4    H17   S    
C85   H21   S    
C106  C107  S    
C70   C115  S    
C38   H8    S    
C34   O25   A    
C9    C10   S    
C61   C62   A    
C102  H37   S    
Cr6   O11   S    
C109  H66   S    
C51   N12   A    
Cr3   O5    S    
C107  C108  S    
C37   N9    A    
C126  H100  S    
Cr2   O2    S    
C82   C121  S    
C99   H28   S    
C83   H18   S    
C68   H69   S    
C67   C78   A    
C84   C90   A    
C22   H34   S    
C2    C11   S    
C36   N8    A    
Cr6   O17   S    
C21   N5    A    
C91   O8    A    
C102  H36   S    
C17   C18   A    
C57   H14   S    
C23   O23   A    
C54   C59   A    
C77   C79   A    
C78   C89   A    
C98   H30   S    
C12   C67   S    
C122  H97   S    
C124  H106  S    
C120  H87   S    
Cr2   O5    S    
C47   C48   A    
C98   C99   S    
Cr3   O4    S    
C93   O6    A    
C94   O15   A    
C121  H98   S    
C84   C85   A    
C72   C73   T    
N10   N11   A    
Cr4   O6    S    
C97   C98   S    
C119  H89   S    
C16   C17   A    
C39   C43   A    
C109  H65   S    
Cr5   O16   S    
C25   C26   A    
C110  C111  S    
C19   H1    S    
C116  H82   S    
C111  H62   S    
C17   C21   S    
C64   H15   S    
C56   C60   S    
C32   C33   A    
C60   C61   A    
C24   H2    S    
C56   O4    A    
C14   C23   S    
C2    C89   A    
C75   C76   A    
C18   H4    S    
C66   C71   A    
C5    C9    A    
C29   C30   A    
C36   C42   S    
Cr3   O22   S    
C104  H46   S    
C31   C32   A    
C31   H57   S    
C7    C13   A    
C30   C31   A    
C94   O14   A    
Cr1   O24   S    
C1    C29   S    
C112  C113  S    
C120  H86   S    
C115  H84   S    
C69   C74   A    
C117  H80   S    
C51   C58   S    
C32   C37   S    
C95   O16   A    
Cr1   O1    S    
Cr2   O26   S    
C16   H3    S    
Cr6   O10   S    
N1    N5    A    
C100  H41   S    
C8    H24   S    
C48   C49   A    
C114  H71   S    
C39   H6    S    
Cr2   O20   S    
C60   C65   A    
C82   C83   A    
C6    C97   S    
C80   H19   S    
C126  H101  S    
C13   C92   S    
C92   O10   A    
C45   O2    A    
C99   H29   S    
C22   C24   A    
C79   C80   A    
C93   O11   A    
C33   H7    S    
C113  H73   S    
C41   H58   S    
C125  H104  S    
C3    C4    A    
C7    H108  S    
C21   N6    A    
C121  C122  S    
Cr2   O21   S    
C119  C120  S    
C86   C87   S    
C97   H32   S    
C101  H38   S    
C89   H25   S    
C44   C50   A    
C104  C105  S    
C83   C90   A    
C29   C35   A    
C46   C47   A    
C40   C41   A    
C120  H88   S    
C105  H43   S    
C30   C106  S    
C106  H55   S    
C25   C100  S    
C52   N3    A    
Cr1   O5    S    
C14   C19   A    
C65   H77   S    
C1    O20   A    
C75   C81   A    
C121  H99   S    
C24   C28   A    
C80   C81   A    
C123  H94   S    
C3    H12   S    
Cr6   O19   S    
C50   H59   S    
C4    C67   A    
C53   C58   A    
C90   C96   S    
C96   O13   A    
C101  H39   S    
C20   C27   S    
C101  C102  S    
C84   H22   S    
C63   C73   S    
C34   C75   S    
N6    N7    A    
C92   O9    A    
C81   H20   S    
C22   C27   A    
C110  H63   S    
C112  H75   S    
C64   C65   A    
C55   C57   A    
C122  C123  S    
C118  H92   S    
C52   N2    A    
C71   C72   S    
C82   C86   A    
N3    N4    A    
C56   O24   A    
C5    H56   S    
C76   C77   A    
Cr4   O19   S    
C15   H26   S    
C62   C118  S    
C38   C39   A    
C55   H13   S    
C107  H52   S    
C108  H51   S    
Cr1   O25   S    
C66   C112  S    
Cr5   O9    S    
C53   H68   S    
C33   C35   A    
Cr1   O12   S    
C115  H85   S    
C2    C3    A    
C28   C91   S    
C119  H90   S    
C20   N7    A    
C69   C70   A    
C36   N11   A    
C115  C116  S    
C40   H9    S    
C70   C71   A    
Cr3   O23   S    
C10   C11   T    
C12   O22   A    
C63   C64   A    
C100  H40   S    
C117  H81   S    
C48   C52   S    
C114  H72   S    
C125  C126  S    
Cr5   O19   S    
C95   O17   A    
C113  C114  S    
C126  H102  S    
C124  C125  S    
C113  H74   S    
C45   O3    A    
C61   H78   S    
C14   C15   A    
C103  C104  S    
C57   C58   A    
C47   C109  S    
C78   H23   S    
C108  H50   S    
C102  H35   S    
C123  H93   S    
C118  C119  S    
C118  H91   S    
C97   H33   S    
C6    C13   A    
C37   N10   A    
