data_mof_unit_62694.cif
_audit_creation_date              2012-10-26T20:53:11-0400
_audit_creation_method            fapswitch 2.2
_symmetry_space_group_name_H-M    P1
_symmetry_Int_Tables_number       1
_space_group_crystal_system       triclinic
_cell_length_a                    14.756505
_cell_length_b                    15.99732
_cell_length_c                    17.143393
_cell_angle_alpha                 89.589074
_cell_angle_beta                  94.018522
_cell_angle_gamma                 90.013149
_cell_volume                      4036.89344735

loop_
_atom_site_label
_atom_site_type_symbol
_atom_type_description
_atom_site_fract_x
_atom_site_fract_y
_atom_site_fract_z
_atom_type_partial_charge
C1    C     C_R   0.499971 0.340826 0.499980 0.548459
C2    C     C_1   0.500046 0.748294 0.500019 0.011121
C3    C     C_R   0.946200 0.509476 0.430085 -0.132662
C4    C     C_R   0.053799 0.490524 0.569915 -0.132662
C5    C     C_R   0.902892 0.499985 0.500236 -0.053257
C6    C     C_R   0.097108 0.500014 0.499764 -0.053257
C7    C     C_R   0.958003 0.490492 0.570289 0.413030
C8    C     C_R   0.041997 0.509508 0.429711 0.413031
C9    C     C_1   0.802733 0.500010 0.500095 0.236683
C10   C     C_1   0.197267 0.499989 0.499905 0.236683
C11   C     C_R   0.511323 0.498512 0.651349 0.577814
C12   C     C_R   0.500029 0.659174 0.500020 0.548460
C13   C     C_R   0.488677 0.501489 0.348651 0.577814
C14   C     C_R   0.517718 0.495879 0.737262 -0.116715
C15   C     C_R   0.482282 0.504121 0.262738 -0.116715
C16   C     C_R   0.437932 0.488743 0.776737 -0.183515
C17   C     C_R   0.562069 0.511254 0.223263 -0.183515
C18   C     C_R   0.441653 0.485884 0.857918 0.355244
C19   C     C_R   0.558347 0.514113 0.142083 0.355243
C20   C     C_R   0.526406 0.491148 0.901478 0.170814
C21   C     C_R   0.473594 0.508852 0.098521 0.170815
C22   C     C_R   0.606091 0.496480 0.862081 0.413954
C23   C     C_R   0.500022 0.912790 0.500007 0.039380
C24   C     C_R   0.393909 0.503523 0.137919 0.413954
C25   C     C_R   0.602232 0.499234 0.780637 0.384972
C26   C     C_R   0.397768 0.500769 0.219362 0.384972
C27   C     C_R   0.582412 0.956395 0.502432 -0.085816
C28   C     C_R   0.417588 0.043605 0.497568 -0.085816
C29   C     C_R   0.499978 0.087210 0.499992 0.039380
C30   C     C_R   0.417610 0.956364 0.497575 -0.085789
C31   C     C_R   0.582390 0.043636 0.502424 -0.085790
C32   C     C_1   0.500042 0.823339 0.500014 -0.029138
C33   C     C_1   0.499958 0.176661 0.499986 -0.029138
C34   C     C_1   0.499954 0.251706 0.499981 0.011120
Cu1   Cu    Cu3+1 0.589220 0.500000 0.499980 1.096711
Cu2   Cu    Cu3+1 0.410780 0.500000 0.500020 1.096711
F1    F     F_    0.637410 0.523593 0.106948 -0.525227
F2    F     F_    0.362591 0.476401 0.893053 -0.525227
F3    F     F_    0.688010 0.500293 0.903211 -0.479907
F4    F     F_    0.311991 0.499713 0.096789 -0.479907
F5    F     F_    0.681131 0.505602 0.744755 -0.505730
F6    F     F_    0.318869 0.494405 0.255245 -0.505729
F7    F     F_    0.080810 0.518842 0.360712 -0.538857
F8    F     F_    0.919189 0.481158 0.639288 -0.538857
H1    H     H_    0.646421 0.923013 0.504320 0.136693
H2    H     H_    0.353579 0.076987 0.495680 0.136693
H3    H     H_    0.905726 0.516906 0.375281 0.171021
H4    H     H_    0.094274 0.483094 0.624719 0.171021
H5    H     H_    0.627886 0.515246 0.255223 0.197879
H6    H     H_    0.372115 0.484748 0.744777 0.197878
H7    H     H_    0.646382 0.077043 0.504308 0.136934
H8    H     H_    0.353618 0.922957 0.495692 0.136934
N1    N     N_2   0.535189 0.489977 0.984341 -0.069580
N2    N     N_2   0.464811 0.510023 0.015659 -0.069582
N3    N     N_1   0.276710 0.499980 0.499980 -0.162983
N4    N     N_1   0.723290 0.500020 0.500020 -0.162982
O1    O     O_R   0.575320 0.380310 0.499960 -0.492322
O2    O     O_R   0.424680 0.619690 0.500040 -0.492321
O3    O     O_R   0.424640 0.380310 0.500000 -0.493311
O4    O     O_R   0.575360 0.619690 0.500000 -0.493310
O5    O     O_R   0.583590 0.499240 0.613900 -0.409504
O6    O     O_R   0.416410 0.500760 0.386100 -0.409503
O7    O     O_R   0.432900 0.499240 0.613940 -0.526397
O8    O     O_R   0.567100 0.500760 0.386060 -0.526397

loop_
_geom_bond_atom_site_label_1
_geom_bond_atom_site_label_2
_ccdc_geom_bond_type
C6    C10   S    
C5    C9    S    
Cu1   O8    S    
C23   C27   A    
Cu2   O7    S    
C5    C7    A    
C11   O7    A    
Cu1   Cu2   S    
C8    F7    S    
Cu1   O1    S    
Cu2   O3    S    
C2    C12   S    
C23   C32   S    
C27   H1    S    
C28   C30   A    
C33   C34   T    
C18   F2    S    
C12   O2    A    
C29   C31   A    
C9    N4    T    
N1    N2    D    
C10   N3    T    
C28   H2    S    
C13   O8    A    
C11   O5    A    
C4    C7    A    
Cu2   O6    S    
C22   F3    S    
C2    C32   T    
C3    H3    S    
C28   C29   A    
C17   C19   A    
C1    O3    A    
C24   C26   A    
C1    C34   S    
C18   C20   A    
C13   C15   S    
C14   C25   A    
Cu2   N3    S    
C21   N2    S    
C31   H7    S    
C11   C14   S    
C14   C16   A    
C4    C6    A    
C20   C22   A    
Cu2   O2    S    
C27   C31   A    
C12   O4    A    
C23   C30   A    
C29   C33   S    
C26   F6    S    
Cu1   O5    S    
C3    C8    A    
C4    H4    S    
C21   C24   A    
C25   F5    S    
C15   C17   A    
C30   H8    S    
C20   N1    S    
C15   C26   A    
C6    C8    A    
C19   F1    S    
C24   F4    S    
Cu1   N4    S    
C19   C21   A    
C7    F8    S    
C16   C18   A    
C17   H5    S    
C13   O6    A    
C16   H6    S    
Cu1   O4    S    
C3    C5    A    
C22   C25   A    
C1    O1    A    
