data_mof_unit_53906.cif
_audit_creation_date              2013-03-05T16:44:37-0500
_audit_creation_method            fapswitch 2.2
_symmetry_space_group_name_H-M    P1
_symmetry_Int_Tables_number       1
_space_group_crystal_system       triclinic
_cell_length_a                    27.668976
_cell_length_b                    10.652555
_cell_length_c                    9.942636
_cell_angle_alpha                 89.931157
_cell_angle_beta                  89.425559
_cell_angle_gamma                 90.027097
_cell_volume                      2930.39537202

loop_
_atom_site_label
_atom_site_type_symbol
_atom_site_description
_atom_site_fract_x
_atom_site_fract_y
_atom_site_fract_z
_atom_type_partial_charge
O1    O     O_R   0.500010 0.316790 0.614690 -0.603862
O2    O     O_R   0.500000 0.316760 0.385350 -0.609173
C1    C     C_R   0.501823 0.260275 0.500231 0.897890
O3    O     O_R   0.428760 0.500040 0.614660 -0.616855
O4    O     O_R   0.428750 0.500000 0.385310 -0.626458
C2    C     C_R   0.406129 0.499732 0.499979 0.875448
Zn1   Zn    Zn3+2 0.500000 0.500020 0.653130 1.021586
Zn2   Zn    Zn3+2 0.500000 0.499980 0.346870 0.991896
O5    O     O_R   0.500000 0.683240 0.614650 -0.580887
O6    O     O_R   0.499990 0.683210 0.385310 -0.627730
O7    O     O_R   0.571250 0.500000 0.614690 -0.603199
O8    O     O_R   0.571240 0.499960 0.385340 -0.605766
C3    C     C_R   0.501553 0.739733 0.499991 0.904059
C4    C     C_R   0.593808 0.498507 0.499351 0.977207
C5    C     C_R   0.179766 0.402480 0.427946 0.522662
O9    O     O_2   0.207561 0.299397 0.412182 -0.542131
N1    N     N_R   0.201575 0.516733 0.443689 -0.351386
C6    C     C_R   0.175619 0.625495 0.439382 0.547235
C7    C     C_R   0.283562 0.579561 0.371488 0.038153
C8    C     C_R   0.333156 0.577659 0.390608 -0.263996
C9    C     C_R   0.323020 0.441867 0.585648 -0.073346
C10   C     C_R   0.272723 0.456917 0.577070 -0.002926
C11   C     C_R   0.252810 0.521032 0.466046 0.198882
C12   C     C_R   0.101900 0.504905 0.417883 -0.057340
C13   C     C_R   0.128879 0.392903 0.428878 -0.064077
C14   C     C_R   0.104372 0.277461 0.447875 -0.052288
C15   C     C_R   0.126013 0.621467 0.415934 -0.068819
C16   C     C_R   0.353357 0.507894 0.495703 -0.094079
C17   C     C_R   0.646478 0.490823 0.496499 -0.243526
C18   C     C_R   0.975483 0.382994 0.402923 0.044421
C19   C     C_R   0.973978 0.613692 0.410333 0.058691
C20   C     C_R   0.949489 0.497143 0.409679 0.087276
C21   C     C_R   0.949342 0.271564 0.378629 -0.185394
C22   C     C_R   0.899371 0.268498 0.392238 -0.106152
C23   C     C_R   0.873838 0.378931 0.418878 -0.033792
C24   C     C_R   0.898495 0.494290 0.419495 -0.055391
C25   C     C_R   0.872199 0.606480 0.432233 -0.041095
C26   C     C_R   0.821791 0.601111 0.440544 0.593521
N2    N     N_R   0.798861 0.487690 0.454828 -0.333701
C27   C     C_R   0.824050 0.377246 0.444193 0.549719
C28   C     C_R   0.719039 0.414260 0.387681 -0.136555
C29   C     C_R   0.669293 0.410481 0.403004 0.222969
C30   C     C_R   0.674600 0.563642 0.585019 0.170015
C31   C     C_R   0.725128 0.553120 0.580550 0.319362
C32   C     C_R   0.747392 0.484711 0.475421 0.106833
O10   O     O_2   0.801183 0.266157 0.459939 -0.515642
C33   C     C_R   0.026423 0.384450 0.419729 0.006324
C34   C     C_R   0.050949 0.501410 0.409741 0.036205
C35   C     C_R   0.024843 0.615868 0.394362 -0.011461
C36   C     C_R   0.053554 0.275238 0.453631 -0.061344
H1    H     H_    0.735925 0.359492 0.308487 0.214716
H2    H     H_    0.880856 0.179546 0.380958 0.201852
H3    H     H_    0.966984 0.185662 0.348180 0.184126
O11   O     O_2   0.197764 0.737019 0.457865 -0.535274
C37   C     C_R   0.100676 0.730987 0.386258 -0.136202
H4    H     H_    0.356379 0.626434 0.319124 0.166689
H5    H     H_    0.119810 0.818624 0.370288 0.218349
C38   C     C_R   0.946924 0.723332 0.436600 -0.144759
C39   C     C_R   0.896772 0.720600 0.442008 -0.099695
O12   O     O_2   0.795896 0.708331 0.434722 -0.495017
C40   C     C_R   0.051165 0.727721 0.366079 0.231885
H6    H     H_    0.964019 0.811404 0.460197 0.195797
H7    H     H_    0.877459 0.807584 0.459686 0.204157
C41   C     C_R   0.510245 0.063975 0.623200 0.084067
C42   C     C_R   0.510177 0.128962 0.501416 -0.146152
C43   C     C_R   0.519682 0.065072 0.380721 -0.123325
H8    H     H_    0.523842 0.114219 0.285830 0.216151
C44   C     C_R   0.519394 0.935311 0.380542 -0.156064
H9    H     H_    0.523584 0.886432 0.285635 0.205698
C45   C     C_R   0.509298 0.871229 0.500880 -0.148587
C46   C     C_R   0.508968 0.936052 0.622699 0.079838
C47   C     C_3   0.476336 0.929582 0.744178 0.180530
C48   C     C_3   0.477832 0.073493 0.744535 0.032521
H10   H     H_    0.442863 0.119634 0.720810 0.116478
C49   C     C_R   0.458042 0.513741 0.072245 0.210052
N3    N     N_R   0.499670 0.499140 0.142800 -0.132361
C50   C     C_R   0.541946 0.503959 0.069221 -0.024886
C51   C     C_R   0.541647 0.486257 0.928293 0.004789
N4    N     N_R   0.499670 0.499180 0.857150 -0.122961
C52   C     C_R   0.458111 0.517390 0.930086 0.237115
C53   C     C_3   0.414994 0.433433 0.927433 -0.471280
C54   C     C_3   0.415060 0.430778 0.079753 -0.470150
H11   H     H_    0.382878 0.481784 0.885657 0.215072
H12   H     H_    0.423860 0.340931 0.882269 0.244806
H13   H     H_    0.383252 0.478733 0.125392 0.208291
H14   H     H_    0.423434 0.336804 0.122424 0.234280
C55   C     C_1   0.342012 0.343123 0.669967 0.183399
N5    N     N_1   0.356235 0.261482 0.735328 -0.202343
C56   C     C_1   0.265140 0.636949 0.250725 0.238004
N6    N     N_1   0.250401 0.682824 0.153872 -0.156538
Br1   Br    Br    0.645212 0.685507 0.704269 -0.348957
Br2   Br    Br    0.763315 0.625988 0.721924 -0.333435
Br3   Br    Br    0.025803 0.870311 0.269857 -0.514343
C57   C     C_1   0.427905 0.879294 0.715119 0.145071
N7    N     N_1   0.389928 0.839586 0.692233 -0.165997
C58   C     C_1   0.241277 0.402629 0.679236 0.233013
N8    N     N_1   0.216169 0.359349 0.760747 -0.162342
Br4   Br    Br    0.506752 0.842152 0.893545 -0.412272
Br5   Br    Br    0.511026 0.152072 0.894490 -0.439384
C59   C     C_1   0.586667 0.546072 0.126989 0.329260
N9    N     N_1   0.623015 0.582479 0.168539 -0.131648
C60   C     C_1   0.584637 0.433648 0.867660 0.362575
N10   N     N_1   0.619413 0.389087 0.822983 -0.122210
C61   C     C_1   0.130501 0.161584 0.473902 0.321643
N11   N     N_1   0.151071 0.069086 0.494747 -0.114649
Br6   Br    Br    0.635027 0.287973 0.298188 -0.429015
C62   C     C_1   0.030734 0.166412 0.516061 0.195273
N12   N     N_1   0.012850 0.079764 0.566374 -0.157633

loop_
_geom_bond_atom_site_label_1
_geom_bond_atom_site_label_2
_geom_bond_distance
_ccdc_geom_bond_type
C38   H6    1.077649 S    
C43   C44   1.382314 A    
C55   N5    1.156560 T    
C9    C55   1.446599 S    
C17   C29   1.409180 A    
C51   C60   1.442027 S    
C28   C29   1.383867 A    
C23   C24   1.405297 A    
C12   C15   1.409309 A    
C8    H4    1.085190 S    
C53   C54   1.514709 S    
C47   Br4   1.950303 S    
C50   C51   1.414156 A    
C27   O10   1.349845 S    
N1    C11   1.437853 S    
C20   C24   1.413682 A    
C19   C38   1.410781 A    
C24   C25   1.404648 A    
C14   C36   1.406857 A    
C26   N2    1.370986 A    
O7    C4    1.300232 A    
C15   C37   1.394180 A    
C5    C13   1.411560 A    
C3    C45   1.417021 S    
C5    O9    1.349316 S    
Zn2   N3    2.029136 S    
C50   C59   1.441042 S    
C48   Br5   1.948549 S    
C22   C23   1.396761 A    
C48   H10   1.112737 S    
C41   C46   1.363162 A    
O5    C3    1.288789 A    
C22   H2    1.083448 S    
C14   C61   1.455053 S    
C2    C16   1.463815 S    
C19   C20   1.414166 A    
C44   H9    1.083516 S    
C41   C48   1.499552 S    
C45   C46   1.394886 A    
C49   C52   1.413907 A    
C31   Br2   1.930376 S    
N2    C32   1.437021 S    
C47   C57   1.474309 S    
C43   H8    1.083539 S    
C9    C10   1.404376 A    
C17   C30   1.413009 A    
C1    C42   1.417957 S    
C19   C35   1.414920 A    
O3    Zn1   2.011667 S    
C61   N11   1.157666 T    
C53   H11   1.111199 S    
N1    C6    1.364277 A    
C33   C36   1.426751 A    
C21   H3    1.079550 S    
C35   C40   1.422482 A    
C12   C34   1.413367 A    
C18   C33   1.421059 A    
C12   C13   1.412399 A    
O3    C2    1.306350 A    
N2    C27   1.371386 A    
C51   N4    1.372831 A    
C52   C53   1.491156 S    
C8    C16   1.402436 A    
C38   C39   1.388447 A    
C54   H14   1.112195 S    
C30   Br1   1.933295 S    
O1    C1    1.288639 A    
C7    C11   1.406656 A    
C49   N3    1.363469 A    
C25   C26   1.397488 A    
C7    C56   1.444313 S    
Zn1   O7    2.004356 S    
C33   C34   1.421361 A    
Zn2   O8    2.011667 S    
C58   N8    1.157362 T    
C21   C22   1.388251 A    
C57   N7    1.157346 T    
N3    C50   1.374343 A    
C29   Br6   1.926136 S    
C25   C39   1.396561 A    
C26   O12   1.350082 S    
Zn2   O6    1.989385 S    
C34   C35   1.426309 A    
C9    C16   1.407813 A    
O8    C4    1.299724 A    
C37   H5    1.083753 S    
C30   C31   1.402838 A    
C36   C62   1.455194 S    
C62   N12   1.157828 T    
C53   H12   1.109903 S    
C31   C32   1.411550 A    
Zn1   N4    2.028435 S    
C5    N1    1.368074 A    
C18   C21   1.412053 A    
O1    Zn1   1.989386 S    
C10   C58   1.450429 S    
O2    Zn2   1.988455 S    
C6    C15   1.395154 A    
C47   C48   1.533575 S    
O6    C3    1.291183 A    
O4    Zn2   2.004358 S    
C49   C54   1.482599 S    
C54   H13   1.111025 S    
C39   H7    1.083507 S    
C41   C42   1.394077 A    
C7    C8    1.387348 A    
O2    C1    1.291815 A    
C13   C14   1.415576 A    
C46   C47   1.502237 S    
C18   C20   1.414371 A    
O4    C2    1.295100 A    
C37   C40   1.386956 A    
C59   N9    1.157960 T    
C23   C27   1.398018 A    
C40   Br3   1.930253 S    
C60   N10   1.157965 T    
C6    O11   1.350068 S    
N4    C52   1.367329 A    
Zn1   O5    1.988454 S    
C44   C45   1.402407 A    
C42   C43   1.402936 A    
C28   C32   1.398008 A    
C10   C11   1.413969 A    
C4    C17   1.459659 S    
C56   N6    1.157311 T    
C28   H1    1.082882 S    
