data_mof_unit_51357.cif
_audit_creation_date              2012-12-10T17:46:25-0500
_audit_creation_method            fapswitch 2.2
_symmetry_space_group_name_H-M    P1
_symmetry_Int_Tables_number       1
_space_group_crystal_system       triclinic
_cell_length_a                    20.945638
_cell_length_b                    21.533775
_cell_length_c                    14.83537
_cell_angle_alpha                 90.435753
_cell_angle_beta                  129.370437
_cell_angle_gamma                 89.446512
_cell_volume                      5172.55167754

loop_
_atom_site_label
_atom_site_type_symbol
_atom_type_description
_atom_site_fract_x
_atom_site_fract_y
_atom_site_fract_z
_atom_type_partial_charge
C1    C     C_R   0.604949 0.915839 0.634624 0.786617
C2    C     C_R   0.631567 0.262225 0.018247 -0.229725
C3    C     C_R   0.717319 0.777338 0.966928 0.065863
C4    C     C_R   0.192500 0.751114 0.923001 0.066987
C5    C     C_R   0.753867 0.295208 0.001726 0.063445
C6    C     C_R   0.787833 0.751199 0.073606 0.068099
C7    C     C_R   0.217318 0.277344 0.966937 0.065880
C8    C     C_R   0.307052 0.817379 0.981344 -0.222605
C9    C     C_R   0.629702 0.237817 0.929770 -0.222031
C10   C     C_R   0.638333 0.766504 0.933432 -0.241441
C11   C     C_R   0.367161 0.267916 0.113940 -0.224049
C12   C     C_R   0.807575 0.317054 0.981919 -0.222580
C13   C     C_R   0.627718 0.725636 0.994451 -0.250336
C14   C     C_R   0.129805 0.737591 0.930094 -0.222058
C15   C     C_R   0.138334 0.266517 0.933452 -0.241448
C16   C     C_R   0.867164 0.767911 0.113936 -0.224037
C17   C     C_3   0.476824 0.077886 0.185080 -0.370186
C18   C     C_3   0.536670 0.128554 0.269548 -0.810707
C19   C     C_3   0.579914 0.999502 0.851847 -0.339653
C20   C     C_3   0.610338 0.057074 0.930040 -0.850170
C21   C     C_3   0.976882 0.577924 0.185135 -0.370150
C22   C     C_3   0.036751 0.628564 0.269668 -0.810894
C23   C     C_3   0.079921 0.499411 0.851843 -0.339633
C24   C     C_R   0.377435 0.303411 0.046401 -0.234729
C25   C     C_3   0.110484 0.556884 0.930287 -0.850733
C26   C     C_3   0.716176 0.984159 0.521756 -0.381738
C27   C     C_3   0.775234 0.032601 0.537056 -0.899349
C28   C     C_3   0.281850 0.012747 0.470465 -0.367714
C29   C     C_3   0.243402 0.078052 0.443507 -0.835347
C30   C     C_3   0.216176 0.484165 0.521742 -0.381722
C31   C     C_3   0.275190 0.532638 0.537005 -0.899114
C32   C     C_3   0.781852 0.512778 0.470469 -0.367750
C33   C     C_3   0.743424 0.578089 0.443493 -0.835306
C34   C     C_R   0.806990 0.291504 0.895265 -0.232252
C35   C     C_R   0.131774 0.761911 0.018713 -0.229727
C36   C     C_R   0.127721 0.225653 0.994480 -0.250405
C37   C     C_R   0.877439 0.803414 0.046408 -0.234730
C38   C     C_R   0.318936 0.002303 0.661501 -0.309144
C39   C     C_R   0.660715 0.945511 0.327295 -0.282489
C40   C     C_R   0.818939 0.502374 0.661510 -0.309086
C41   C     C_R   0.395340 0.084335 0.365781 0.785136
C42   C     C_R   0.160695 0.445492 0.327282 -0.282527
C43   C     C_R   0.349172 0.004136 0.600362 0.325611
C44   C     C_R   0.643602 0.974766 0.394379 0.337313
C45   C     C_R   0.849173 0.504171 0.600367 0.325660
C46   C     C_R   0.143594 0.474755 0.394373 0.337288
C47   C     C_R   0.486855 0.990565 0.779337 0.249322
C48   C     C_R   0.517506 0.014038 0.224418 0.262571
C49   C     C_R   0.986850 0.490549 0.779335 0.249245
C50   C     C_R   0.017516 0.514056 0.224429 0.262654
C51   C     C_R   0.454488 0.982548 0.841364 -0.050120
C52   C     C_R   0.395646 0.915400 0.365975 0.791920
C53   C     C_R   0.530236 0.981652 0.151190 -0.088850
C54   C     C_R   0.954476 0.482561 0.841360 -0.050013
C55   C     C_R   0.030227 0.481663 0.151187 -0.088892
C56   C     C_R   0.370297 0.995149 0.780987 0.067358
C57   C     C_R   0.603568 0.946636 0.206084 0.095173
C58   C     C_R   0.870297 0.495211 0.780993 0.067320
C59   C     C_R   0.103540 0.446621 0.206068 0.095146
C60   C     C_R   0.502457 0.966569 0.962745 0.065956
C61   C     C_R   0.475247 0.985017 0.026191 0.031506
C62   C     C_R   0.002432 0.466567 0.962734 0.066061
C63   C     C_R   0.601537 0.086849 0.630294 0.782890
C64   C     C_R   0.975239 0.485044 0.026190 0.031444
C65   C     C_R   0.391340 0.998945 0.962207 -0.278419
C66   C     C_R   0.569925 0.925585 0.018936 -0.266254
C67   C     C_R   0.891344 0.499024 0.962214 -0.278274
C68   C     C_R   0.069873 0.425557 0.018909 -0.266299
C69   C     C_R   0.337923 0.000920 0.840449 0.188144
C70   C     C_R   0.620730 0.915819 0.139243 0.162008
C71   C     C_R   0.837928 0.501015 0.840458 0.188207
C72   C     C_R   0.120679 0.415787 0.139215 0.161909
C73   C     C_R   0.654802 0.140193 0.697684 -0.044975
C74   C     C_R   0.104947 0.415837 0.634621 0.786611
C75   C     C_R   0.329187 0.872851 0.280530 -0.051377
C76   C     C_R   0.327678 0.125646 0.278782 -0.037812
C77   C     C_R   0.673776 0.876348 0.725437 -0.043613
C78   C     C_R   0.154692 0.640269 0.697567 -0.044996
C79   C     C_R   0.829176 0.372870 0.280507 -0.051360
C80   C     C_R   0.827677 0.625642 0.278776 -0.037795
C81   C     C_R   0.173770 0.376341 0.725429 -0.043611
C82   C     C_R   0.759672 0.213544 0.747344 -0.203542
C83   C     C_R   0.200795 0.820515 0.197484 -0.200156
C84   C     C_R   0.181136 0.146429 0.139879 -0.187683
C85   C     C_R   0.895340 0.584335 0.365781 0.785170
C86   C     C_R   0.821132 0.860382 0.870522 -0.190765
C87   C     C_R   0.259082 0.713958 0.746611 -0.203576
C88   C     C_R   0.700530 0.320823 0.197017 -0.200108
C89   C     C_R   0.681132 0.646411 0.139846 -0.187668
C90   C     C_R   0.321125 0.360362 0.870498 -0.190805
C91   C     C_R   0.710239 0.162623 0.682947 -0.201465
C92   C     C_R   0.266312 0.857345 0.284732 -0.204784
C93   C     C_R   0.246796 0.110810 0.229597 -0.210626
C94   C     C_R   0.753858 0.886470 0.765716 -0.201950
C95   C     C_R   0.209820 0.662930 0.682411 -0.201371
C96   C     C_R   0.895648 0.415399 0.365980 0.791919
C97   C     C_R   0.766102 0.357570 0.284397 -0.204767
C98   C     C_R   0.746793 0.610796 0.229572 -0.210617
C99   C     C_R   0.253851 0.386449 0.765690 -0.201927
C100  C     C_R   0.647833 0.170190 0.774867 -0.257207
C101  C     C_R   0.325761 0.851297 0.188460 -0.249683
C102  C     C_R   0.342450 0.173939 0.231903 -0.258854
C103  C     C_R   0.661320 0.837969 0.788465 -0.249450
C104  C     C_R   0.147872 0.670132 0.774999 -0.257250
C105  C     C_R   0.825920 0.351169 0.188662 -0.249621
C106  C     C_R   0.842450 0.673938 0.231904 -0.258850
C107  C     C_R   0.101523 0.586862 0.630278 0.782884
C108  C     C_R   0.161316 0.337970 0.788468 -0.249493
C109  C     C_R   0.696631 0.221804 0.840482 0.087999
C110  C     C_R   0.258815 0.816218 0.097130 0.086486
C111  C     C_R   0.276379 0.207818 0.134354 0.094685
C112  C     C_R   0.728272 0.813241 0.897317 0.088108
C113  C     C_R   0.196458 0.721872 0.840359 0.088023
C114  C     C_R   0.758917 0.316196 0.097177 0.086494
C115  C     C_R   0.776378 0.707811 0.134343 0.094668
C116  C     C_R   0.228268 0.313242 0.897318 0.088113
C117  C     C_R   0.754392 0.242560 0.827378 0.165245
C118  C     C_R   0.306341 0.791927 0.894513 -0.232282
C119  C     C_R   0.196836 0.799535 0.104295 0.166758
C120  C     C_R   0.195046 0.194095 0.090724 0.163785
C121  C     C_R   0.809152 0.825137 0.937775 0.164594
C122  C     C_R   0.253922 0.742860 0.826843 0.165237
C123  C     C_R   0.696714 0.299733 0.104000 0.166726
C124  C     C_R   0.695044 0.694081 0.090700 0.163765
C125  C     C_R   0.309147 0.325129 0.937765 0.164610
C126  C     C_R   0.692596 0.251134 0.922991 0.066972
C127  C     C_R   0.253627 0.795320 0.001520 0.063459
C128  C     C_R   0.287832 0.251204 0.073613 0.068101
Cu1   Cu    Cu3+1 0.526640 0.000000 0.436960 0.920789
Cu2   Cu    Cu3+1 0.473360 0.000000 0.563040 0.918521
Cu3   Cu    Cu3+1 0.026640 0.500000 0.436960 0.920781
Cu4   Cu    Cu3+1 0.973360 0.500000 0.563040 0.918552
H1    H     H_    0.348866 0.809606 0.882644 0.145877
H2    H     H_    0.580347 0.897149 0.969082 0.140972
H3    H     H_    0.865896 0.504701 0.006465 0.137793
H4    H     H_    0.080284 0.397115 0.969051 0.141014
H5    H     H_    0.377160 0.861398 0.191094 0.156137
H6    H     H_    0.605265 0.151313 0.784533 0.161475
H7    H     H_    0.598208 0.830423 0.751482 0.140926
H8    H     H_    0.405746 0.181391 0.269707 0.141946
H9    H     H_    0.877483 0.361089 0.191584 0.156098
H10   H     H_    0.105594 0.651062 0.785063 0.161611
H11   H     H_    0.098204 0.330433 0.751497 0.140933
H12   H     H_    0.582519 0.250559 0.020859 0.143167
H13   H     H_    0.905748 0.681397 0.269726 0.141941
H14   H     H_    0.267377 0.873994 0.354741 0.147332
H15   H     H_    0.715935 0.140578 0.622493 0.159576
H16   H     H_    0.765119 0.917837 0.721026 0.132469
H17   H     H_    0.234027 0.069248 0.255422 0.145272
H18   H     H_    0.767040 0.374332 0.354237 0.147235
H19   H     H_    0.215391 0.640998 0.621753 0.159489
H20   H     H_    0.265109 0.417803 0.720983 0.132469
H21   H     H_    0.734025 0.569229 0.255390 0.145261
H22   H     H_    0.302235 0.730208 0.734955 0.131271
H23   H     H_    0.565716 0.716854 0.963141 0.145644
H24   H     H_    0.652654 0.308982 0.201978 0.128067
H25   H     H_    0.618925 0.634058 0.103827 0.133310
H26   H     H_    0.382842 0.370001 0.901506 0.133038
H27   H     H_    0.803066 0.229611 0.736022 0.131269
H28   H     H_    0.153087 0.808506 0.202703 0.128090
H29   H     H_    0.118930 0.134084 0.103871 0.133303
H30   H     H_    0.882850 0.870030 0.901542 0.133082
H31   H     H_    0.349066 0.855377 0.029710 0.148610
H32   H     H_    0.576733 0.209923 0.865905 0.142687
H33   H     H_    0.582701 0.788314 0.859517 0.142109
H34   H     H_    0.439514 0.314118 0.079817 0.136617
H35   H     H_    0.422900 0.254970 0.198471 0.137948
H36   H     H_    0.849736 0.354954 0.030455 0.148650
H37   H     H_    0.076907 0.709604 0.866358 0.142728
H38   H     H_    0.082702 0.288329 0.859541 0.142093
H39   H     H_    0.922903 0.754960 0.198462 0.137944
H40   H     H_    0.253009 0.007072 0.613338 0.182454
H41   H     H_    0.720590 0.923688 0.371033 0.183043
H42   H     H_    0.753016 0.507173 0.613353 0.182449
H43   H     H_    0.220565 0.423662 0.371012 0.183030
H44   H     H_    0.239082 0.022744 0.833811 0.220554
H45   H     H_    0.849746 0.309007 0.883705 0.145837
H46   H     H_    0.220872 0.969787 0.736704 0.212253
H47   H     H_    0.727791 0.890683 0.174548 0.225379
H48   H     H_    0.668796 0.830828 0.155755 0.235004
H49   H     H_    0.739103 0.522886 0.833831 0.220556
H50   H     H_    0.720856 0.469930 0.736702 0.212272
H51   H     H_    0.227723 0.390615 0.174498 0.225404
H52   H     H_    0.168707 0.330780 0.155718 0.234997
H53   H     H_    0.550930 0.124954 0.355102 0.283966
H54   H     H_    0.595287 0.125020 0.283321 0.237536
H55   H     H_    0.509270 0.174875 0.232181 0.217925
H56   H     H_    0.082886 0.750082 0.021577 0.143202
H57   H     H_    0.460371 0.091038 0.100506 0.197259
H58   H     H_    0.418165 0.079064 0.170602 0.216132
H59   H     H_    0.567252 0.096647 0.881149 0.246885
H60   H     H_    0.615416 0.048149 0.007862 0.261315
H61   H     H_    0.672518 0.070176 0.960904 0.242382
H62   H     H_    0.616679 0.958624 0.903702 0.167585
H63   H     H_    0.599179 0.004394 0.799911 0.256174
H64   H     H_    0.050992 0.624942 0.355205 0.283980
H65   H     H_    0.095373 0.625024 0.283455 0.237514
H66   H     H_    0.009379 0.674898 0.232345 0.217907
H67   H     H_    0.065720 0.216877 0.963180 0.145580
H68   H     H_    0.960467 0.591091 0.100590 0.197241
H69   H     H_    0.918211 0.579119 0.170626 0.216126
H70   H     H_    0.067399 0.596483 0.881658 0.246902
H71   H     H_    0.115726 0.547831 0.008199 0.261463
H72   H     H_    0.172613 0.570024 0.960997 0.242346
H73   H     H_    0.116604 0.458458 0.903477 0.167648
H74   H     H_    0.099159 0.504394 0.799892 0.256240
H75   H     H_    0.742161 0.077361 0.497172 0.255358
H76   H     H_    0.826515 0.040337 0.631416 0.245902
H77   H     H_    0.802068 0.016681 0.495953 0.259600
H78   H     H_    0.939518 0.814124 0.079829 0.136656
H79   H     H_    0.698378 0.000356 0.573127 0.251936
H80   H     H_    0.749810 0.939403 0.559358 0.178623
H81   H     H_    0.287136 0.113470 0.457736 0.276537
H82   H     H_    0.185281 0.080190 0.352022 0.230984
H83   H     H_    0.226719 0.090381 0.498999 0.248369
H84   H     H_    0.300214 0.002536 0.417660 0.238289
H85   H     H_    0.232481 0.978236 0.439306 0.156536
H86   H     H_    0.242086 0.577392 0.497147 0.255313
H87   H     H_    0.326488 0.540373 0.631359 0.245923
H88   H     H_    0.302002 0.516750 0.495855 0.259553
H89   H     H_    0.365887 0.004598 0.006456 0.137746
H90   H     H_    0.198379 0.500344 0.573126 0.251969
H91   H     H_    0.249844 0.439420 0.559354 0.178561
H92   H     H_    0.787166 0.613495 0.457719 0.276568
H93   H     H_    0.685305 0.580229 0.352005 0.230978
H94   H     H_    0.726740 0.590434 0.498973 0.248354
H95   H     H_    0.800209 0.502539 0.417661 0.238250
H96   H     H_    0.732472 0.478282 0.439327 0.156518
N1    N     N_R   0.433280 0.000000 0.657760 -0.206126
N2    N     N_R   0.566720 0.000000 0.342240 -0.189072
N3    N     N_R   0.933280 0.500000 0.657760 -0.206157
N4    N     N_R   0.066720 0.500000 0.342240 -0.189069
N5    N     N_3   0.251065 0.011649 0.777029 -0.599337
N6    N     N_3   0.690456 0.874768 0.193502 -0.606592
N7    N     N_3   0.751078 0.511780 0.777044 -0.599347
N8    N     N_3   0.190388 0.374719 0.193463 -0.606584
O1    O     O_R   0.600040 0.935040 0.546740 -0.594246
O2    O     O_R   0.444990 0.064930 0.346780 -0.582109
O3    O     O_R   0.444990 0.935070 0.346780 -0.576684
O4    O     O_R   0.555010 0.064930 0.653220 -0.589200
O5    O     O_R   0.055010 0.435070 0.653220 -0.600108
O6    O     O_R   0.944990 0.564930 0.346780 -0.582103
O7    O     O_R   0.944990 0.435070 0.346780 -0.576685
O8    O     O_R   0.055010 0.564930 0.653220 -0.589244
O9    O     O_R   0.399960 0.064960 0.453260 -0.579250
O10   O     O_R   0.399960 0.935040 0.453260 -0.603811
O11   O     O_R   0.600040 0.064960 0.546740 -0.605243
O12   O     O_R   0.100040 0.435040 0.546740 -0.594267
O13   O     O_R   0.899960 0.564960 0.453260 -0.579227
O14   O     O_R   0.899960 0.435040 0.453260 -0.603774
O15   O     O_R   0.100040 0.564960 0.546740 -0.605252
O16   O     O_R   0.555010 0.935070 0.653220 -0.600098

loop_
_geom_bond_atom_site_label_1
_geom_bond_atom_site_label_2
_ccdc_geom_bond_type
Cu3   N4    S    
C28   H84   S    
C73   C100  A    
C85   O13   A    
C28   H85   S    
C55   C59   A    
Cu1   O2    S    
C2    H12   S    
C32   C45   S    
C11   C24   A    
C22   H65   S    
C35   C119  A    
C19   C20   S    
C36   H67   S    
C96   O14   A    
C39   H41   S    
C25   H72   S    
C74   C81   S    
C20   H59   S    
C91   H15   S    
Cu2   O10   S    
C1    O16   A    
Cu4   O14   S    
C30   H90   S    
C2    C123  A    
C19   H63   S    
C83   C92   A    
Cu2   O4    S    
C26   C27   S    
C106  H13   S    
C60   C61   A    
C88   H24   S    
C28   C29   S    
H47   N6    S    
C31   H88   S    
C33   H93   S    
C42   H43   S    
C88   C123  A    
C105  H9    S    
C30   C31   S    
C5    C114  A    
C19   C47   S    
C58   C71   A    
C29   H83   S    
C8    C118  A    
C49   C54   A    
C39   C57   A    
C80   C106  A    
C18   H55   S    
C27   H77   S    
C1    C77   S    
C79   C105  A    
C51   C56   A    
C70   N6    S    
C83   C119  A    
C44   N2    A    
H52   N8    S    
C62   C64   A    
C86   C94   A    
C52   O3    A    
C66   H2    S    
C74   O5    A    
C93   H17   S    
Cu4   O8    S    
C13   H23   S    
C113  C122  A    
C32   H96   S    
C35   H56   S    
C87   C95   A    
C5    C126  A    
C97   H18   S    
C17   C48   S    
C50   N4    A    
C26   H79   S    
C86   H30   S    
C71   N7    S    
C57   C70   A    
C6    C16   A    
C3    C112  A    
C67   C71   A    
C88   C97   A    
C68   C72   A    
C110  C127  A    
C31   H86   S    
Cu1   O1    S    
C3    C6    A    
C34   C117  A    
C7    C15   A    
C98   H21   S    
C60   C66   A    
C100  C109  A    
C21   C22   S    
C23   H73   S    
C11   H35   S    
C22   H64   S    
C102  C111  A    
C40   C45   A    
C53   C61   A    
C14   H37   S    
C59   C72   A    
C65   H89   S    
C21   C50   S    
Cu2   O9    S    
Cu3   O15   S    
Cu4   O13   S    
C31   H87   S    
C41   O2    A    
C94   H16   S    
C48   C53   A    
C6    C115  A    
C79   C96   S    
C40   C58   A    
C83   H28   S    
C26   C44   S    
C64   C67   A    
C21   H69   S    
C4    C113  A    
C68   H4    S    
C73   C91   A    
C5    C12   A    
C78   C104  A    
C33   H94   S    
C63   O4    A    
C13   C124  A    
C53   C57   A    
C47   C51   A    
C81   C99   A    
Cu2   N1    S    
C1    O1    A    
C101  C110  A    
C92   H14   S    
Cu1   N2    S    
C10   C13   A    
C82   C91   A    
C72   N8    S    
C15   H38   S    
C111  C120  A    
C103  C112  A    
C7    C116  A    
C49   N3    A    
C9    H32   S    
C67   H3    S    
C63   C73   S    
C96   O7    A    
C12   H36   S    
C80   C85   S    
C103  H7    S    
C76   C93   A    
H46   N5    S    
C74   O12   A    
C105  C114  A    
C8    C127  A    
C29   H81   S    
H44   N5    S    
C32   H95   S    
C78   C95   A    
C84   C120  A    
H51   N8    S    
C55   C64   A    
C86   C121  A    
C17   C18   S    
C87   H22   S    
C102  H8    S    
C89   H25   S    
C20   H61   S    
C39   C44   A    
C118  H1    S    
C100  H6    S    
C75   C92   A    
C37   C121  A    
C114  C123  A    
H50   N7    S    
C25   H70   S    
C116  C125  A    
C23   H74   S    
C42   C46   A    
C24   C125  A    
C7    C128  A    
C104  H10   S    
C107  O8    A    
C77   C103  A    
C95   H19   S    
C21   H68   S    
C12   C34   A    
Cu3   Cu4   S    
Cu4   N3    S    
C15   C36   A    
C14   C35   A    
C63   O11   A    
Cu1   Cu2   S    
C54   C58   A    
C109  C126  A    
C90   C99   A    
C69   N5    S    
C115  C124  A    
C18   H53   S    
C4    C127  A    
C41   O9    A    
C46   N4    A    
C107  O15   A    
C30   C46   S    
C27   H76   S    
C9    C126  A    
C118  C122  A    
C25   H71   S    
C8    H31   S    
C52   O10   A    
C110  C119  A    
C20   H60   S    
C87   C122  A    
C109  C117  A    
C43   N1    A    
C38   H40   S    
C30   H91   S    
C47   N1    A    
C89   C124  A    
Cu2   O16   S    
C17   H58   S    
C54   C62   A    
C99   H20   S    
C16   C37   A    
C28   C43   S    
C50   C55   A    
C82   C117  A    
C62   C68   A    
C89   C98   A    
C17   H57   S    
C32   C33   S    
C108  C116  A    
C101  H5    S    
C11   C128  A    
C48   N2    A    
C38   C43   A    
C3    C10   A    
Cu3   O7    S    
C41   C76   S    
C40   H42   S    
C82   H27   S    
C16   H39   S    
C29   H82   S    
C66   C70   A    
C80   C98   A    
C10   H33   S    
C65   C69   A    
Cu1   O11   S    
C85   O6    A    
C90   C125  A    
C18   H54   S    
C27   H75   S    
C84   C93   A    
C23   C25   S    
C4    C14   A    
C24   H34   S    
C36   C120  A    
C37   H78   S    
C81   C108  A    
C23   C49   S    
Cu3   O12   S    
C52   C75   S    
H48   N6    S    
C104  C113  A    
C33   H92   S    
C61   C65   A    
Cu4   O5    S    
C112  C121  A    
C38   C56   A    
C90   H26   S    
C19   H62   S    
C56   C69   A    
C42   C59   A    
C111  C128  A    
C75   C101  A    
C22   H66   S    
C77   C94   A    
C78   C107  S    
C34   H45   S    
C26   H80   S    
C51   C60   A    
C45   N3    A    
C76   C102  A    
Cu3   O6    S    
C2    C9    A    
C108  H11   S    
Cu1   O3    S    
C84   H29   S    
C79   C97   A    
H49   N7    S    
C106  C115  A    
