data_mof_unit_11434.cif
_audit_creation_date              2012-10-26T20:31:24-0400
_audit_creation_method            fapswitch 2.2
_symmetry_space_group_name_H-M    P1
_symmetry_Int_Tables_number       1
_space_group_crystal_system       triclinic
_cell_length_a                    11.691374
_cell_length_b                    10.866836
_cell_length_c                    9.603262
_cell_angle_alpha                 90.129327
_cell_angle_beta                  90.429538
_cell_angle_gamma                 89.596527
_cell_volume                      1220.01007216

loop_
_atom_site_label
_atom_site_type_symbol
_atom_type_description
_atom_site_fract_x
_atom_site_fract_y
_atom_site_fract_z
_atom_type_partial_charge
C1    C     C_R   0.495970 0.262730 0.499220 0.560967
C2    C     C_R   0.412975 0.555923 0.073321 0.351062
C3    C     C_R   0.415537 0.558522 0.924201 -0.007104
C4    C     C_R   0.284164 0.499964 0.499588 0.531528
C5    C     C_R   0.576566 0.431321 0.927194 0.173241
C6    C     C_3   0.703777 0.438132 0.922862 -0.265174
C7    C     C_3   0.703916 0.435291 0.080903 -0.278193
C8    C     C_R   0.501431 0.737701 0.499721 0.567504
C9    C     C_R   0.715835 0.499674 0.500403 0.539118
C10   C     C_1   0.162439 0.499646 0.498955 -0.043450
C11   C     C_1   0.059912 0.499403 0.499401 -0.063715
C12   C     C_R   0.483423 0.129910 0.494559 -0.037172
C13   C     C_1   0.940089 0.499275 0.500443 -0.059152
C14   C     C_1   0.837561 0.499379 0.500984 -0.039844
C15   C     C_R   0.463069 0.063030 0.614168 -0.101193
C16   C     C_3   0.348282 0.139759 0.227825 -0.003643
C17   C     C_3   0.319719 0.197697 0.088182 -0.363239
C18   C     C_3   0.532100 0.866846 0.145139 0.061234
C19   C     C_3   0.610764 0.784133 0.060355 -0.348929
C20   C     C_3   0.292453 0.906037 0.814214 -0.013587
C21   C     C_3   0.211785 0.877408 0.932928 -0.385686
C22   C     C_3   0.705875 0.055910 0.710536 -0.007767
C23   C     C_R   0.487446 0.063977 0.367405 0.249474
C24   C     C_3   0.803955 0.143754 0.683925 -0.362424
C25   C     C_3   0.221731 0.558365 0.116914 -0.128721
C26   C     C_R   0.510627 0.936486 0.370611 0.238456
C27   C     C_R   0.492653 0.871359 0.496184 -0.052752
C28   C     C_R   0.455967 0.936706 0.612773 -0.103251
C29   C     C_3   0.491763 0.929435 0.763920 0.161558
C30   C     C_3   0.504626 0.070330 0.761165 0.195238
C31   C     C_R   0.576520 0.431049 0.073733 0.136427
Cu1   Cu    Cu3+1 0.499990 0.499980 0.640670 0.942024
Cu2   Cu    Cu3+1 0.500010 0.500020 0.359330 1.005681
H1    H     H_    0.734627 0.526889 0.880258 0.137513
H2    H     H_    0.331734 0.128583 0.005259 0.140507
H3    H     H_    0.228764 0.227779 0.086266 0.076227
H4    H     H_    0.374968 0.278309 0.068955 0.170765
H5    H     H_    0.520784 0.954535 0.087636 0.214948
H6    H     H_    0.447811 0.821177 0.156829 0.189286
H7    H     H_    0.639135 0.705096 0.124704 0.173043
H8    H     H_    0.565951 0.748160 0.967277 0.139171
H9    H     H_    0.687264 0.836156 0.027132 0.127974
H10   H     H_    0.272770 0.842039 0.726790 0.152181
H11   H     H_    0.275753 0.002540 0.781183 0.114503
H12   H     H_    0.741016 0.348923 0.124268 0.149584
H13   H     H_    0.230476 0.936906 0.024092 0.149692
H14   H     H_    0.121895 0.893195 0.898934 0.091596
H15   H     H_    0.222156 0.780124 0.964131 0.174971
H16   H     H_    0.679861 0.016786 0.608384 0.132165
H17   H     H_    0.738475 0.980789 0.778690 0.119357
H18   H     H_    0.840186 0.176810 0.784298 0.140385
H19   H     H_    0.872503 0.095586 0.625260 0.094808
H20   H     H_    0.773070 0.223702 0.621929 0.167566
H21   H     H_    0.225795 0.459135 0.145118 0.126069
H22   H     H_    0.193668 0.568344 0.006749 0.073095
H23   H     H_    0.737777 0.520891 0.128435 0.136722
H24   H     H_    0.155225 0.602139 0.182687 0.143427
H25   H     H_    0.572266 0.876488 0.777325 0.123569
H26   H     H_    0.442349 0.120843 0.825725 0.141579
H27   H     H_    0.350941 0.609582 0.867095 0.145675
H28   H     H_    0.742516 0.354608 0.875638 0.158078
H29   H     H_    0.315172 0.202548 0.310271 0.133679
H30   H     H_    0.302047 0.050545 0.234489 0.100291
N1    N     N_R   0.500710 0.500930 0.147930 -0.235401
N2    N     N_R   0.500710 0.500890 0.852020 -0.272434
O1    O     O_R   0.500000 0.319640 0.618810 -0.474197
O2    O     O_3   0.585683 0.886892 0.274614 -0.556677
O3    O     O_3   0.407043 0.888941 0.859919 -0.598257
O4    O     O_3   0.616574 0.120457 0.778967 -0.552148
O5    O     O_3   0.327019 0.617610 0.143147 -0.554878
O6    O     O_R   0.500010 0.319680 0.381230 -0.462948
O7    O     O_R   0.337190 0.499990 0.618790 -0.517278
O8    O     O_R   0.337200 0.500030 0.381210 -0.463887
O9    O     O_R   0.499990 0.680320 0.618770 -0.505790
O10   O     O_R   0.500000 0.680360 0.381190 -0.446215
O11   O     O_R   0.662800 0.499970 0.618790 -0.503242
O12   O     O_R   0.662810 0.500010 0.381210 -0.505122
O13   O     O_3   0.468161 0.121789 0.241265 -0.538466

loop_
_geom_bond_atom_site_label_1
_geom_bond_atom_site_label_2
_ccdc_geom_bond_type
C24   H19   S    
C18   H6    S    
C30   O4    S    
Cu1   O7    S    
C12   C23   A    
C26   C27   A    
C1    O6    A    
C16   H29   S    
C26   O2    S    
C7    H12   S    
C6    H28   S    
C28   C29   S    
Cu1   O9    S    
C5    C6    S    
C18   C19   S    
C23   C26   A    
Cu2   O10   S    
C16   C17   S    
C9    O11   A    
C22   O4    S    
C19   H9    S    
C22   H17   S    
C21   H15   S    
C3    H27   S    
C24   H18   S    
C13   C14   T    
C3    N2    A    
C1    C12   S    
C25   H24   S    
C7    H23   S    
C20   H11   S    
C2    N1    A    
C7    C31   S    
C25   H21   S    
C5    N2    A    
C10   C11   T    
C9    O12   A    
C24   H20   S    
C8    O10   A    
C6    H1    S    
C9    C14   S    
C29   C30   S    
C29   O3    S    
C12   C15   A    
C30   H26   S    
C8    O9    A    
C1    O1    A    
C17   H4    S    
C29   H25   S    
C4    O8    A    
C22   H16   S    
Cu2   O8    S    
C17   H3    S    
C22   C24   S    
C4    C10   S    
C4    O7    A    
C20   H10   S    
C15   C30   S    
Cu1   O1    S    
C21   H13   S    
C31   N1    A    
C20   O3    S    
C25   H22   S    
Cu1   O11   S    
C6    C7    S    
C16   H30   S    
Cu1   Cu2   S    
C2    C3    A    
C18   O2    S    
C11   C13   S    
Cu2   O12   S    
C15   C28   A    
Cu2   N1    S    
C16   O13   S    
C23   O13   S    
C18   H5    S    
C19   H7    S    
Cu2   O6    S    
C20   C21   S    
C27   C28   A    
C8    C27   S    
C25   O5    S    
C17   H2    S    
C21   H14   S    
C2    O5    S    
C19   H8    S    
Cu1   N2    S    
C5    C31   A    
