data_mof_unit_44496.cif
_audit_creation_date              2012-12-11T15:48:07-0500
_audit_creation_method            fapswitch 2.2
_symmetry_space_group_name_H-M    P1
_symmetry_Int_Tables_number       1
_space_group_crystal_system       triclinic
_cell_length_a                    6.928967
_cell_length_b                    17.592889
_cell_length_c                    19.45068
_cell_angle_alpha                 108.572114
_cell_angle_beta                  89.76788
_cell_angle_gamma                 90.388018
_cell_volume                      2247.51668634

loop_
_atom_site_label
_atom_site_type_symbol
_atom_type_description
_atom_site_fract_x
_atom_site_fract_y
_atom_site_fract_z
_atom_type_partial_charge
O1    O     O_R   0.494330 0.415710 0.413720 -0.540767
O2    O     O_R   0.819360 0.430070 0.560210 -0.541844
O3    O     O_R   0.994320 0.584290 0.586280 -0.540084
C1    C     C_R   0.650486 0.414710 0.581471 0.711236
O4    O     O_R   0.823740 0.406290 0.412670 -0.545032
O5    O     O_R   0.998730 0.560340 0.437690 -0.539806
C2    C     C_R   0.654713 0.383013 0.384728 0.681551
O6    O     O_R   0.489920 0.439660 0.562310 -0.536803
O7    O     O_3   0.662330 0.550570 0.508380 -0.369953
V1    V     V_3+5 0.935370 0.490620 0.498440 1.403037
O8    O     O_R   0.328720 0.569930 0.439790 -0.543030
C3    C     C_R   0.160400 0.584917 0.417988 0.709728
O9    O     O_R   0.324340 0.593710 0.587330 -0.544904
C4    C     C_R   0.155237 0.616870 0.615325 0.686096
V2    V     V_3+5 0.435940 0.509380 0.501560 1.400483
O10   O     O_3   0.159110 0.449430 0.491620 -0.367294
C5    C     C_R   0.312369 0.723745 0.718703 -0.158804
C6    C     C_R   0.301075 0.787569 0.783675 -0.150674
C7    C     C_R   0.121182 0.814659 0.815870 -0.046588
C8    C     C_R   0.952909 0.776170 0.781245 -0.158267
H1    H     H_    0.811973 0.795322 0.804255 0.116693
C9    C     C_R   0.964201 0.712353 0.716278 -0.150333
H2    H     H_    0.831346 0.684186 0.691358 0.118556
C10   C     C_R   0.144084 0.685267 0.684074 -0.046875
C11   C     C_R   0.989996 0.629302 0.323599 -0.221292
C12   C     C_R   0.152179 0.633867 0.368259 -0.085371
C13   C     C_R   0.307040 0.684710 0.364509 -0.222724
C14   C     C_R   0.299730 0.731209 0.317709 0.089111
C15   C     C_R   0.137277 0.725713 0.272781 0.051767
C16   C     C_R   0.982427 0.674197 0.275458 0.089527
C17   C     C_R   0.451915 0.783316 0.315126 -0.180204
C18   C     C_R   0.444331 0.829001 0.267986 -0.191040
C19   C     C_R   0.284288 0.823519 0.222595 0.088340
C20   C     C_R   0.129547 0.771915 0.225174 0.052078
C21   C     C_R   0.966948 0.766555 0.180342 0.091163
C22   C     C_R   0.815177 0.714148 0.182676 -0.184680
C23   C     C_R   0.822794 0.668429 0.229807 -0.197733
C24   C     C_R   0.276035 0.868976 0.174963 -0.219757
C25   C     C_R   0.113275 0.864937 0.130714 -0.085478
C26   C     C_R   0.958929 0.813654 0.134040 -0.222755
H3    H     H_    0.870588 0.589868 0.325512 0.124001
H4    H     H_    0.432451 0.688898 0.398702 0.129518
H5    H     H_    0.689611 0.708948 0.148413 0.133909
C27   C     C_R   0.495177 0.209639 0.888744 -0.056774
C28   C     C_R   0.621859 0.143073 0.876330 -0.121854
C29   C     C_R   0.753456 0.126083 0.819089 -0.235323
C30   C     C_R   0.758098 0.171066 0.771604 0.084668
C31   C     C_R   0.627966 0.234866 0.780407 0.008078
C32   C     C_R   0.494987 0.256239 0.839856 0.009189
C33   C     C_R   0.892837 0.152101 0.714954 -0.236787
C34   C     C_R   0.902417 0.195109 0.665546 -0.013162
C35   C     C_R   0.772830 0.259272 0.672963 0.049912
C36   C     C_R   0.634326 0.278060 0.729909 0.033816
C37   C     C_R   0.501954 0.340270 0.736220 0.091121
C38   C     C_R   0.372338 0.361702 0.793786 -0.225532
C39   C     C_R   0.370070 0.323190 0.846613 -0.022847
C40   C     C_R   0.779192 0.306086 0.625885 -0.219705
C41   C     C_R   0.642163 0.366062 0.631012 -0.081959
C42   C     C_R   0.502536 0.382013 0.685714 -0.192561
H6    H     H_    0.851132 0.075950 0.810550 0.122788
H7    H     H_    0.889474 0.296209 0.584542 0.139459
H8    H     H_    0.273763 0.410941 0.798834 0.133619
C43   C     C_R   0.812024 0.278943 0.279654 -0.164597
H9    H     H_    0.953104 0.300695 0.301064 0.115668
C44   C     C_R   0.800859 0.215023 0.214750 -0.170387
H10   H     H_    0.933816 0.189225 0.188336 0.118573
C45   C     C_R   0.620903 0.184908 0.184408 -0.039707
C46   C     C_R   0.452345 0.219882 0.221197 -0.164148
H11   H     H_    0.311317 0.198005 0.199818 0.120280
C47   C     C_R   0.463429 0.283936 0.286009 -0.165654
C48   C     C_R   0.643447 0.314389 0.316134 -0.042306
O11   O     O_R   0.774940 0.060470 0.937800 -0.544894
O12   O     O_R   0.440880 0.093730 0.087350 -0.538400
O13   O     O_R   0.266130 0.939630 0.062280 -0.540199
C49   C     C_R   0.609804 0.116858 0.115448 0.685716
O14   O     O_R   0.445480 0.069960 0.939820 -0.535037
O15   O     O_R   0.270770 0.915690 0.913690 -0.540289
C50   C     C_R   0.614545 0.088461 0.921245 0.711481
O16   O     O_R   0.770300 0.084410 0.086380 -0.545035
O17   O     O_3   0.602600 0.949510 0.991670 -0.369297
V3    V     V_3+5 0.329470 0.009370 0.001550 1.413546
O18   O     O_R   0.940760 0.906160 0.912560 -0.544301
C51   C     C_R   0.109928 0.883063 0.884607 0.684358
O19   O     O_R   0.936150 0.929930 0.060100 -0.542450
C52   C     C_R   0.104555 0.914657 0.081651 0.710957
V4    V     V_3+5 0.828930 0.990450 0.998310 1.389984
O20   O     O_3   0.105670 0.050490 0.008320 -0.367452
H12   H     H_    0.453296 0.704584 0.695689 0.116348
H13   H     H_    0.833299 0.809701 0.100003 0.129050
H14   H     H_    0.702909 0.628955 0.230918 0.129472
C53   C     C_R   0.375635 0.231338 0.955479 0.093678
C54   C     C_R   0.181727 0.206772 0.953034 -0.047298
C55   C     C_R   0.070253 0.228451 0.016388 -0.050847
C56   C     C_R   0.152622 0.273150 0.082493 -0.115458
C57   C     C_R   0.347039 0.295608 0.085557 -0.117042
C58   C     C_R   0.459038 0.274066 0.022453 -0.162834
H15   H     H_    0.116870 0.172231 0.902017 0.092535
H16   H     H_    0.919935 0.210912 0.014245 0.094840
H17   H     H_    0.065888 0.290535 0.131330 0.098220
H18   H     H_    0.410743 0.330199 0.136757 0.118713
H19   H     H_    0.609325 0.292025 0.025477 0.094701
H20   H     H_    0.991232 0.102609 0.708696 0.130769
C59   C     C_R   0.047535 0.169599 0.606352 0.101276
C60   C     C_R   0.990672 0.145191 0.533172 -0.148504
C61   C     C_R   0.128405 0.119500 0.477979 -0.110415
C62   C     C_R   0.323131 0.116526 0.495316 -0.098828
C63   C     C_R   0.380241 0.138890 0.567860 -0.111440
C64   C     C_R   0.243303 0.165258 0.623181 -0.116538
H21   H     H_    0.840059 0.146046 0.518861 0.101458
H22   H     H_    0.083981 0.101400 0.421758 0.110099
H23   H     H_    0.429509 0.096239 0.452566 0.103719
H24   H     H_    0.530368 0.135200 0.581241 0.117941
H25   H     H_    0.289305 0.181927 0.679159 0.119392
H26   H     H_    0.398984 0.429476 0.690793 0.116981
H27   H     H_    0.433918 0.815740 0.808603 0.118913
C65   C     C_R   0.232966 0.357907 0.906642 0.108272
C66   C     C_R   0.034738 0.342513 0.895362 -0.131842
C67   C     C_R   0.902302 0.379112 0.950028 -0.126785
C68   C     C_R   0.966355 0.432941 0.015669 -0.099538
C69   C     C_R   0.162991 0.451009 0.026267 -0.097568
C70   C     C_R   0.295931 0.414399 0.971604 -0.108295
H28   H     H_    0.983989 0.302067 0.844297 0.127466
H29   H     H_    0.750253 0.365953 0.941318 0.114634
H30   H     H_    0.863546 0.461201 0.057991 0.102704
H31   H     H_    0.212332 0.493561 0.076718 0.107691
H32   H     H_    0.447321 0.429842 0.980001 0.094956
H33   H     H_    0.330394 0.309537 0.312511 0.119878
H34   H     H_    0.577552 0.788465 0.349346 0.135715
H35   H     H_    0.564318 0.868403 0.266812 0.131716
H36   H     H_    0.395284 0.908558 0.173232 0.124833

loop_
_geom_bond_atom_site_label_1
_geom_bond_atom_site_label_2
_ccdc_geom_bond_type
C27   C32   A    
C47   H33   S    
C38   C39   A    
C43   C44   A    
C55   C56   A    
C5    H12   S    
C63   H24   S    
C57   C58   A    
C1    O6    A    
O18   V4    S    
C36   C37   A    
C69   C70   A    
C12   C13   A    
C23   H14   S    
C24   H36   S    
C14   C15   A    
C61   H22   S    
O14   C50   A    
C6    C7    A    
O5    C3    A    
C60   H21   S    
C62   C63   A    
O15   C51   A    
C34   C59   S    
V2    O10   S    
C38   H8    S    
C65   C66   A    
C20   C21   A    
C4    C10   S    
C67   C68   A    
C60   C61   A    
O17   V4    S    
C59   C60   A    
C53   C58   A    
C29   C30   A    
O8    V2    S    
C17   C18   A    
C28   C50   S    
C46   H11   S    
C44   C45   A    
O11   C50   A    
C63   C64   A    
C59   C64   A    
O1    V2    S    
C26   H13   S    
O7    V1    S    
C62   H23   S    
O1    C2    A    
O9    C4    A    
O12   C49   A    
C17   H34   S    
C7    C51   S    
O12   V3    S    
C18   H35   S    
C54   H15   S    
C19   C20   A    
C30   C33   A    
C37   C42   A    
C31   C36   A    
C5    C10   A    
C65   C70   A    
C34   C35   A    
O19   C52   A    
C11   H3    S    
C53   C54   A    
O4    C2    A    
V4    O20   S    
C33   C34   A    
C11   C12   A    
C68   H30   S    
C15   C20   A    
C45   C46   A    
C16   C23   A    
C3    C12   S    
C21   C22   A    
C64   H25   S    
C6    H27   S    
O2    C1    A    
C66   H28   S    
C15   C16   A    
C30   C31   A    
O15   V3    S    
O8    C3    A    
C5    C6    A    
C39   C65   S    
V3    O20   S    
C27   C53   S    
C47   C48   A    
O3    C4    A    
C31   C32   A    
C43   C48   A    
C33   H20   S    
O6    V2    S    
O9    V2    S    
C9    C10   A    
C45   C49   S    
C25   C52   S    
O13   V3    S    
O2    V1    S    
C25   C26   A    
C35   C36   A    
C11   C16   A    
C37   C38   A    
C22   C23   A    
C29   H6    S    
C57   H18   S    
C14   C17   A    
C27   C28   A    
C8    C9    A    
O17   V3    S    
O14   V3    S    
O5    V1    S    
O11   V4    S    
C68   C69   A    
C40   H7    S    
C32   C39   A    
C61   C62   A    
C19   C24   A    
C18   C19   A    
C7    C8    A    
C21   C26   A    
C41   C42   A    
O4    V1    S    
O3    V1    S    
V1    O10   S    
C66   C67   A    
C2    C48   S    
C13   H4    S    
C40   C41   A    
C24   C25   A    
C56   H17   S    
C42   H26   S    
C54   C55   A    
C69   H31   S    
C67   H29   S    
C44   H10   S    
O13   C52   A    
O7    V2    S    
C56   C57   A    
C35   C40   A    
C43   H9    S    
C28   C29   A    
C70   H32   S    
C8    H1    S    
C46   C47   A    
O18   C51   A    
C1    C41   S    
C13   C14   A    
C9    H2    S    
O19   V4    S    
C22   H5    S    
C58   H19   S    
C49   O16   A    
C55   H16   S    
O16   V4    S    
