data_mof_unit_13728.cif
_audit_creation_date              2012-12-11T14:21:16-0500
_audit_creation_method            fapswitch 2.2
_symmetry_space_group_name_H-M    P1
_symmetry_Int_Tables_number       1
_space_group_crystal_system       triclinic
_cell_length_a                    11.638908
_cell_length_b                    11.69963
_cell_length_c                    19.540605
_cell_angle_alpha                 91.163731
_cell_angle_beta                  89.146439
_cell_angle_gamma                 59.848684
_cell_volume                      2299.40836485

loop_
_atom_site_label
_atom_site_type_symbol
_atom_type_description
_atom_site_fract_x
_atom_site_fract_y
_atom_site_fract_z
_atom_type_partial_charge
C1    C     C_R   0.639350 0.117672 0.599207 0.549010
C2    C     C_1   0.650367 0.151377 0.668690 0.003376
C3    C     C_R   0.686812 0.592003 0.206833 -0.033267
C4    C     C_R   0.610833 0.748203 0.598831 0.543349
C5    C     C_R   0.559937 0.642118 0.240776 -0.009907
C6    C     C_R   0.559794 0.629629 0.311239 -0.066228
C7    C     C_R   0.790083 0.565495 0.318387 0.233260
C8    C     C_R   0.801807 0.539548 0.246997 -0.153300
C9    C     C_R   0.434282 0.695963 0.209076 -0.134300
C10   C     C_R   0.321112 0.718198 0.245747 -0.088251
C11   C     C_R   0.323695 0.706023 0.316182 0.388720
C12   C     C_1   0.638850 0.705961 0.668033 0.005338
C13   C     C_R   0.447278 0.639226 0.344821 0.009443
C14   C     C_R   0.663102 0.630730 0.347937 0.028397
C15   C     C_R   0.155852 0.185200 0.186075 -0.042693
C16   C     C_R   0.240877 0.145917 0.597922 0.551846
C17   C     C_R   0.244757 0.225735 0.207418 -0.057246
C18   C     C_R   0.288227 0.199705 0.274767 -0.132190
C19   C     C_R   0.159008 0.093860 0.298296 0.283516
C20   C     C_R   0.116745 0.114802 0.230652 0.239359
C21   C     C_R   0.284438 0.302967 0.167252 0.266794
C22   C     C_R   0.315735 0.389273 0.202112 -0.058031
C23   C     C_1   0.127721 0.197599 0.859456 0.001785
C24   C     C_R   0.342158 0.371605 0.271421 0.232585
C25   C     C_R   0.361067 0.254762 0.297571 -0.117780
C26   C     C_R   0.248173 0.133085 0.320715 -0.023725
C27   C     C_R   0.665659 0.191961 0.192658 0.010784
C28   C     C_R   0.645999 0.106181 0.400764 0.514111
C29   C     C_R   0.696804 0.063423 0.208461 0.033472
C30   C     C_R   0.713208 0.026786 0.277514 0.031596
C31   C     C_R   0.643851 0.254376 0.312822 -0.135791
C32   C     C_R   0.641846 0.285630 0.244697 -0.095949
C33   C     C_R   0.725926 0.967156 0.155711 -0.105291
C34   C     C_1   0.170964 0.171503 0.727634 -0.031066
C35   C     C_R   0.795823 0.834142 0.169443 -0.116307
C36   C     C_R   0.827838 0.796223 0.236117 -0.150723
C37   C     C_R   0.778087 0.889745 0.290000 -0.123245
C38   C     C_R   0.673117 0.127767 0.330118 -0.018107
C39   C     C_R   0.082130 0.230744 0.928888 0.542410
C40   C     C_R   0.622590 0.724870 0.407791 0.544003
C41   C     C_R   0.685131 0.602526 0.929327 0.547489
C42   C     C_R   0.709835 0.206301 0.930140 0.539280
C43   C     C_R   0.082864 0.235527 0.123968 0.584431
C44   C     C_R   0.704508 0.557454 0.133417 0.555300
C45   C     C_1   0.150738 0.181834 0.798910 -0.031406
C46   C     C_R   0.706590 0.213360 0.126349 0.535100
C47   C     C_R   0.289637 0.119006 0.393363 0.553701
C48   C     C_1   0.672551 0.644387 0.859999 -0.000207
C49   C     C_1   0.653464 0.684582 0.728319 -0.029999
C50   C     C_1   0.664381 0.665625 0.799620 -0.031181
C51   C     C_3   0.991072 0.527892 0.354878 -0.119282
C52   C     C_3   0.332411 0.460274 0.381818 -0.127150
C53   C     C_3   0.097712 0.772945 0.332104 -0.111859
C54   C     C_3   0.987522 0.143395 0.372712 -0.063044
C55   C     C_3   0.389239 0.178990 0.071139 -0.097817
C56   C     C_1   0.194362 0.162859 0.667182 0.004894
C57   C     C_3   0.078163 0.962749 0.174827 -0.036564
C58   C     C_1   0.681348 0.188993 0.860931 0.002993
C59   C     C_1   0.657263 0.167858 0.729196 -0.030278
C60   C     C_1   0.667064 0.179448 0.800567 -0.030643
Cr1   Cr    Cr6+3 0.404720 0.198220 0.499960 0.984989
Cr2   Cr    Cr6+3 0.698290 0.897110 0.500380 1.019214
Cr3   Cr    Cr6+3 0.396970 0.904720 0.499610 1.067520
Cr4   Cr    Cr6+3 0.926180 0.151990 0.028120 1.001524
Cr5   Cr    Cr6+3 0.921330 0.451820 0.027470 1.040981
Cr6   Cr    Cr6+3 0.626260 0.446870 0.028710 1.021843
H1    H     H_    0.323483 0.465368 0.175346 0.133777
H2    H     H_    0.267518 0.420702 0.394363 0.137097
H3    H     H_    0.277766 0.559949 0.405230 0.152208
H4    H     H_    0.426250 0.409982 0.409278 0.140053
H5    H     H_    0.623995 0.328895 0.352163 0.122299
H6    H     H_    0.830896 0.760947 0.127969 0.147844
H7    H     H_    0.803952 0.850047 0.339708 0.159342
H8    H     H_    0.415528 0.729846 0.157518 0.153191
H9    H     H_    0.899447 0.478971 0.223125 0.130741
H10   H     H_    0.234580 0.738065 0.218738 0.066852
H11   H     H_    0.118399 0.686722 0.298221 0.106775
H12   H     H_    0.413675 0.221189 0.341435 0.182437
H13   H     H_    0.041777 0.867457 0.306040 0.185822
H14   H     H_    0.032497 0.777014 0.375051 0.124436
H15   H     H_    0.005708 0.211969 0.404883 0.152131
H16   H     H_    0.943314 0.099523 0.406403 0.142819
H17   H     H_    0.913663 0.199555 0.333263 0.152000
H18   H     H_    0.375496 0.096147 0.087802 0.103412
H19   H     H_    0.487329 0.163276 0.086635 0.106289
H20   H     H_    0.388465 0.178589 0.014378 0.143483
H21   H     H_    0.187501 0.915296 0.166527 0.060064
H22   H     H_    0.040981 0.973305 0.122624 0.177789
H23   H     H_    0.705778 0.993340 0.102679 0.107689
H24   H     H_    0.044656 0.898982 0.197953 0.104256
H25   H     H_    0.626046 0.381994 0.232492 0.142864
H26   H     H_    0.894492 0.693953 0.245771 0.106409
H27   H     H_    0.452177 0.610639 0.397585 0.128321
H28   H     H_    0.059932 0.481239 0.396971 0.164076
H29   H     H_    0.947896 0.635780 0.362937 0.097051
H30   H     H_    0.047713 0.491620 0.305350 0.119719
O1    O     O_R   0.267740 0.231960 0.575440 -0.502860
O2    O     O_R   0.596130 0.579390 0.952730 -0.503589
O3    O     O_R   0.639060 0.321160 0.958670 -0.490857
O4    O     O_R   0.527280 0.186640 0.570530 -0.494397
O5    O     O_R   0.821240 0.124200 0.104370 -0.516693
O6    O     O_R   0.036890 0.167040 0.097840 -0.498872
O7    O     O_R   0.056180 0.349610 0.102880 -0.472344
O8    O     O_R   0.797660 0.564870 0.097950 -0.515726
O9    O     O_R   0.595880 0.584250 0.104270 -0.532720
O10   O     O_R   0.638830 0.325670 0.099150 -0.516936
O11   O     O_3   0.824590 0.350230 0.028100 -0.278286
O12   O     O_R   0.685970 0.784660 0.430010 -0.502471
O13   O     O_R   0.728090 0.003450 0.576380 -0.500717
O14   O     O_R   0.682970 0.789190 0.570490 -0.493213
O15   O     O_R   0.499290 0.771880 0.575530 -0.511007
O16   O     O_R   0.285330 0.030870 0.569730 -0.489455
O17   O     O_R   0.270980 0.227080 0.423890 -0.560839
O18   O     O_R   0.530280 0.182120 0.430050 -0.546666
O19   O     O_R   0.731330 0.998570 0.424830 -0.534532
O20   O     O_3   0.893887 0.491524 0.360808 -0.583556
O21   O     O_3   0.358088 0.462736 0.310319 -0.602113
O22   O     O_3   0.212767 0.762673 0.360512 -0.544395
O23   O     O_R   0.502530 0.767000 0.423990 -0.532293
O24   O     O_3   0.107305 0.040218 0.343109 -0.513580
O25   O     O_3   0.286481 0.302627 0.096449 -0.540526
O26   O     O_3   0.019621 0.084870 0.212337 -0.537355
O27   O     O_R   0.288330 0.026350 0.429250 -0.430851
O28   O     O_3   0.499990 0.000020 0.499980 -0.274769
O29   O     O_R   0.821500 0.119340 0.952830 -0.513926
O30   O     O_R   0.037130 0.162530 0.957360 -0.502574
O31   O     O_R   0.056440 0.344740 0.951340 -0.490031
O32   O     O_R   0.797900 0.560360 0.957470 -0.492682

loop_
_geom_bond_atom_site_label_1
_geom_bond_atom_site_label_2
_ccdc_geom_bond_type
Cr6   O3    S    
C55   O25   S    
C34   C56   T    
C23   C45   T    
C54   O24   S    
C27   C29   A    
C19   C20   A    
C18   C26   A    
Cr6   O11   S    
C42   C58   S    
Cr2   O28   S    
Cr3   O28   S    
C44   O8    A    
C7    C8    A    
C44   O9    A    
Cr4   O6    S    
C24   O21   S    
Cr1   O28   S    
Cr5   O31   S    
C36   C37   A    
C53   H13   S    
C5    C6    A    
C16   O1    A    
C32   H25   S    
Cr2   O12   S    
C58   C60   T    
C29   C33   A    
C30   C38   A    
C15   C17   A    
C1    C2    S    
Cr3   O16   S    
C19   C26   A    
C37   H7    S    
C52   H3    S    
C42   O29   A    
C1    O13   A    
C57   O26   S    
C10   H10   S    
C7    C14   A    
C35   C36   A    
C4    C12   S    
C9    C10   A    
C20   O26   S    
C52   H2    S    
C51   H30   S    
C40   O12   A    
C52   O21   S    
C36   H26   S    
C31   H5    S    
C59   C60   S    
C39   O30   A    
C21   C22   A    
C21   O25   S    
C41   O32   A    
C15   C20   A    
C18   C25   A    
Cr6   O10   S    
C1    O4    A    
C54   H17   S    
C12   C49   T    
Cr4   O5    S    
C46   O5    A    
C3    C44   S    
C39   O31   A    
C57   H24   S    
C25   H12   S    
Cr5   O32   S    
C53   H14   S    
C24   C25   A    
C3    C8    A    
C2    C59   T    
C8    H9    S    
C17   C21   A    
C57   H21   S    
C30   C37   A    
C13   H27   S    
C7    O20   S    
C55   H19   S    
C53   H11   S    
C16   C56   S    
C5    C9    A    
C29   C30   A    
C28   O19   A    
C33   H23   S    
C6    C14   A    
Cr3   O23   S    
C47   O27   A    
C31   C32   A    
Cr2   O14   S    
C28   C38   S    
C17   C18   A    
C34   C45   S    
C28   O18   A    
C26   C47   S    
C27   C46   S    
C4    O15   A    
C35   H6    S    
Cr4   O29   S    
Cr4   O30   S    
Cr1   O17   S    
C22   C24   A    
Cr1   O4    S    
C9    H8    S    
Cr5   O7    S    
Cr6   O9    S    
C54   H16   S    
C16   O16   A    
Cr4   O11   S    
C47   O17   A    
C4    O14   A    
C27   C32   A    
C53   O22   S    
Cr1   O1    S    
C3    C5    A    
C19   O24   S    
Cr3   O27   S    
C57   H22   S    
C51   O20   S    
C31   C38   A    
Cr6   O2    S    
C55   H20   S    
C43   O6    A    
C15   C43   S    
Cr2   O19   S    
C42   O3    A    
C6    C13   A    
C11   C13   A    
Cr2   O13   S    
C23   C39   S    
C46   O10   A    
C48   C50   T    
C33   C35   A    
C41   C48   S    
Cr3   O15   S    
C43   O7    A    
C22   H1    S    
C52   H4    S    
C10   C11   A    
C51   H28   S    
C14   C40   S    
C40   O23   A    
C49   C50   S    
Cr1   O18   S    
C41   O2    A    
Cr5   O8    S    
C55   H18   S    
C11   O22   S    
Cr5   O11   S    
C54   H15   S    
C51   H29   S    
