data_mof_unit_44904.cif
_audit_creation_date              2012-10-26T19:02:57-0400
_audit_creation_method            fapswitch 2.2
_symmetry_space_group_name_H-M    P1
_symmetry_Int_Tables_number       1
_space_group_crystal_system       triclinic
_cell_length_a                    15.027068
_cell_length_b                    11.09297
_cell_length_c                    9.949644
_cell_angle_alpha                 110.73343
_cell_angle_beta                  98.396125
_cell_angle_gamma                 91.836294
_cell_volume                      1528.21968249

loop_
_atom_site_label
_atom_site_type_symbol
_atom_type_description
_atom_site_fract_x
_atom_site_fract_y
_atom_site_fract_z
_atom_type_partial_charge
C1    C     C_R   0.493676 0.255070 0.441995 0.558105
C2    C     C_2   0.486790 0.493126 0.916388 0.264697
C3    C     C_R   0.329587 0.499162 0.500582 0.587510
C4    C     C_R   0.670549 0.501300 0.499513 0.571225
C5    C     C_R   0.815723 0.612308 0.500621 0.062742
C6    C     C_R   0.182985 0.381612 0.477636 0.064256
C7    C     C_R   0.766860 0.501450 0.497488 0.009628
C8    C     C_R   0.233330 0.497776 0.501199 0.010573
C9    C     C_R   0.808853 0.391087 0.496402 0.241394
C10   C     C_R   0.193236 0.613023 0.523151 0.239758
C11   C     C_R   0.901463 0.385125 0.485576 0.025164
C12   C     C_R   0.505875 0.744534 0.558683 0.573057
C13   C     C_R   0.098295 0.612143 0.508495 0.020946
C14   C     C_R   0.952365 0.497571 0.491035 -0.114739
C15   C     C_R   0.046433 0.496656 0.491893 -0.114441
C16   C     C_R   0.909169 0.611088 0.496024 0.061843
C17   C     C_R   0.088715 0.380377 0.475892 0.060680
C18   C     C_R   0.943227 0.269003 0.465895 0.236481
C19   C     C_R   0.054437 0.722163 0.505112 0.233964
C20   C     C_R   0.035539 0.265129 0.453487 0.267725
C21   C     C_R   0.959535 0.718900 0.491058 0.271441
C22   C     C_2   0.480412 0.117584 0.414585 -0.085605
C23   C     C_2   0.519324 0.881679 0.589836 -0.034965
C24   C     C_2   0.510108 0.068225 0.517518 0.077397
C25   C     C_2   0.477667 0.935816 0.499872 0.098399
C26   C     C_2   0.499066 0.518363 0.078175 0.220775
Cu1   Cu    Cu3+1 0.515770 0.521810 0.644910 1.026965
Cu2   Cu    Cu3+1 0.484230 0.478190 0.355090 1.022977
H1    H     H_    0.571324 0.935681 0.681722 0.120452
H2    H     H_    0.075138 0.908357 0.558901 0.339657
H3    H     H_    0.028196 0.078521 0.351527 0.339586
H4    H     H_    0.948442 0.853728 0.408447 0.335541
H5    H     H_    0.408671 0.856680 0.291478 0.213900
H6    H     H_    0.344636 0.926655 0.419604 0.263200
H7    H     H_    0.546072 0.206574 0.722484 0.247074
H8    H     H_    0.628490 0.184866 0.614268 0.286788
H9    H     H_    0.350111 0.451994 0.879187 0.215509
H10   H     H_    0.409310 0.324914 0.792792 0.198588
H11   H     H_    0.502608 0.706180 0.210593 0.261835
H12   H     H_    0.438672 0.058573 0.312226 0.083551
H13   H     H_    0.595674 0.627853 0.248843 0.261826
H14   H     H_    0.652721 0.524592 0.981809 0.225707
H15   H     H_    0.639220 0.682462 0.996355 0.258576
H16   H     H_    0.479862 0.276123 0.983172 0.212552
H17   H     H_    0.367830 0.307886 0.997316 0.222003
H18   H     H_    0.719869 0.710817 0.428987 0.229650
H19   H     H_    0.742871 0.753904 0.613008 0.225662
H20   H     H_    0.261196 0.246360 0.368933 0.232079
H21   H     H_    0.276913 0.281866 0.551992 0.234654
H22   H     H_    0.787689 0.275227 0.594208 0.350494
H23   H     H_    0.232111 0.788117 0.648846 0.351164
H24   H     H_    0.930965 0.107143 0.498263 0.339284
N1    N     N_2   0.460520 0.445420 0.137370 -0.144512
N2    N     N_3   0.433659 0.315847 0.052503 -0.495713
N3    N     N_2   0.539480 0.554580 0.862630 -0.115069
N4    N     N_3   0.771356 0.728542 0.517990 -0.523361
N5    N     N_3   0.228493 0.266116 0.459252 -0.530086
N6    N     N_3   0.398193 0.868924 0.396670 -0.564179
N7    N     N_3   0.576699 0.139565 0.643945 -0.631736
N8    N     N_3   0.404799 0.424467 0.824592 -0.575897
N9    N     N_3   0.547848 0.639506 0.168801 -0.646200
N10   N     N_3   0.630538 0.585569 0.926393 -0.485953
O1    O     O_R   0.508410 0.332340 0.577400 -0.500401
O2    O     O_3   0.249174 0.724844 0.559603 -0.630924
O3    O     O_3   0.892489 0.158199 0.453071 -0.664921
O4    O     O_3   0.104473 0.830092 0.508070 -0.669332
O5    O     O_3   0.074075 0.148732 0.417089 -0.657141
O6    O     O_3   0.914939 0.818396 0.467054 -0.657285
O7    O     O_R   0.491590 0.667660 0.422600 -0.494361
O8    O     O_R   0.481780 0.295500 0.332650 -0.460682
O9    O     O_R   0.518220 0.704500 0.667350 -0.493168
O10   O     O_R   0.383570 0.518390 0.622380 -0.469544
O11   O     O_R   0.616430 0.481610 0.377620 -0.516199
O12   O     O_R   0.356940 0.481550 0.377630 -0.470160
O13   O     O_R   0.643060 0.518450 0.622370 -0.463638
O14   O     O_3   0.757315 0.291028 0.507296 -0.646823

loop_
_geom_bond_atom_site_label_1
_geom_bond_atom_site_label_2
_ccdc_geom_bond_type
C12   O7    A    
C11   C18   A    
H5    N6    S    
C5    N4    S    
Cu2   O7    S    
H13   N9    S    
H8    N7    S    
Cu2   O12   S    
H20   N5    S    
N1    N2    S    
C18   O3    S    
H3    O5    S    
C12   C23   S    
C16   C21   A    
C23   H1    S    
C19   C21   A    
C26   N9    S    
C2    N3    D    
C11   C14   A    
C2    N8    S    
N3    N10   S    
C17   C20   A    
H21   N5    S    
C19   O4    S    
H7    N7    S    
C3    O12   A    
C4    O13   A    
C20   O5    S    
C5    C16   A    
C9    O14   S    
H14   N10   S    
H4    O6    S    
C1    C22   S    
C6    N5    S    
C4    C7    S    
Cu1   O13   S    
Cu2   O11   S    
C1    O1    A    
C7    C9    A    
H11   N9    S    
C10   O2    S    
C13   C19   A    
C24   C25   S    
C3    C8    S    
C5    C7    A    
C6    C8    A    
H22   O14   S    
C22   H12   S    
C2    C26   S    
C9    C11   A    
C4    O11   A    
H2    O4    S    
Cu1   O1    S    
H10   N8    S    
C12   O9    A    
H17   N2    S    
C13   C15   A    
C21   O6    S    
C22   C24   D    
C25   N6    S    
C26   N1    D    
Cu1   O9    S    
C15   C17   A    
C6    C17   A    
C14   C16   A    
Cu2   O8    S    
H23   O2    S    
C10   C13   A    
Cu2   N1    S    
Cu1   N3    S    
C1    O8    A    
C3    O10   A    
C24   N7    S    
C18   C20   A    
C23   C25   D    
H9    N8    S    
H24   O3    S    
H16   N2    S    
C8    C10   A    
H18   N4    S    
Cu1   Cu2   S    
H6    N6    S    
C14   C15   A    
Cu1   O10   S    
H15   N10   S    
H19   N4    S    
