data_mof_unit_43763.cif
_audit_creation_date              2012-10-26T21:00:45-0400
_audit_creation_method            fapswitch 2.2
_symmetry_space_group_name_H-M    P1
_symmetry_Int_Tables_number       1
_space_group_crystal_system       triclinic
_cell_length_a                    10.896521
_cell_length_b                    9.637202
_cell_length_c                    10.92328
_cell_angle_alpha                 89.846789
_cell_angle_beta                  94.647057
_cell_angle_gamma                 89.844053
_cell_volume                      1143.29532997

loop_
_atom_site_label
_atom_site_type_symbol
_atom_type_description
_atom_site_fract_x
_atom_site_fract_y
_atom_site_fract_z
_atom_type_partial_charge
C1    C     C_R   0.262830 0.500815 0.506585 0.563829
C2    C     C_R   0.489070 0.500048 0.736382 0.600914
C3    C     C_R   0.561282 0.755417 0.109050 0.305949
C4    C     C_R   0.418335 0.750540 0.883337 0.295164
C5    C     C_R   0.525726 0.879725 0.048613 -0.118891
C6    C     C_R   0.448029 0.877269 0.941274 -0.124752
C7    C     C_R   0.468462 0.625829 0.935904 -0.034636
C8    C     C_R   0.516263 0.627471 0.059817 -0.033298
C9    C     C_R   0.516096 0.501162 0.127789 0.019178
C10   C     C_R   0.474839 0.499814 0.869942 0.023110
C11   C     C_R   0.501285 0.374435 0.063822 0.194604
C12   C     C_R   0.736772 0.500378 0.490962 0.549316
C13   C     C_R   0.488941 0.373748 0.935054 0.196495
C14   C     C_R   0.062472 0.379983 0.520950 0.209701
C15   C     C_R   0.938035 0.377882 0.484373 0.219161
C16   C     C_R   0.870637 0.502987 0.480026 -0.064819
C17   C     C_R   0.128447 0.504741 0.512651 -0.031998
C18   C     C_3   0.326036 0.139321 0.327442 -0.200145
C19   C     C_3   0.195939 0.091411 0.351326 -0.378030
C20   C     C_3   0.671043 0.137657 0.675599 -0.203090
C21   C     C_3   0.802051 0.084950 0.660317 -0.368386
C22   C     C_R   0.934759 0.630942 0.480898 0.179051
C23   C     C_R   0.063762 0.632032 0.497080 0.248445
C24   C     C_R   0.424263 0.073021 0.416006 0.161449
C25   C     C_R   0.575292 0.072034 0.584489 0.158042
C26   C     C_R   0.431605 0.925923 0.411257 0.343133
C27   C     C_R   0.567828 0.924895 0.589136 0.339768
C28   C     C_R   0.508186 0.500491 0.262759 0.593033
Cu1   Cu    Cu3+1 0.500000 0.640660 0.500000 1.034766
Cu2   Cu    Cu3+1 0.500000 0.359340 0.500000 0.960402
H1    H     H_    0.557014 0.978346 0.086004 0.127779
H2    H     H_    0.071904 0.836310 0.491183 0.372474
H3    H     H_    0.169321 0.998809 0.295158 0.181002
H4    H     H_    0.190425 0.063367 0.449226 0.222381
H5    H     H_    0.128028 0.174638 0.325197 0.176156
H6    H     H_    0.326680 0.252297 0.327406 0.208315
H7    H     H_    0.342293 0.108198 0.232798 0.164069
H8    H     H_    0.825097 0.995611 0.722405 0.181552
H9    H     H_    0.812054 0.050570 0.564759 0.232287
H10   H     H_    0.870050 0.167864 0.685366 0.183285
H11   H     H_    0.672936 0.250515 0.671937 0.210420
H12   H     H_    0.413675 0.974058 0.901310 0.130278
H13   H     H_    0.649041 0.110393 0.769668 0.165473
H14   H     H_    0.337484 0.771545 0.343495 0.384147
H15   H     H_    0.663846 0.771266 0.656886 0.379880
H16   H     H_    0.443950 0.186818 0.081833 0.315922
H17   H     H_    0.540232 0.182323 0.919996 0.318383
H18   H     H_    0.669627 0.853661 0.229885 0.322833
H19   H     H_    0.308250 0.841106 0.757845 0.337035
H20   H     H_    0.179941 0.281988 0.631097 0.342733
H21   H     H_    0.823601 0.267024 0.383387 0.340099
H22   H     H_    0.818315 0.745161 0.386634 0.367202
N1    N     N_R   0.500000 0.852070 0.500000 -0.246352
N2    N     N_R   0.500000 0.147940 0.500000 -0.272656
O1    O     O_R   0.319640 0.618740 0.499990 -0.453024
O2    O     O_3   0.487118 0.249817 0.872011 -0.711619
O3    O     O_3   0.648883 0.756278 0.207692 -0.685939
O4    O     O_3   0.333389 0.745331 0.782328 -0.647114
O5    O     O_3   0.116124 0.258222 0.564655 -0.671635
O6    O     O_3   0.885750 0.251694 0.453570 -0.671965
O7    O     O_3   0.874253 0.755790 0.462016 -0.701657
O8    O     O_3   0.128460 0.755726 0.497542 -0.665427
O9    O     O_3   0.367504 0.860416 0.314283 -0.714456
O10   O     O_3   0.630281 0.858139 0.686877 -0.713246
O11   O     O_R   0.680360 0.618740 0.500010 -0.500306
O12   O     O_R   0.319620 0.381170 0.499990 -0.528481
O13   O     O_R   0.680380 0.381170 0.500010 -0.517306
O14   O     O_R   0.500000 0.618810 0.319650 -0.468333
O15   O     O_R   0.500000 0.618810 0.680350 -0.462447
O16   O     O_R   0.499970 0.381240 0.319640 -0.477383
O17   O     O_R   0.500030 0.381240 0.680360 -0.478780
O18   O     O_3   0.501551 0.250946 0.127734 -0.713045

loop_
_geom_bond_atom_site_label_1
_geom_bond_atom_site_label_2
_ccdc_geom_bond_type
C15   C16   A    
C7    C10   A    
C26   O9    S    
C27   N1    A    
Cu1   Cu2   S    
C6    H12   S    
C25   C27   A    
C2    O15   A    
C9    C11   A    
C15   O6    S    
H15   O10   S    
H16   O18   S    
Cu2   O13   S    
C21   H9    S    
C2    C10   S    
C13   O2    S    
Cu2   N2    S    
C14   C15   A    
Cu2   O17   S    
C1    O1    A    
H2    O8    S    
H18   O3    S    
Cu2   O12   S    
C25   N2    A    
C22   O7    S    
C14   O5    S    
C11   C13   A    
C14   C17   A    
C18   H6    S    
C17   C23   A    
C21   H10   S    
Cu1   N1    S    
C4    C7    A    
C18   C24   S    
H20   O5    S    
C3    O3    S    
Cu2   O16   S    
C18   H7    S    
C24   C26   A    
C20   H11   S    
Cu1   O15   S    
H22   O7    S    
H14   O9    S    
C19   H3    S    
C5    C6    A    
C12   O13   A    
Cu1   O11   S    
C3    C8    A    
C27   O10   S    
H19   O4    S    
C24   N2    A    
C2    O17   A    
Cu1   O14   S    
C26   N1    A    
C3    C5    A    
C7    C8    A    
C20   H13   S    
C20   C21   S    
C20   C25   S    
C4    C6    A    
C18   C19   S    
C12   O11   A    
C4    O4    S    
C19   H5    S    
C22   C23   A    
C8    C9    A    
C16   C22   A    
H21   O6    S    
Cu1   O1    S    
C28   O14   A    
C11   O18   S    
C1    C17   S    
C10   C13   A    
C23   O8    S    
C28   O16   A    
C21   H8    S    
C12   C16   S    
C9    C28   S    
H17   O2    S    
C5    H1    S    
C19   H4    S    
C1    O12   A    
