data_mof_unit_64552.cif
_audit_creation_date              2012-12-10T18:15:19-0500
_audit_creation_method            fapswitch 2.2
_symmetry_space_group_name_H-M    P1
_symmetry_Int_Tables_number       1
_space_group_crystal_system       triclinic
_cell_length_a                    38.815229
_cell_length_b                    32.2375
_cell_length_c                    21.637665
_cell_angle_alpha                 89.999499
_cell_angle_beta                  56.118331
_cell_angle_gamma                 89.99447
_cell_volume                      22477.6939811

loop_
_atom_site_label
_atom_site_type_symbol
_atom_type_description
_atom_site_fract_x
_atom_site_fract_y
_atom_site_fract_z
_atom_type_partial_charge
C1    C     C_R   0.920404 0.499999 0.579826 0.861141
C2    C     C_R   0.079596 0.499996 0.420174 0.861124
C3    C     C_R   0.420403 0.999999 0.579838 0.861233
C4    C     C_R   0.579597 0.999994 0.420187 0.861084
C5    C     C_3   0.999760 0.455233 0.284842 -0.371157
C6    C     C_3   0.000255 0.455234 0.715145 -0.371729
C7    C     C_3   0.499417 0.955238 0.285183 -0.371583
C8    C     C_3   0.500011 0.955232 0.715385 -0.372115
C9    C     C_3   0.000505 0.501025 0.310140 -0.050019
C10   C     C_3   0.999495 0.501026 0.689859 -0.050099
C11   C     C_3   0.500482 0.001024 0.310164 -0.049914
C12   C     C_3   0.499480 0.001028 0.689876 -0.049790
C13   C     C_3   0.999747 0.500580 0.189123 0.039396
C14   C     C_3   0.000252 0.500580 0.810878 0.039217
C15   C     C_3   0.499743 0.000588 0.189128 0.039478
C16   C     C_3   0.500249 0.000573 0.810882 0.039519
C17   C     C_3   0.035468 0.528658 0.178280 -0.352452
C18   C     C_3   0.964523 0.528655 0.821728 -0.352896
C19   C     C_3   0.535660 0.028412 0.178119 -0.352359
C20   C     C_3   0.464659 0.028826 0.821615 -0.352860
C21   C     C_3   0.005584 0.455483 0.207973 -0.186669
C22   C     C_3   0.994428 0.455483 0.792015 -0.183878
C23   C     C_3   0.505246 0.955448 0.208309 -0.185297
C24   C     C_3   0.494198 0.955507 0.792244 -0.185028
C25   C     C_R   0.727575 0.490503 0.828337 -0.200025
C26   C     C_R   0.272427 0.490502 0.171657 -0.200134
C27   C     C_R   0.227577 0.991044 0.828592 -0.200216
C28   C     C_R   0.772417 0.989837 0.171922 -0.200016
C29   C     C_R   0.706220 0.499977 0.795104 0.117492
C30   C     C_R   0.293780 0.499975 0.204893 0.117527
C31   C     C_R   0.206221 0.999987 0.795161 0.117578
C32   C     C_R   0.793780 0.999879 0.204914 0.117442
C33   C     C_R   0.728465 0.509490 0.719184 -0.174857
C34   C     C_R   0.271532 0.509487 0.280815 -0.174973
C35   C     C_R   0.228464 0.008982 0.719045 -0.175086
C36   C     C_R   0.771543 0.009962 0.280604 -0.174764
C37   C     C_R   0.771838 0.509519 0.676563 -0.193145
C38   C     C_R   0.228160 0.509513 0.323437 -0.193308
C39   C     C_R   0.271836 0.009023 0.676421 -0.193184
C40   C     C_R   0.728171 0.009986 0.323241 -0.193285
C41   C     C_R   0.793500 0.500094 0.709318 0.124903
C42   C     C_R   0.206500 0.500088 0.290680 0.124917
C43   C     C_R   0.293501 0.000125 0.709365 0.124969
C44   C     C_R   0.706501 0.000001 0.290728 0.124852
C45   C     C_R   0.000771 0.500117 0.378939 0.815052
C46   C     C_R   0.999230 0.500117 0.621060 0.815144
C47   C     C_R   0.500742 0.000116 0.378968 0.815199
C48   C     C_R   0.499212 0.000118 0.621078 0.815100
C49   C     C_R   0.771261 0.490523 0.786148 0.156597
C50   C     C_R   0.228742 0.490521 0.213845 0.156657
C51   C     C_R   0.271265 0.991082 0.786396 0.156349
C52   C     C_R   0.728732 0.989866 0.214123 0.157024
C53   C     C_1   0.661432 0.499985 0.839094 -0.046127
C54   C     C_1   0.338567 0.499984 0.160904 -0.046216
C55   C     C_1   0.161432 0.999986 0.839136 -0.046351
C56   C     C_1   0.838568 0.999915 0.160906 -0.046104
C57   C     C_1   0.838365 0.500072 0.663114 -0.043790
C58   C     C_1   0.161635 0.500062 0.336884 -0.043917
C59   C     C_1   0.338364 0.000083 0.663153 -0.043816
C60   C     C_1   0.661635 0.000021 0.336935 -0.043932
C61   C     C_1   0.875822 0.500043 0.624917 -0.130884
C62   C     C_1   0.124178 0.500032 0.375082 -0.131009
C63   C     C_1   0.375820 0.000045 0.624945 -0.130900
C64   C     C_1   0.624179 0.000021 0.375118 -0.130984
C65   C     C_1   0.623949 0.499980 0.876180 -0.159583
C66   C     C_1   0.376051 0.499980 0.123819 -0.159655
C67   C     C_1   0.123949 0.999980 0.876195 -0.159968
C68   C     C_1   0.876051 0.999939 0.123818 -0.159507
C69   C     C_1   0.499990 0.661189 0.000005 -0.048520
C70   C     C_1   0.000183 0.161192 0.999296 -0.041822
C71   C     C_R   0.999998 0.579557 0.000002 0.812643
C72   C     C_R   0.499998 0.079557 0.000001 0.812620
C73   C     C_R   0.999963 0.500998 0.120205 0.773787
C74   C     C_R   0.000036 0.500998 0.879795 0.774136
C75   C     C_R   0.499964 0.001006 0.120204 0.773805
C76   C     C_R   0.500037 0.000990 0.879795 0.774094
C77   C     C_1   0.999958 0.338618 0.999766 -0.052728
C78   C     C_1   0.500004 0.838635 0.999989 -0.059547
C79   C     C_R   0.000001 0.420443 0.000026 0.811366
C80   C     C_R   0.500002 0.920447 0.999997 0.811868
C81   C     C_1   0.999995 0.375999 0.999926 -0.170645
C82   C     C_1   0.500006 0.876012 0.999990 -0.171073
C83   C     C_R   0.499999 0.420686 0.000001 0.815229
C84   C     C_R   0.000000 0.920685 1.000000 0.815201
C85   C     C_R   0.579312 0.499974 0.920713 0.815356
C86   C     C_R   0.420687 0.499975 0.079286 0.815322
C87   C     C_R   0.079313 0.999974 0.920715 0.814843
C88   C     C_R   0.920688 0.999965 0.079286 0.815281
C89   C     C_R   0.499998 0.579292 0.000001 0.820031
C90   C     C_R   0.000005 0.079294 0.999984 0.819002
C91   C     C_R   0.505162 0.271835 0.939365 -0.168269
C92   C     C_R   0.494818 0.271835 0.060647 -0.168280
C93   C     C_R   0.003270 0.771835 0.940941 -0.168259
C94   C     C_R   0.996717 0.771835 0.059067 -0.168234
C95   C     C_R   0.499990 0.293721 0.000005 0.148318
C96   C     C_R   0.999994 0.793720 0.000003 0.148334
C97   C     C_R   0.996717 0.728383 0.059068 -0.171248
C98   C     C_R   0.003268 0.728382 0.940943 -0.171254
C99   C     C_R   0.494819 0.228382 0.060646 -0.171260
C100  C     C_R   0.505162 0.228382 0.939365 -0.171273
C101  C     C_R   0.999992 0.706500 0.000006 0.152742
C102  C     C_R   0.499991 0.206500 0.000005 0.152648
C103  C     C_1   0.499993 0.338530 0.000004 -0.060707
C104  C     C_1   0.999997 0.838528 0.000001 -0.060676
C105  C     C_1   0.999993 0.661698 0.000007 -0.065188
C106  C     C_1   0.499992 0.161696 0.000005 -0.065212
C107  C     C_1   0.999994 0.624208 0.000005 -0.174378
C108  C     C_1   0.499994 0.124207 0.000004 -0.174357
C109  C     C_1   0.499993 0.623775 0.000004 -0.174583
C110  C     C_1   0.000076 0.123781 0.999798 -0.173640
C111  C     C_1   0.499996 0.376024 0.000003 -0.157219
C112  C     C_1   0.999999 0.876023 0.000001 -0.157190
C113  C     C_R   0.508615 0.727923 0.047044 0.107529
C114  C     C_R   0.491360 0.727926 0.952967 0.107500
C115  C     C_R   0.011853 0.227892 0.041490 0.109609
C116  C     C_R   0.988745 0.227948 0.955754 0.103781
C117  C     C_R   0.499986 0.706196 0.000008 0.027429
C118  C     C_R   0.000395 0.206212 0.998512 0.037868
C119  C     C_R   0.999899 0.293568 0.999462 -0.068492
C120  C     C_R   0.499998 0.793583 0.999994 -0.075650
C121  C     C_R   0.989255 0.272071 0.955470 -0.007340
C122  C     C_R   0.010725 0.271868 0.042906 -0.008607
C123  C     C_R   0.492039 0.772012 0.952421 -0.005163
C124  C     C_R   0.507947 0.772007 0.047576 -0.004939
C125  C     C_3   0.958885 0.522925 0.326646 -0.002531
C126  C     C_3   0.041107 0.522931 0.673362 -0.002340
C127  C     C_3   0.459021 0.023220 0.326488 -0.002371
C128  C     C_3   0.541204 0.022722 0.673256 -0.002525
C129  C     C_3   0.958239 0.518672 0.255354 -0.500117
C130  C     C_3   0.041756 0.518675 0.744651 -0.500154
C131  C     C_3   0.458358 0.018970 0.255211 -0.500435
C132  C     C_3   0.541837 0.018467 0.744560 -0.500043
C133  C     C_3   0.042302 0.522291 0.242400 0.106844
C134  C     C_3   0.957691 0.522288 0.757605 0.106682
C135  C     C_3   0.542430 0.021992 0.242304 0.106729
C136  C     C_3   0.457785 0.022503 0.757532 0.106952
Cu1   Cu    Cu3+1 0.000000 0.540990 0.500000 1.038015
Cu2   Cu    Cu3+1 0.500000 0.040990 0.500000 1.038091
Cu3   Cu    Cu3+1 0.000000 0.458960 0.500000 1.017158
Cu4   Cu    Cu3+1 0.500000 0.958960 0.500000 1.016739
Cu5   Cu    Cu3+1 0.958960 0.499950 0.041020 0.979724
Cu6   Cu    Cu3+1 0.041040 0.499950 0.958980 0.979026
Cu7   Cu    Cu3+1 0.458960 0.999950 0.041020 0.979577
Cu8   Cu    Cu3+1 0.541040 0.999950 0.958980 0.979452
Cu9   Cu    Cu3+1 0.499970 0.500020 0.937550 0.971534
Cu10  Cu    Cu3+1 0.500030 0.500020 0.062450 0.971517
Cu11  Cu    Cu3+1 0.999970 0.000020 0.937550 0.971260
Cu12  Cu    Cu3+1 0.000030 0.000020 0.062450 0.972446
H1    H     H_    0.038054 0.446004 0.165232 0.160038
H2    H     H_    0.961960 0.446003 0.834751 0.159948
H3    H     H_    0.537645 0.945732 0.165640 0.159477
H4    H     H_    0.461686 0.946185 0.835033 0.159556
H5    H     H_    0.064828 0.523686 0.123097 0.223844
H6    H     H_    0.935164 0.523681 0.876910 0.223894
H7    H     H_    0.564993 0.023231 0.122985 0.223968
H8    H     H_    0.435282 0.023996 0.876830 0.223835
H9    H     H_    0.710141 0.483303 0.887261 0.140161
H10   H     H_    0.289864 0.483305 0.112730 0.140116
H11   H     H_    0.210146 0.984245 0.887663 0.140120
H12   H     H_    0.789845 0.982207 0.113165 0.140095
H13   H     H_    0.712274 0.516858 0.692885 0.150198
H14   H     H_    0.287721 0.516856 0.307115 0.150148
H15   H     H_    0.212273 0.015932 0.692593 0.150153
H16   H     H_    0.787739 0.017790 0.306709 0.150256
H17   H     H_    0.788558 0.516860 0.617785 0.159109
H18   H     H_    0.211437 0.516854 0.382215 0.159058
H19   H     H_    0.288554 0.015957 0.617496 0.159216
H20   H     H_    0.711454 0.017780 0.381839 0.159016
H21   H     H_    0.005817 0.711870 0.894947 0.137124
H22   H     H_    0.994168 0.711872 0.105065 0.137132
H23   H     H_    0.509190 0.211870 0.892140 0.137226
H24   H     H_    0.490793 0.211871 0.107870 0.137248
H25   H     H_    0.509192 0.288344 0.892138 0.141915
H26   H     H_    0.490788 0.288345 0.107874 0.141913
H27   H     H_    0.005821 0.788343 0.894942 0.141886
H28   H     H_    0.994167 0.788344 0.105064 0.141901
H29   H     H_    0.932220 0.498553 0.265863 0.227805
H30   H     H_    0.067780 0.498558 0.734135 0.227870
H31   H     H_    0.432201 0.999033 0.265851 0.227815
H32   H     H_    0.567765 0.998227 0.734143 0.227831
H33   H     H_    0.952038 0.548961 0.238514 0.140687
H34   H     H_    0.047948 0.548964 0.761502 0.140643
H35   H     H_    0.452376 0.049299 0.238141 0.140430
H36   H     H_    0.548175 0.048728 0.761256 0.140752
H37   H     H_    0.026780 0.561426 0.177174 0.140693
H38   H     H_    0.973200 0.561424 0.822844 0.140795
H39   H     H_    0.527215 0.061243 0.176769 0.140788
H40   H     H_    0.473506 0.061548 0.822569 0.140760
H41   H     H_    0.024542 0.435770 0.281032 0.160140
H42   H     H_    0.975479 0.435769 0.718947 0.160330
H43   H     H_    0.524062 0.935598 0.281504 0.160205
H44   H     H_    0.475134 0.935897 0.719289 0.159609
H45   H     H_    0.970539 0.439291 0.326994 0.253611
H46   H     H_    0.029481 0.439295 0.672988 0.253526
H47   H     H_    0.470087 0.939502 0.327453 0.253447
H48   H     H_    0.529154 0.939144 0.673303 0.253750
O1    O     O_R   0.940150 0.534620 0.559830 -0.571705
O2    O     O_R   0.059850 0.534620 0.440170 -0.571671
O3    O     O_R   0.440150 0.034620 0.559830 -0.571826
O4    O     O_R   0.559850 0.034620 0.440170 -0.571521
O5    O     O_R   0.559820 0.500010 0.887440 -0.576796
O6    O     O_R   0.440180 0.500010 0.112560 -0.576827
O7    O     O_R   0.059820 0.000010 0.887440 -0.576806
O8    O     O_R   0.940180 0.000010 0.112560 -0.576657
O9    O     O_R   0.559830 0.499950 0.992950 -0.577835
O10   O     O_R   0.440170 0.499950 0.007050 -0.577851
O11   O     O_R   0.059830 0.999950 0.992950 -0.577869
O12   O     O_R   0.940170 0.999950 0.007050 -0.577882
O13   O     O_R   0.500010 0.559860 0.947320 -0.579272
O14   O     O_R   0.499990 0.559860 0.052680 -0.579277
O15   O     O_R   0.000010 0.059860 0.947320 -0.579962
O16   O     O_R   0.999990 0.059860 0.052680 -0.577436
O17   O     O_R   0.940110 0.465340 0.559870 -0.568628
O18   O     O_R   0.059890 0.465340 0.440130 -0.568814
O19   O     O_R   0.440110 0.965340 0.559870 -0.568988
O20   O     O_R   0.559890 0.965340 0.440130 -0.568636
O21   O     O_R   0.999990 0.534620 0.408860 -0.566192
O22   O     O_R   0.000010 0.534620 0.591140 -0.566188
O23   O     O_R   0.499990 0.034620 0.408860 -0.565751
O24   O     O_R   0.500010 0.034620 0.591140 -0.566497
O25   O     O_R   0.999950 0.465340 0.408890 -0.578462
O26   O     O_R   0.000050 0.465340 0.591110 -0.578453
O27   O     O_R   0.499950 0.965340 0.408890 -0.579109
O28   O     O_R   0.500050 0.965340 0.591110 -0.578074
O29   O     O_R   0.965330 0.559800 0.034660 -0.581139
O30   O     O_R   0.034670 0.559800 0.965340 -0.581162
O31   O     O_R   0.465330 0.059800 0.034660 -0.581146
O32   O     O_R   0.534670 0.059800 0.965340 -0.581190
O33   O     O_R   0.965350 0.499950 0.125800 -0.571888
O34   O     O_R   0.034650 0.499950 0.874200 -0.571935
O35   O     O_R   0.465350 0.999950 0.125800 -0.571841
O36   O     O_R   0.534650 0.999950 0.874200 -0.572014
O37   O     O_R   0.034620 0.500000 0.056540 -0.598117
O38   O     O_R   0.965380 0.500000 0.943460 -0.598132
O39   O     O_R   0.534620 0.000000 0.056540 -0.598158
O40   O     O_R   0.465380 0.000000 0.943460 -0.598139
O41   O     O_R   0.965350 0.440100 0.034640 -0.569291
O42   O     O_R   0.034650 0.440100 0.965360 -0.570016
O43   O     O_R   0.465350 0.940100 0.034640 -0.569714
O44   O     O_R   0.534650 0.940100 0.965360 -0.569299
O45   O     O_R   0.499940 0.440170 0.947210 -0.577153
O46   O     O_R   0.500060 0.440170 0.052790 -0.577155
O47   O     O_R   0.999940 0.940170 0.947210 -0.577137
O48   O     O_R   0.000060 0.940170 0.052790 -0.577160
C137  C     C_2   0.956178 0.568839 0.345512 0.292387
H49   H     H_    0.967699 0.592116 0.302037 0.068584
O49   O     O_2   0.941056 0.580637 0.409385 -0.514011
C138  C     C_2   0.043798 0.568846 0.654519 0.292369
H50   H     H_    0.032265 0.592120 0.698006 0.068578
O50   O     O_2   0.058920 0.580651 0.590650 -0.514027
C139  C     C_2   0.456628 0.069157 0.345010 0.292756
H51   H     H_    0.468374 0.092340 0.301339 0.068406
O51   O     O_2   0.441499 0.081083 0.408817 -0.514000
C140  C     C_2   0.544122 0.068618 0.654162 0.291888
H52   H     H_    0.532750 0.091960 0.697507 0.068712
O52   O     O_2   0.559236 0.080330 0.590247 -0.514089
C141  C     C_2   0.079143 0.493395 0.218975 0.357232
H53   H     H_    0.086055 0.485200 0.259651 0.041519
O53   O     O_2   0.101303 0.479420 0.156009 -0.567131
C142  C     C_2   0.920859 0.493389 0.781022 0.357340
H54   H     H_    0.913950 0.485194 0.740344 0.041597
O54   O     O_2   0.898704 0.479411 0.843983 -0.566864
C143  C     C_2   0.579062 0.992834 0.219100 0.356849
H55   H     H_    0.585930 0.984616 0.259824 0.042078
O55   O     O_2   0.601102 0.978669 0.156254 -0.567471
C144  C     C_2   0.420804 0.993795 0.781099 0.357241
H56   H     H_    0.413868 0.985615 0.740450 0.041149
O56   O     O_2   0.398557 0.979957 0.844148 -0.566977
C145  C     C_3   0.793204 0.480177 0.824079 -0.403873
C146  C     C_3   0.809195 0.519294 0.839879 -0.805293
H57   H     H_    0.833241 0.534768 0.787233 0.247012
H58   H     H_    0.783244 0.541277 0.874190 0.253298
H59   H     H_    0.823162 0.510885 0.871087 0.270054
H60   H     H_    0.771707 0.464057 0.877810 0.206030
H61   H     H_    0.819382 0.458528 0.789070 0.212309
C147  C     C_3   0.206801 0.480184 0.175908 -0.404084
C148  C     C_3   0.190803 0.519307 0.160129 -0.805257
H62   H     H_    0.166756 0.534779 0.212783 0.247043
H63   H     H_    0.216750 0.541289 0.125825 0.253287
H64   H     H_    0.176834 0.510906 0.128921 0.269981
H65   H     H_    0.228302 0.464069 0.122168 0.205916
H66   H     H_    0.180627 0.458535 0.210905 0.212179
C149  C     C_3   0.293220 0.981309 0.824522 -0.403596
C150  C     C_3   0.309310 0.020711 0.839320 -0.805194
H67   H     H_    0.333423 0.035812 0.786287 0.247122
H68   H     H_    0.283421 0.042858 0.873012 0.253289
H69   H     H_    0.323223 0.012736 0.870796 0.269279
H70   H     H_    0.271708 0.965566 0.878655 0.205990
H71   H     H_    0.319351 0.959519 0.790021 0.212180
C151  C     C_3   0.706771 0.978992 0.176438 -0.404485
C152  C     C_3   0.690836 0.017847 0.159809 -0.805647
H72   H     H_    0.666989 0.033752 0.212103 0.247001
H73   H     H_    0.716860 0.039600 0.124669 0.253365
H74   H     H_    0.676632 0.009035 0.129178 0.270657
H75   H     H_    0.728239 0.962539 0.123060 0.205939
H76   H     H_    0.680561 0.957474 0.211932 0.212159
C153  C     C_2   0.021681 0.296146 0.088012 0.365973
H77   H     H_    0.045015 0.320341 0.061792 0.071670
O57   O     O_2   0.002811 0.291290 0.155258 -0.538655
C154  C     C_2   0.977981 0.296814 0.910981 0.376930
H78   H     H_    0.958764 0.324269 0.935084 0.069607
O58   O     O_2   0.991694 0.288328 0.846265 -0.541347
C155  C     C_2   0.516301 0.796639 0.096210 0.379766
H79   H     H_    0.536191 0.823759 0.073917 0.067271
O59   O     O_2   0.499437 0.788468 0.162059 -0.539793
C156  C     C_2   0.483697 0.796655 0.903775 0.380458
H80   H     H_    0.463872 0.823826 0.926018 0.066906
O60   O     O_2   0.500497 0.788433 0.837962 -0.539512
C157  C     C_2   0.918641 0.503492 0.391239 0.441882
H81   H     H_    0.889329 0.512503 0.399691 0.068194
O61   O     O_2   0.917926 0.479061 0.435029 -0.554559
C158  C     C_2   0.081358 0.503506 0.608760 0.441712
H82   H     H_    0.110669 0.512530 0.600295 0.068081
O62   O     O_2   0.082080 0.479064 0.564976 -0.554790
C159  C     C_2   0.418642 0.004064 0.391208 0.442166
H83   H     H_    0.389395 0.013261 0.399574 0.068151
O63   O     O_2   0.417758 0.979656 0.435191 -0.555199
C160  C     C_2   0.581358 0.003097 0.608754 0.441779
H84   H     H_    0.610712 0.011979 0.600248 0.068150
O64   O     O_2   0.581961 0.978648 0.565095 -0.554212
C161  C     C_3   0.520543 0.704063 0.093583 -0.351226
C162  C     C_3   0.567225 0.706229 0.058597 -0.798598
H85   H     H_    0.584350 0.692982 0.001514 0.249883
H86   H     H_    0.577436 0.738718 0.055745 0.254106
H87   H     H_    0.575057 0.687967 0.092681 0.244983
H88   H     H_    0.503250 0.715509 0.151620 0.251318
H89   H     H_    0.511829 0.670859 0.099935 0.201387
C163  C     C_3   0.479433 0.704068 0.906429 -0.351084
C164  C     C_3   0.432753 0.706259 0.941391 -0.798568
H90   H     H_    0.415617 0.693018 0.998477 0.249845
H91   H     H_    0.422552 0.738754 0.944234 0.254115
H92   H     H_    0.424926 0.688005 0.907294 0.244973
H93   H     H_    0.496739 0.715497 0.848382 0.251340
H94   H     H_    0.488135 0.670859 0.900094 0.201349
C165  C     C_3   0.027771 0.203708 0.081444 -0.363054
C166  C     C_3   0.073520 0.192628 0.027750 -0.825480
H95   H     H_    0.078152 0.173063 0.981450 0.258005
H96   H     H_    0.092393 0.221305 0.004359 0.252066
H97   H     H_    0.084470 0.175081 0.057834 0.248003
H98   H     H_    0.024307 0.220893 0.128764 0.249070
H99   H     H_    0.009369 0.174957 0.106809 0.208813
C167  C     C_3   0.973954 0.204039 0.913629 -0.351117
C168  C     C_3   0.926825 0.206256 0.954135 -0.795346
H100  H     H_    0.911679 0.193128 0.011055 0.249174
H101  H     H_    0.916307 0.238738 0.958241 0.255430
H102  H     H_    0.916946 0.187906 0.923159 0.244333
H103  H     H_    0.989257 0.215377 0.855785 0.251879
H104  H     H_    0.982704 0.170819 0.906476 0.199732
C169  C     C_3   0.055166 0.564585 0.260405 -0.423227
C170  C     C_3   0.092834 0.585749 0.192609 -0.833160
H105  H     H_    0.120098 0.564787 0.164298 0.267767
H106  H     H_    0.085686 0.596066 0.152037 0.248955
H107  H     H_    0.101394 0.613636 0.211355 0.246332
H108  H     H_    0.029959 0.587553 0.285514 0.224317
H109  H     H_    0.063777 0.559429 0.300915 0.207289
C171  C     C_3   0.944814 0.564580 0.739611 -0.423162
C172  C     C_3   0.907143 0.585745 0.807413 -0.833125
H110  H     H_    0.879887 0.564779 0.835736 0.267780
H111  H     H_    0.914296 0.596072 0.847974 0.248959
H112  H     H_    0.898570 0.613626 0.788673 0.246324
H113  H     H_    0.970015 0.587550 0.714500 0.224327
H114  H     H_    0.936202 0.559421 0.699103 0.207239
C173  C     C_3   0.555573 0.064185 0.260066 -0.423762
C174  C     C_3   0.593432 0.085068 0.192174 -0.832673
H115  H     H_    0.620549 0.063915 0.164117 0.267676
H116  H     H_    0.586422 0.095405 0.151426 0.249110
H117  H     H_    0.602149 0.112908 0.210757 0.246380
H118  H     H_    0.530541 0.087343 0.284936 0.224282
H119  H     H_    0.564078 0.058961 0.300709 0.207033
C175  C     C_3   0.445116 0.064867 0.739355 -0.422803
C176  C     C_3   0.407607 0.086258 0.807087 -0.833241
H120  H     H_    0.380252 0.065429 0.835687 0.267805
H121  H     H_    0.414900 0.096616 0.847446 0.248921
H122  H     H_    0.399122 0.114145 0.788212 0.246326
H123  H     H_    0.470449 0.087690 0.714022 0.224410
H124  H     H_    0.436405 0.059751 0.698974 0.207371
C177  C     C_2   0.978415 0.423413 0.203685 0.390775
H125  H     H_    0.992245 0.401878 0.157240 0.067969
O65   O     O_2   0.941103 0.421766 0.250525 -0.520789
C178  C     C_2   0.021605 0.423414 0.796298 0.388224
H126  H     H_    0.007779 0.401880 0.842738 0.062634
O66   O     O_2   0.058917 0.421769 0.749459 -0.523003
C179  C     C_2   0.477843 0.923579 0.204248 0.390008
H127  H     H_    0.491502 0.902002 0.157879 0.061535
O67   O     O_2   0.440531 0.922155 0.251172 -0.521465
C180  C     C_2   0.521226 0.923306 0.796664 0.389385
H128  H     H_    0.507304 0.901836 0.843202 0.061231
O68   O     O_2   0.558529 0.921485 0.749826 -0.521180

loop_
_geom_bond_atom_site_label_1
_geom_bond_atom_site_label_2
_ccdc_geom_bond_type
C15   C75   S    
C22   H2    S    
C172  H110  S    
C19   H7    S    
C162  H86   S    
C152  H72   S    
C17   H5    S    
C42   C58   S    
Cu9   Cu10  S    
C155  O59   D    
C84   C112  S    
C5    H45   S    
C150  H67   S    
C167  H103  S    
C26   C50   A    
C162  H87   S    
C3    O19   A    
Cu7   Cu8   S    
C29   C33   A    
C91   H25   S    
C38   H18   S    
C140  O52   D    
C98   H21   S    
C125  C137  S    
C27   C51   A    
C91   C100  A    
C74   O38   A    
C86   O6    A    
C129  H33   S    
C119  C121  A    
C33   H13   S    
C101  C105  S    
C71   O29   A    
C88   O12   A    
C41   C49   A    
C138  O50   D    
C25   C29   A    
C116  C121  A    
C27   C31   A    
Cu7   O43   S    
C28   C32   A    
C167  C168  S    
C94   C97   A    
C161  H89   S    
C35   H15   S    
C78   C120  S    
C163  H93   S    
C78   C82   T    
C155  H79   S    
C136  C175  S    
C16   C20   S    
C115  C118  A    
C156  H80   S    
C13   C21   S    
C84   O48   A    
C114  C163  S    
C94   C96   A    
Cu2   Cu4   S    
C13   C73   S    
C2    O18   A    
C172  H112  S    
C96   C104  S    
C17   C133  S    
C146  H58   S    
C125  C157  S    
C179  H127  S    
C6    H46   S    
C154  H78   S    
C14   C130  S    
C143  O55   D    
C47   O27   A    
Cu8   O39   S    
C149  H70   S    
C150  H69   S    
Cu7   O31   S    
C166  H95   S    
C89   O13   A    
C57   C61   T    
C12   C128  S    
C115  C165  S    
C59   C63   T    
C46   O26   A    
C60   C64   T    
Cu12  O16   S    
C5    H41   S    
C113  C124  A    
C147  H66   S    
C8    H44   S    
Cu11  O7    S    
C116  C118  A    
C26   H10   S    
C170  H105  S    
C127  C131  S    
C165  C166  S    
C125  C129  S    
C5    C21   S    
C161  C162  S    
Cu1   O21   S    
Cu5   O33   S    
C176  H120  S    
C178  H126  S    
C9    C133  S    
C127  C159  S    
C169  C170  S    
C4    O20   A    
C173  H118  S    
Cu11  Cu12  S    
C43   C51   A    
C73   O33   A    
C175  C176  S    
C85   O9    A    
C30   C54   S    
C83   O46   A    
C171  H113  S    
C145  H60   S    
C151  H76   S    
C32   C36   A    
C152  H73   S    
Cu3   O17   S    
C90   O15   A    
Cu6   O34   S    
Cu3   O18   S    
C27   H11   S    
C28   H12   S    
C121  C154  S    
C174  H115  S    
Cu8   O44   S    
C116  C167  S    
C141  H53   S    
C173  H119  S    
C160  O64   D    
C70   C110  T    
Cu12  O11   S    
C72   C108  S    
C174  H116  S    
C72   O31   A    
C76   O36   A    
C128  C140  S    
C21   H1    S    
C130  H30   S    
C126  C158  S    
C18   H6    S    
C43   C59   S    
Cu2   O3    S    
Cu3   O25   S    
C148  H62   S    
C153  O57   D    
C166  H97   S    
C95   C103  S    
Cu9   O13   S    
C157  O61   D    
C30   C34   A    
C80   C82   S    
C104  C112  T    
Cu4   O28   S    
C37   H17   S    
C99   H24   S    
C48   O28   A    
C92   H26   S    
C56   C68   T    
C93   H27   S    
C9    C125  S    
C97   H22   S    
Cu7   O40   S    
C11   C127  S    
C5    C9    S    
C20   H40   S    
C8    C12   S    
C176  H122  S    
Cu10  O46   S    
C76   O40   A    
C88   O8    A    
C144  O56   D    
C42   C50   A    
C113  C117  A    
C114  C123  A    
C132  H32   S    
Cu2   O23   S    
C26   C30   A    
C128  C160  S    
C168  H101  S    
C165  H99   S    
Cu12  O8    S    
C169  H109  S    
C16   C76   S    
C1    O1    A    
C137  H49   S    
C163  C164  S    
C34   H14   S    
C134  C171  S    
C66   C86   S    
C54   C66   T    
C174  H117  S    
C13   C17   S    
C122  C153  S    
C45   O25   A    
C14   C22   S    
C150  H68   S    
Cu10  O6    S    
C124  C155  S    
C167  H104  S    
C106  C108  T    
C70   C118  S    
C7    C23   S    
C8    C24   S    
C18   C134  S    
C37   C41   A    
Cu11  O12   S    
C135  C173  S    
C177  O65   D    
C114  C117  A    
C91   C95   A    
C40   C44   A    
C15   C131  S    
C147  C148  S    
C12   C136  S    
C148  H64   S    
C149  C150  S    
Cu12  O48   S    
C13   C129  S    
C79   O42   A    
Cu7   O35   S    
C83   O45   A    
C10   C126  S    
C113  C161  S    
C169  H108  S    
C92   C99   A    
C58   C62   T    
C9    C45   S    
C46   O22   A    
C71   C107  S    
C11   C47   S    
C12   C48   S    
C143  H55   S    
C15   C19   S    
Cu1   Cu3   S    
C123  C156  S    
C80   O43   A    
C165  H98   S    
C126  C130  S    
C19   C135  S    
C161  H88   S    
C6    C22   S    
C103  C111  T    
C151  C152  S    
C153  H77   S    
C163  H94   S    
C24   H4    S    
Cu4   O19   S    
C19   H39   S    
C131  H35   S    
Cu6   O37   S    
C17   H37   S    
C156  O60   D    
C173  C174  S    
C22   C178  S    
C73   O37   A    
C175  H123  S    
C120  C123  A    
C85   O5    A    
C133  C141  S    
C162  H85   S    
C159  H83   S    
C172  H111  S    
C34   C38   A    
C145  C146  S    
C146  H59   S    
C7    H43   S    
Cu11  O15   S    
C87   O7    A    
C154  O58   D    
Cu6   O30   S    
C21   C177  S    
C139  H51   S    
C142  H54   S    
C170  H107  S    
C129  H29   S    
C33   C37   A    
C35   C39   A    
C140  H52   S    
C11   C135  S    
C105  C107  T    
C77   C81   T    
C158  H82   S    
C170  H106  S    
C20   C136  S    
C166  H96   S    
C137  O49   D    
C1    O17   A    
C71   O30   A    
C31   C35   A    
C7    H47   S    
C14   C74   S    
C138  H50   S    
C178  O66   D    
C48   O24   A    
Cu6   O42   S    
Cu8   O36   S    
C52   C151  S    
C1    C61   S    
C6    C10   S    
C3    C63   S    
C98   C101  A    
C4    C64   S    
C171  H114  S    
C180  H128  S    
C41   C57   S    
C132  H36   S    
C90   O16   A    
Cu10  O9    S    
C44   C60   S    
C158  O62   D    
C8    H48   S    
C84   O47   A    
C16   C132  S    
C25   C49   A    
C99   C102  A    
Cu1   O2    S    
C72   O32   A    
C36   H16   S    
C146  H57   S    
C31   C55   S    
C32   C56   S    
C94   H28   S    
Cu2   O4    S    
C133  C169  S    
C168  H100  S    
C135  C143  S    
C45   O21   A    
C164  H90   S    
C14   C18   S    
C180  O68   D    
C74   O34   A    
C86   O10   A    
C157  H81   S    
C149  H71   S    
C7    C11   S    
C23   C179  S    
C38   C42   A    
C139  O51   D    
C147  H65   S    
C89   C109  S    
C69   C109  T    
C83   C111  S    
Cu5   O38   S    
C176  H121  S    
Cu1   O22   S    
C10   C46   S    
C3    O3    A    
C75   O39   A    
Cu11  O47   S    
C15   C23   S    
Cu2   O24   S    
C16   C24   S    
C115  C122  A    
C100  H23   S    
C51   C149  S    
C128  C132  S    
Cu9   O10   S    
Cu10  O14   S    
Cu5   O29   S    
C159  O63   D    
C145  H61   S    
C126  C138  S    
C151  H75   S    
C24   C180  S    
C36   C40   A    
C152  H74   S    
C142  O54   D    
C130  H34   S    
C79   C81   S    
C131  H31   S    
C39   C43   A    
C47   O23   A    
C18   H38   S    
C92   C95   A    
C141  O53   D    
C179  O67   D    
C160  H84   S    
C4    O4    A    
C6    H42   S    
C100  C102  A    
C164  H91   S    
Cu9   O45   S    
C75   O35   A    
C87   O11   A    
C177  H125  S    
Cu3   O26   S    
C93   C96   A    
C148  H63   S    
C25   H9    S    
C68   C88   S    
C164  H92   S    
C79   O41   A    
C53   C65   T    
C119  C122  A    
C23   H3    S    
Cu5   O41   S    
C20   H8    S    
C2    O2    A    
C10   C134  S    
Cu1   O1    S    
C77   C119  S    
C55   C67   T    
Cu4   O27   S    
C65   C85   S    
C89   O14   A    
C67   C87   S    
C80   O44   A    
Cu5   Cu6   S    
Cu9   O5    S    
C28   C52   A    
C44   C52   A    
C29   C53   S    
C136  C144  S    
C69   C117  S    
C171  C172  S    
C102  C106  S    
C127  C139  S    
C39   H19   S    
C97   C101  A    
C40   H20   S    
C144  H56   S    
Cu4   O20   S    
C120  C124  A    
C134  C142  S    
C168  H102  S    
C50   C147  S    
Cu8   O32   S    
C93   C98   A    
C175  H124  S    
C2    C62   S    
C90   C110  S    
C49   C145  S    
