data_mof_unit_67141.cif
_audit_creation_date              2012-12-11T17:48:25-0500
_audit_creation_method            fapswitch 2.2
_symmetry_space_group_name_H-M    P1
_symmetry_Int_Tables_number       1
_space_group_crystal_system       triclinic
_cell_length_a                    8.230312
_cell_length_b                    12.71902
_cell_length_c                    14.9741
_cell_angle_alpha                 96.438918
_cell_angle_beta                  97.543797
_cell_angle_gamma                 98.692675
_cell_volume                      1522.09819172

loop_
_atom_site_label
_atom_site_type_symbol
_atom_type_description
_atom_site_fract_x
_atom_site_fract_y
_atom_site_fract_z
_atom_type_partial_charge
Ba1   Ba    Ba6+2 0.843750 0.550210 0.455600 1.639306
Ba2   Ba    Ba6+2 0.346090 0.449880 0.544410 1.643570
C1    C     C_3   0.776367 0.878781 0.153962 -0.212350
C2    C     C_3   0.690046 0.832126 0.229044 0.339512
C3    C     C_3   0.410802 0.278627 0.268274 0.333563
C4    C     C_3   0.380863 0.247539 0.165882 -0.400391
C5    C     C_3   0.116561 0.223064 0.796431 0.357739
C6    C     C_3   0.162342 0.197113 0.892294 -0.375652
C7    C     C_3   0.593663 0.167887 0.742784 0.364383
C8    C     C_3   0.618050 0.067247 0.783996 -0.416027
C9    C     C_R   0.829626 0.423496 0.828548 -0.014990
C10   C     C_R   0.898646 0.429427 0.921051 -0.032418
C11   C     C_R   0.039429 0.444204 0.107874 -0.023253
C12   C     C_3   0.220869 0.829219 0.229632 0.920896
C13   C     C_R   0.876448 0.390644 0.075635 -0.055808
C14   C     C_R   0.807062 0.384443 0.984564 -0.101912
C15   C     C_R   0.109403 0.457052 0.201683 0.042467
C16   C     C_R   0.274513 0.505670 0.228465 -0.303154
C17   C     C_R   0.087819 0.523540 0.794882 0.037121
C18   C     C_R   0.157191 0.532779 0.888644 -0.032988
C19   C     C_R   0.064713 0.481741 0.950843 0.002799
C20   C     C_R   0.315597 0.591756 0.922746 -0.051680
C21   C     C_R   0.388099 0.591563 0.012198 -0.093155
C22   C     C_R   0.301398 0.540126 0.074164 -0.030523
C23   C     C_3   0.172119 0.797965 0.127807 -0.301375
C24   C     C_R   0.135476 0.488006 0.044227 0.007448
C25   C     C_R   0.372679 0.544260 0.166396 0.027469
C26   C     C_R   0.929572 0.462051 0.766316 -0.279352
C27   C     C_R   0.770775 0.181506 0.540448 -0.278961
C28   C     C_R   0.422447 0.809664 0.466985 -0.285828
C29   C     C_R   0.385959 0.988701 0.441482 -0.003702
C30   C     C_R   0.322084 0.880493 0.436509 0.008373
C31   C     C_R   0.582829 0.847523 0.512554 0.080224
C32   C     C_R   0.648316 0.959629 0.523394 -0.060366
C33   C     C_R   0.548949 0.030185 0.484473 -0.070953
C34   C     C_3   0.272543 0.779054 0.651378 0.253530
C35   C     C_R   0.614002 0.140639 0.491020 0.033158
C36   C     C_R   0.871307 0.113599 0.577067 -0.007372
C37   C     C_R   0.809740 0.003619 0.570063 -0.095409
C38   C     C_3   0.269162 0.899344 0.662884 -0.386812
C39   C     C_3   0.930168 0.223913 0.354574 0.295316
C40   C     C_3   0.894177 0.102572 0.335625 -0.398813
C41   C     C_3   0.866480 0.799218 0.737123 0.351405
C42   C     C_3   0.914125 0.905853 0.800389 -0.403362
H1    H     H_    0.780448 0.802367 0.277136 0.102989
H2    H     H_    0.378655 0.943153 0.639173 0.073068
H3    H     H_    0.156664 0.916039 0.621472 0.111839
H4    H     H_    0.266968 0.930520 0.734804 0.150641
H5    H     H_    0.825059 0.254026 0.381430 0.010852
H6    H     H_    0.043652 0.247551 0.405647 0.086249
H7    H     H_    0.776812 0.077290 0.287469 0.113128
H8    H     H_    0.880887 0.067129 0.398708 0.097954
H9    H     H_    0.998798 0.072983 0.306522 0.144268
H10   H     H_    0.962882 0.798052 0.693057 0.059528
H11   H     H_    0.868489 0.951425 0.182069 0.099840
H12   H     H_    0.924360 0.973634 0.759925 0.110828
H13   H     H_    0.037104 0.909504 0.842425 0.092820
H14   H     H_    0.820804 0.916101 0.846308 0.118259
H15   H     H_    0.643099 0.896577 0.269040 0.072269
H16   H     H_    0.290949 0.290644 0.290754 0.015878
H17   H     H_    0.501603 0.354764 0.284378 0.038328
H18   H     H_    0.293572 0.170166 0.147662 0.145307
H19   H     H_    0.326111 0.309744 0.131775 0.051610
H20   H     H_    0.500984 0.239864 0.141752 0.111128
H21   H     H_    0.846633 0.817998 0.128005 0.113402
H22   H     H_    0.282012 0.783278 0.095895 0.103123
H23   H     H_    0.188312 0.302965 0.791457 0.089863
H24   H     H_    0.981583 0.226011 0.785249 -0.063814
H25   H     H_    0.130740 0.258995 0.942441 0.073286
H26   H     H_    0.092785 0.117655 0.900079 0.107043
H27   H     H_    0.297723 0.195933 0.906495 0.151973
H28   H     H_    0.712541 0.199352 0.720093 -0.066195
H29   H     H_    0.494518 0.147264 0.682753 0.090296
H30   H     H_    0.645972 0.006522 0.731736 0.090486
H31   H     H_    0.503066 0.034438 0.808945 0.130907
H32   H     H_    0.274564 0.761610 0.256497 -0.076262
H33   H     H_    0.721901 0.086406 0.841744 0.111166
H34   H     H_    0.799803 0.352502 0.119981 0.092508
H35   H     H_    0.680469 0.343296 0.964822 0.103142
H36   H     H_    0.512061 0.634646 0.032893 0.095935
H37   H     H_    0.387382 0.637640 0.880757 0.094617
H38   H     H_    0.327605 0.514561 0.299519 0.068665
H39   H     H_    0.876866 0.453380 0.695247 0.078249
H40   H     H_    0.305359 0.038877 0.411513 0.121372
H41   H     H_    0.890645 0.953954 0.599599 0.081248
H42   H     H_    0.819505 0.266221 0.545210 0.059940
H43   H     H_    0.371522 0.725046 0.459886 0.061492
H44   H     H_    0.078932 0.723129 0.114235 0.046565
H45   H     H_    0.120719 0.863813 0.097354 0.088702
H46   H     H_    0.397559 0.764948 0.641332 0.054817
H47   H     H_    0.182789 0.742282 0.589835 0.059775
O1    O     O_2   0.827880 0.435260 0.277750 -0.477493
O2    O     O_3   0.704914 0.788983 0.689669 -0.647178
O3    O     O_3   0.080674 0.850868 0.268511 -0.650833
O4    O     O_2   0.361830 0.564780 0.722310 -0.455523
O5    O     O_3   0.089430 0.561130 0.608830 -0.496954
O6    O     O_3   0.564130 0.365960 0.666760 -0.468716
O7    O     O_3   0.234933 0.736841 0.730165 -0.654523
O8    O     O_3   0.601940 0.368240 0.453770 -0.480733
O9    O     O_3   0.133170 0.309040 0.621000 -0.482678
O10   O     O_2   0.206796 0.119308 0.565511 -0.496474
O11   O     O_3   0.155972 0.143734 0.733588 -0.600782
O12   O     O_3   0.100280 0.438960 0.391170 -0.498383
O13   O     O_3   0.587780 0.631850 0.546230 -0.464426
O14   O     O_2   0.332590 0.233690 0.456160 -0.480021
O15   O     O_3   0.472975 0.195922 0.309159 -0.615272
O16   O     O_2   0.487416 0.436458 0.826547 -0.496712
O17   O     O_3   0.545574 0.240436 0.808046 -0.598655
O18   O     O_3   0.625580 0.634130 0.333250 -0.476552
O19   O     O_2   0.726608 0.594348 0.170512 -0.509145
O20   O     O_3   0.951227 0.263492 0.272861 -0.641040
O21   O     O_3   0.554300 0.753156 0.189635 -0.636963
O22   O     O_2   0.857130 0.766340 0.543890 -0.504532
O23   O     O_3   0.056550 0.691050 0.379010 -0.477196
O24   O     O_2   0.977170 0.882149 0.426428 -0.512142
P1    P     P_3+3 0.998730 0.403530 0.291970 0.968667
P2    P     P_3+3 0.687380 0.751030 0.571310 0.970405
P3    P     P_3+3 0.109102 0.828701 0.382052 0.941483
P4    P     P_3+3 0.190990 0.596560 0.708040 0.961154
P5    P     P_3+3 0.090029 0.170391 0.623610 0.936993
P6    P     P_3+3 0.577203 0.624544 0.215236 0.931717
P7    P     P_3+3 0.508566 0.232861 0.427027 0.950488
P8    P     P_3+3 0.607494 0.370206 0.784082 0.950820
C43   C     C_3   0.870304 0.704714 0.789801 -0.113173
C44   C     C_3   0.747890 0.695824 0.858824 -0.194351
C45   C     C_3   0.841111 0.716386 0.955083 -0.484390
H48   H     H_    0.752618 0.702682 0.003186 0.145153
H49   H     H_    0.930577 0.660499 0.964344 0.149153
H50   H     H_    0.909752 0.799825 0.969607 0.130951
H51   H     H_    0.656425 0.751306 0.851001 0.139573
H52   H     H_    0.675977 0.613552 0.847978 0.140094
H53   H     H_    0.835203 0.633428 0.737571 0.037262
H54   H     H_    0.999387 0.708649 0.823802 0.057379
C46   C     C_3   0.658483 0.903489 0.073323 -0.195299
C47   C     C_3   0.587968 0.006756 0.093826 -0.187180
C48   C     C_3   0.451927 0.015504 0.016589 -0.414676
H55   H     H_    0.338492 0.956539 0.017949 0.138988
H56   H     H_    0.420046 0.097097 0.022527 0.125554
H57   H     H_    0.495262 0.999266 0.950382 0.131962
H58   H     H_    0.535605 0.008392 0.158251 0.212952
H59   H     H_    0.689310 0.077053 0.100781 0.117290
H60   H     H_    0.729877 0.913972 0.016029 0.094469
H61   H     H_    0.556431 0.834507 0.049255 0.149190
F1    F     F_    0.339749 0.920845 0.245312 -0.760459

loop_
_geom_bond_atom_site_label_1
_geom_bond_atom_site_label_2
_ccdc_geom_bond_type
C38   H3    S    
C19   C24   A    
C31   P2    S    
C45   H48   S    
O3    P3    S    
C39   C40   S    
O5    P4    S    
C17   C18   A    
C22   C25   A    
O16   P8    D    
O18   P6    S    
Ba1   O8    S    
C25   P6    S    
O7    P4    S    
C7    O17   S    
C38   H2    S    
C6    H25   S    
Ba1   O22   S    
C43   H54   S    
Ba2   O12   S    
Ba2   O4    S    
C33   C35   A    
C22   C24   A    
C32   C33   A    
C40   H9    S    
C36   C37   A    
C13   H34   S    
C13   C14   A    
C43   H53   S    
Ba1   Ba2   S    
C4    H20   S    
C42   H12   S    
C34   C38   S    
Ba1   O18   S    
C46   H61   S    
C1    H11   S    
C44   H51   S    
C10   C14   A    
Ba2   O6    S    
C42   H14   S    
C5    O11   S    
C27   C36   A    
C21   C22   A    
C7    H28   S    
O20   P1    S    
O9    P5    S    
Ba1   P1    S    
C21   H36   S    
C7    C8    S    
Ba1   O12   S    
C3    H16   S    
C40   H7    S    
C3    O15   S    
C36   P5    S    
C5    H24   S    
C17   P4    S    
C26   H39   S    
C1    H21   S    
C7    H29   S    
C48   H57   S    
C16   H38   S    
C39   H5    S    
C8    H33   S    
C31   C32   A    
C2    H1    S    
C47   H58   S    
C12   F1    S    
C16   C25   A    
C32   C37   A    
C20   H37   S    
C47   C48   S    
C48   H56   S    
C45   H50   S    
O4    P4    D    
C5    H23   S    
C10   C19   A    
C23   H44   S    
C29   H40   S    
C12   H32   S    
C4    H19   S    
C41   C42   S    
C46   H60   S    
C8    H31   S    
C44   H52   S    
C41   H10   S    
C29   C30   A    
Ba2   O13   S    
C42   H13   S    
Ba2   P4    S    
O24   P3    D    
O15   P7    S    
C15   C16   A    
C3    H17   S    
Ba1   P2    S    
C17   C26   A    
O1    P1    D    
Ba1   O13   S    
C27   H42   S    
O23   P3    S    
O8    P7    S    
O22   P2    D    
C34   H47   S    
C18   C20   A    
Ba2   O8    S    
Ba1   O1    S    
C11   C13   A    
C44   C45   S    
C29   C33   A    
C11   C24   A    
Ba1   O23   S    
C37   H41   S    
O17   P8    S    
C1    C2    S    
C39   H6    S    
O11   P5    S    
O13   P2    S    
C34   H46   S    
C38   H4    S    
C6    H27   S    
C45   H49   S    
C28   C31   A    
O10   P5    D    
C23   H45   S    
C9    P8    S    
C23   H22   S    
C30   P3    S    
C48   H55   S    
C9    C10   A    
C46   C47   S    
Ba2   O14   S    
C6    H26   S    
O2    P2    S    
C11   C15   A    
C14   H35   S    
C1    C46   S    
Ba2   O5    S    
O12   P1    S    
O21   P6    S    
O19   P6    D    
C28   C30   A    
C8    H30   S    
C4    H18   S    
C3    C4    S    
C9    C26   A    
Ba1   O5    S    
C2    H15   S    
C41   O2    S    
O14   P7    D    
C12   C23   S    
C2    O21   S    
C5    C6    S    
Ba2   O9    S    
C35   P7    S    
C47   H59   S    
C18   C19   A    
O6    P8    S    
C39   O20   S    
C27   C35   A    
C20   C21   A    
C34   O7    S    
C28   H43   S    
C41   C43   S    
C12   O3    S    
C15   P1    S    
C40   H8    S    
C43   C44   S    
