data_mof_unit_30664.cif
_audit_creation_date              2012-12-10T17:10:22-0500
_audit_creation_method            fapswitch 2.2
_symmetry_space_group_name_H-M    P1
_symmetry_Int_Tables_number       1
_space_group_crystal_system       triclinic
_cell_length_a                    10.828266
_cell_length_b                    13.017018
_cell_length_c                    11.624465
_cell_angle_alpha                 100.159734
_cell_angle_beta                  94.272065
_cell_angle_gamma                 90.169515
_cell_volume                      1608.09933387

loop_
_atom_site_label
_atom_site_type_symbol
_atom_type_description
_atom_site_fract_x
_atom_site_fract_y
_atom_site_fract_z
_atom_type_partial_charge
C1    C     C_R   0.498290 0.298784 0.478152 0.844527
C2    C     C_R   0.501710 0.701216 0.521848 0.844526
C3    C     C_R   0.502357 0.814886 0.535210 -0.184635
C4    C     C_R   0.497643 0.185114 0.464790 -0.184635
C5    C     C_R   0.491972 0.013267 0.343245 -0.230252
C6    C     C_R   0.508028 0.986733 0.656755 -0.230252
C7    C     C_R   0.492133 0.121231 0.353121 0.612331
C8    C     C_R   0.507867 0.878769 0.646879 0.612331
C9    C     C_R   0.502865 0.139681 0.565608 -0.300530
C10   C     C_R   0.497135 0.860319 0.434391 -0.300530
C11   C     C_R   0.502739 0.031822 0.555987 0.071219
C12   C     C_R   0.497261 0.968177 0.444013 0.071219
C13   C     C_R   0.371809 0.412878 0.021467 -0.267075
C14   C     C_R   0.628190 0.587121 0.978533 -0.267075
C15   C     C_R   0.385546 0.419775 0.143828 0.137654
C16   C     C_R   0.614454 0.580225 0.856172 0.137654
C17   C     C_R   0.557059 0.535940 0.157283 0.059335
C18   C     C_R   0.442941 0.464060 0.842717 0.059335
C19   C     C_R   0.547035 0.531161 0.034339 0.078187
C20   C     C_R   0.452965 0.468839 0.965661 0.078187
C21   C     C_R   0.262441 0.513171 0.501246 0.800379
C22   C     C_R   0.737559 0.486829 0.498754 0.800380
C23   C     C_R   0.130862 0.574165 0.718514 -0.211818
C24   C     C_R   0.869138 0.425835 0.281486 -0.211818
C25   C     C_R   0.081988 0.561716 0.822785 0.630536
C26   C     C_R   0.918012 0.438283 0.177215 0.630536
C27   C     C_R   0.971537 0.506402 0.819349 -0.233497
C28   C     C_R   0.028463 0.493597 0.180651 -0.233498
C29   C     C_R   0.905112 0.471208 0.712218 -0.228640
C30   C     C_R   0.094888 0.528791 0.287782 -0.228640
C31   C     C_R   0.947890 0.491837 0.606037 0.082877
C32   C     C_R   0.052109 0.508163 0.393963 0.082877
C33   C     C_R   0.069694 0.530823 0.608498 -0.013695
C34   C     C_R   0.930306 0.469177 0.391502 -0.013694
C35   C     C_R   0.873549 0.473959 0.498240 -0.161903
C36   C     C_R   0.126451 0.526041 0.501760 -0.161903
Cu1   Cu    Cu3+1 0.509250 0.507730 0.615930 0.972701
Cu2   Cu    Cu3+1 0.490750 0.492270 0.384070 0.972701
H1    H     H_    0.064155 0.507667 0.100250 0.206229
H2    H     H_    0.935845 0.492332 0.899750 0.206229
H3    H     H_    0.298242 0.364355 0.971089 0.150673
H4    H     H_    0.701758 0.635645 0.028911 0.150673
H5    H     H_    0.215288 0.620086 0.725105 0.193202
H6    H     H_    0.784711 0.379914 0.274895 0.193202
H7    H     H_    0.822157 0.425252 0.713678 0.193654
H8    H     H_    0.177843 0.574748 0.286322 0.193654
H9    H     H_    0.492990 0.811921 0.348042 0.185449
H10   H     H_    0.507010 0.188079 0.651958 0.185449
H11   H     H_    0.487771 0.965003 0.256883 0.176102
H12   H     H_    0.512229 0.034997 0.743117 0.176102
H13   H     H_    0.371490 0.415728 0.788901 0.126165
H14   H     H_    0.628510 0.584272 0.211099 0.126165
H15   H     H_    0.677558 0.623432 0.813899 0.151911
H16   H     H_    0.322442 0.376568 0.186101 0.151911
N1    N     N_R   0.523180 0.519350 0.790130 -0.196263
N2    N     N_R   0.476820 0.480650 0.209870 -0.196263
O1    O     O_R   0.506570 0.354460 0.582000 -0.605523
O2    O     O_R   0.493430 0.645540 0.418000 -0.605522
O3    O     O_R   0.490940 0.341410 0.386200 -0.521338
O4    O     O_R   0.509060 0.658590 0.613800 -0.521338
O5    O     O_R   0.327470 0.506520 0.597900 -0.592302
O6    O     O_R   0.672530 0.493480 0.402100 -0.592303
O7    O     O_R   0.311840 0.493460 0.402100 -0.598099
O8    O     O_R   0.688160 0.506540 0.597900 -0.598099
F1    F     F_    0.143738 0.601126 0.927109 -0.680420
F2    F     F_    0.856262 0.398874 0.072891 -0.680420
F3    F     F_    0.512851 0.837579 0.746575 -0.647141
F4    F     F_    0.487149 0.162420 0.253425 -0.647141

loop_
_geom_bond_atom_site_label_1
_geom_bond_atom_site_label_2
_ccdc_geom_bond_type
C18   C20   A    
Cu1   O5    S    
C11   C12   A    
C2    O2    A    
Cu1   O1    S    
Cu1   Cu2   S    
C14   C16   A    
C1    O1    A    
C22   O6    A    
C21   O5    A    
C19   C20   A    
C13   C20   A    
C13   C15   A    
C27   H2    S    
C14   H4    S    
C1    C4    S    
C15   N2    A    
C33   C36   A    
C31   C33   A    
C2    C3    S    
C7    F4    S    
C16   N1    A    
Cu2   N2    S    
C28   C30   A    
C29   C31   A    
C21   C36   S    
C6    H12   S    
C30   C32   A    
C22   C35   S    
C9    C11   A    
C17   N2    A    
C5    H11   S    
C10   C12   A    
C18   N1    A    
C9    H10   S    
C4    C7    A    
C32   C36   A    
C17   H14   S    
C13   H3    S    
C17   C19   A    
C1    O3    A    
C24   C26   A    
C18   H13   S    
Cu2   O7    S    
C31   C35   A    
C23   C25   A    
C3    C8    A    
C24   H6    S    
C2    O4    A    
C21   O7    A    
Cu1   O4    S    
C25   C27   A    
C5    C12   A    
C22   O8    A    
Cu2   O3    S    
C26   F2    S    
C15   H16   S    
C6    C11   A    
Cu1   O8    S    
C25   F1    S    
C27   C29   A    
C8    F3    S    
C5    C7    A    
C34   C35   A    
C10   H9    S    
C3    C10   A    
C16   H15   S    
C6    C8    A    
C28   H1    S    
Cu2   O6    S    
C4    C9    A    
Cu2   O2    S    
C23   H5    S    
C26   C28   A    
C14   C19   A    
C30   H8    S    
C24   C34   A    
C29   H7    S    
C32   C34   A    
C23   C33   A    
Cu1   N1    S    
