data_mof_unit_29724.cif
_audit_creation_date              2013-03-05T15:58:17-0500
_audit_creation_method            fapswitch 2.2
_symmetry_space_group_name_H-M    P1
_symmetry_Int_Tables_number       1
_space_group_crystal_system       triclinic
_cell_length_a                    12.57723
_cell_length_b                    12.91448
_cell_length_c                    15.415195
_cell_angle_alpha                 84.946706
_cell_angle_beta                  99.234912
_cell_angle_gamma                 96.045215
_cell_volume                      2451.19747676

loop_
_atom_site_label
_atom_site_type_symbol
_atom_site_description
_atom_site_fract_x
_atom_site_fract_y
_atom_site_fract_z
_atom_type_partial_charge
O1    O     O_R   0.374950 0.371210 0.521360 -0.571817
O2    O     O_R   0.542050 0.338030 0.492790 -0.617870
C1    C     C_R   0.442438 0.307069 0.506328 0.969340
O3    O     O_R   0.368720 0.526070 0.390200 -0.572986
O4    O     O_R   0.535820 0.492890 0.361630 -0.566445
C2    C     C_R   0.435552 0.517201 0.335636 0.949708
Zn1   Zn    Zn3+2 0.388420 0.522150 0.519080 1.062249
Zn2   Zn    Zn3+2 0.611580 0.477850 0.480920 1.000035
O5    O     O_R   0.457950 0.661970 0.507210 -0.627376
O6    O     O_R   0.625050 0.628790 0.478640 -0.631867
O7    O     O_R   0.464180 0.507110 0.638370 -0.581871
O8    O     O_R   0.631280 0.473930 0.609800 -0.636480
C3    C     C_R   0.552951 0.693017 0.484893 0.850479
C4    C     C_R   0.564023 0.483335 0.665053 0.933405
C5    C     C_R   0.397079 0.540563 0.241259 -0.148750
C6    C     C_R   0.604394 0.480073 0.761107 -0.240040
C7    C     C_R   0.254358 0.553496 0.114081 -0.170389
C8    C     C_R   0.286162 0.537660 0.205889 0.334459
C9    C     C_R   0.474555 0.565298 0.186255 -0.199830
C10   C     C_R   0.446554 0.578474 0.094884 0.079791
C11   C     C_R   0.334796 0.576129 0.057742 -0.084377
C12   C     C_R   0.527147 0.582615 0.039303 0.098366
C13   C     C_R   0.493539 0.569409 0.949248 0.006281
C14   C     C_R   0.387678 0.589688 0.912394 -0.219832
C15   C     C_R   0.308674 0.594590 0.965105 0.258907
C16   C     C_R   0.639497 0.593602 0.070349 -0.144740
C17   C     C_R   0.714034 0.578366 0.016194 -0.092377
C18   C     C_R   0.679230 0.546468 0.930753 -0.003287
C19   C     C_R   0.567204 0.538712 0.897824 0.000493
C20   C     C_R   0.753207 0.514442 0.880810 0.329988
C21   C     C_R   0.716036 0.479675 0.795736 -0.149528
C22   C     C_R   0.530405 0.491869 0.818114 -0.118430
H1    H     H_    0.798914 0.586257 0.043917 0.216945
H2    H     H_    0.557702 0.569241 0.216544 0.192955
H3    H     H_    0.366037 0.603248 0.841801 0.208390
H4    H     H_    0.672654 0.615454 0.135807 0.160545
C23   C     C_R   0.594635 0.929539 0.327863 -0.014292
H5    H     H_    0.654331 0.778120 0.345029 0.143981
H6    H     H_    0.633079 0.951328 0.270138 0.191952
C24   C     C_R   0.566669 0.802334 0.450440 -0.030122
C25   C     C_R   0.337574 0.149010 0.569319 -0.123453
C26   C     C_R   0.287529 0.047698 0.559708 -0.219991
C27   C     C_R   0.320832 0.984344 0.502172 0.374075
C28   C     C_R   0.409212 0.024157 0.459656 -0.079204
C29   C     C_R   0.426557 0.131547 0.442047 -0.076056
C30   C     C_R   0.479399 0.962444 0.431837 0.085411
C31   C     C_R   0.526930 0.996057 0.356494 0.102098
C32   C     C_R   0.500465 0.093081 0.311358 -0.090852
C33   C     C_R   0.456356 0.166022 0.358121 0.269399
C34   C     C_R   0.506294 0.871031 0.481273 -0.118411
C35   C     C_R   0.611539 0.831963 0.373143 -0.147774
C36   C     C_R   0.402251 0.195486 0.505473 -0.079215
H7    H     H_    0.474242 0.849927 0.541976 0.183670
H8    H     H_    0.226391 0.016533 0.599606 0.215683
C37   C     C_R   0.138055 0.656697 0.620293 0.287593
N1    N     N_R   0.239390 0.551900 0.544730 -0.145589
C38   C     C_R   0.765144 0.362068 0.411766 0.361208
C39   C     C_R   0.854529 0.302003 0.435284 0.128178
C40   C     C_R   0.946476 0.343187 0.489904 -0.138186
C41   C     C_R   0.950875 0.448110 0.510671 0.013754
C42   C     C_R   0.852915 0.496574 0.498500 -0.039546
C43   C     C_R   0.048198 0.509311 0.540134 -0.006865
C44   C     C_R   0.041986 0.597518 0.587530 -0.115234
C45   C     C_R   0.937902 0.628150 0.591385 0.325028
C46   C     C_R   0.855802 0.597959 0.523987 -0.074129
C47   C     C_R   0.148366 0.490690 0.517084 0.116400
C48   C     C_R   0.236996 0.631639 0.598736 0.041290
N2    N     N_R   0.759950 0.448600 0.455730 -0.187362
H9    H     H_    0.154182 0.429814 0.474689 0.157414
N3    N     N_R   0.203705 0.619674 0.922818 0.210973
O9    O     O_R   0.163368 0.701376 0.943309 -0.255397
O10   O     O_R   0.153068 0.567004 0.857900 -0.277824
N4    N     N_R   0.865060 0.513102 0.918082 0.232936
O11   O     O_R   0.904043 0.425113 0.947434 -0.337263
O12   O     O_R   0.926493 0.600253 0.926576 -0.259724
C49   C     C_2   0.505869 0.110802 0.215178 0.537773
H10   H     H_    0.522906 0.187675 0.184166 0.170109
O13   O     O_2   0.488031 0.037920 0.167894 -0.554176
C50   C     C_2   0.322160 0.200629 0.647637 0.526285
H11   H     H_    0.250599 0.178614 0.678534 0.129455
O14   O     O_2   0.392782 0.262410 0.682318 -0.577296
N5    N     N_R   0.253919 0.891240 0.475148 0.231410
O15   O     O_R   0.283007 0.831668 0.420985 -0.357899
O16   O     O_R   0.153167 0.880081 0.486799 -0.294657
N6    N     N_R   0.415257 0.259781 0.313671 0.177807
O17   O     O_R   0.465964 0.316616 0.256690 -0.386285
O18   O     O_R   0.320118 0.283119 0.323919 -0.371790
C51   C     C_2   0.337570 0.694781 0.634638 0.508325
H12   H     H_    0.410772 0.660355 0.660591 0.105966
O19   O     O_2   0.339176 0.788835 0.638667 -0.574624
C52   C     C_2   0.426619 0.423682 0.810327 0.520512
H13   H     H_    0.419406 0.355624 0.856301 0.095158
O20   O     O_2   0.347742 0.445187 0.757148 -0.516506
N7    N     N_R   0.913002 0.686708 0.659732 0.259020
O21   O     O_R   0.827222 0.737718 0.645852 -0.326289
O22   O     O_R   0.959661 0.669437 0.740595 -0.216650
N8    N     N_R   0.136321 0.744759 0.671260 0.266486
O23   O     O_R   0.084642 0.824552 0.637685 -0.273280
O24   O     O_R   0.191562 0.748020 0.750037 -0.269929
N9    N     N_R   0.694804 0.347708 0.330192 0.245975
O25   O     O_R   0.678665 0.429462 0.276073 -0.379297
O26   O     O_R   0.679596 0.257189 0.297457 -0.376033
C53   C     C_2   0.030058 0.273052 0.531390 0.452742
H14   H     H_    0.041841 0.203662 0.500674 0.137959
O27   O     O_2   0.083559 0.289682 0.603006 -0.552288
N10   N     N_R   0.851653 0.200056 0.404421 0.232523
O28   O     O_R   0.781964 0.125415 0.428156 -0.340990
O29   O     O_R   0.919133 0.181426 0.353211 -0.305300
C54   C     C_2   0.826523 0.679251 0.452561 0.523698
H15   H     H_    0.787136 0.656423 0.388193 0.056141
O30   O     O_2   0.848190 0.772065 0.463740 -0.478480
C55   C     C_2   0.790510 0.432518 0.747463 0.545167
H16   H     H_    0.758996 0.372431 0.702760 0.072539
O31   O     O_2   0.887672 0.457842 0.758002 -0.458997
C56   C     C_2   0.137936 0.531919 0.078377 0.649520
H17   H     H_    0.114017 0.483970 0.022968 0.120536
O32   O     O_2   0.068040 0.567612 0.110278 -0.453494
N11   N     N_R   0.205214 0.513348 0.262292 0.228953
O33   O     O_R   0.172465 0.587796 0.300104 -0.315702
O34   O     O_R   0.153117 0.420900 0.265054 -0.312691

loop_
_geom_bond_atom_site_label_1
_geom_bond_atom_site_label_2
_geom_bond_distance
_ccdc_geom_bond_type
C5    C8    1.411817 A    
N4    O11   1.300743 A    
C32   C49   1.491480 S    
C9    C10   1.395722 A    
C55   O31   1.219911 D    
N8    O23   1.300532 A    
N6    O17   1.297949 A    
C17   H1    1.082136 S    
C6    C21   1.420235 A    
C5    C9    1.386509 A    
C48   C51   1.486221 S    
C13   C19   1.418608 A    
C18   C19   1.415121 A    
C49   O13   1.221241 D    
C19   C22   1.406918 A    
C54   O30   1.221972 D    
C20   C21   1.415190 A    
C23   C35   1.405073 A    
O7    C4    1.316645 A    
N1    C47   1.352501 A    
C47   H9    1.080975 S    
N10   O28   1.301590 A    
C56   H17   1.083972 S    
C41   C43   1.417845 A    
C25   C26   1.400286 A    
O5    C3    1.309003 A    
N11   O33   1.301151 A    
C3    C24   1.466619 S    
C2    C5    1.472826 S    
C56   O32   1.221133 D    
C37   C44   1.405963 A    
C21   C55   1.491873 S    
N3    O9    1.301303 A    
C23   C31   1.413986 A    
C8    N11   1.435188 S    
C25   C36   1.428517 A    
C40   C41   1.413000 A    
N4    O12   1.300474 A    
Zn1   N1    2.057571 S    
O3    Zn1   1.959056 S    
C55   H16   1.084385 S    
N8    O24   1.300467 A    
C28   C30   1.388613 A    
N6    O18   1.301006 A    
C34   H7    1.079555 S    
C43   C47   1.412034 A    
C14   H3    1.081822 S    
C33   N6    1.440441 S    
C14   C15   1.390344 A    
O3    C2    1.300510 A    
C52   H13   1.084946 S    
C50   O14   1.218529 D    
C20   N4    1.432991 S    
H5    C35   1.080646 S    
C29   C36   1.422178 A    
C39   C40   1.402137 A    
C38   N9    1.431007 S    
O6    C3    1.311556 A    
C7    C11   1.427650 A    
C50   H11   1.085172 S    
C41   C42   1.418623 A    
O1    C1    1.305897 A    
Zn1   O7    1.934116 S    
C27   C28   1.408399 A    
C43   C44   1.421705 A    
C52   O20   1.220740 D    
C31   C32   1.422978 A    
C29   C33   1.425295 A    
Zn2   O8    1.959056 S    
C37   N8    1.441966 S    
N9    O26   1.297554 A    
C7    C8    1.410425 A    
C16   C17   1.390476 A    
C53   O27   1.220897 D    
C49   H10   1.079122 S    
N7    O22   1.300676 A    
C46   C54   1.482469 S    
C16   H4    1.077982 S    
C32   C33   1.439721 A    
C10   C12   1.422566 A    
Zn2   N2    2.045150 S    
N5    O16   1.299541 A    
C4    C6    1.484664 S    
C26   C27   1.396703 A    
C38   N2    1.369460 A    
N1    C48   1.385660 A    
C17   C18   1.403069 A    
C28   C29   1.390569 A    
C7    C56   1.485614 S    
Zn1   O5    1.928558 S    
C11   C15   1.417728 A    
C30   C31   1.405033 A    
C10   C11   1.428371 A    
O1    Zn1   1.936501 S    
O2    Zn2   1.928559 S    
C51   O19   1.219579 D    
C9    H2    1.072589 S    
C25   C50   1.477709 S    
O4    Zn2   1.934116 S    
C37   C48   1.414285 A    
C1    C36   1.476485 S    
C6    C22   1.406175 A    
C24   C35   1.405235 A    
C30   C34   1.389867 A    
C40   C53   1.489022 S    
C45   C46   1.392806 A    
C18   C20   1.412987 A    
O2    C1    1.317866 A    
O8    C4    1.314111 A    
C45   N7    1.440896 S    
C23   H6    1.081725 S    
C54   H15   1.086215 S    
C26   H8    1.083751 S    
C42   N2    1.362946 A    
C38   C39   1.414329 A    
O4    C2    1.322317 A    
N10   O29   1.301110 A    
C24   C34   1.386230 A    
N9    O25   1.299050 A    
N7    O21   1.301720 A    
N11   O34   1.300698 A    
C13   C14   1.403033 A    
C44   C45   1.418428 A    
C22   C52   1.489970 S    
C42   C46   1.395007 A    
C51   H12   1.068657 S    
Zn2   O6    1.936500 S    
N5    O15   1.301289 A    
C12   C16   1.413702 A    
C53   H14   1.083728 S    
C27   N5    1.445717 S    
C12   C13   1.404669 A    
N3    O10   1.301479 A    
C15   N3    1.431609 S    
C39   N10   1.433835 S    
