data_mof_unit_30966.cif
_audit_creation_date              2012-12-10T18:01:19-0500
_audit_creation_method            fapswitch 2.2
_symmetry_space_group_name_H-M    P1
_symmetry_Int_Tables_number       1
_space_group_crystal_system       triclinic
_cell_length_a                    9.492918
_cell_length_b                    10.828478
_cell_length_c                    17.224544
_cell_angle_alpha                 90.47495
_cell_angle_beta                  85.549606
_cell_angle_gamma                 89.943118
_cell_volume                      1765.17574399

loop_
_atom_site_label
_atom_site_type_symbol
_atom_type_description
_atom_site_fract_x
_atom_site_fract_y
_atom_site_fract_z
_atom_type_partial_charge
C1    C     C_R   0.500007 0.737996 0.499966 0.782946
C2    C     C_R   0.499993 0.262004 0.500034 0.782948
C3    C     C_R   0.627679 0.936045 0.502045 -0.197158
C4    C     C_R   0.372320 0.063955 0.497957 -0.197157
C5    C     C_R   0.627711 0.063771 0.502079 -0.189489
C6    C     C_R   0.372289 0.936229 0.497923 -0.189489
C7    C     C_R   0.500021 0.128201 0.500054 -0.013322
C8    C     C_R   0.499979 0.871799 0.499948 -0.013322
C9    C     C_R   0.918336 0.573570 0.550712 -0.028368
C10   C     C_R   0.081664 0.426430 0.449288 -0.028368
C11   C     C_R   0.067346 0.573500 0.550709 -0.006992
C12   C     C_R   0.932654 0.426500 0.449291 -0.006991
C13   C     C_R   0.480872 0.499950 0.650390 0.796981
C14   C     C_R   0.519128 0.500051 0.349610 0.796982
C15   C     C_R   0.469151 0.507809 0.735733 -0.073691
C16   C     C_R   0.530849 0.492197 0.264267 -0.073689
C17   C     C_R   0.580697 0.563482 0.771815 -0.309823
C18   C     C_R   0.419303 0.436526 0.228184 -0.309829
C19   C     C_R   0.574677 0.580166 0.852289 0.036118
C20   C     C_R   0.425321 0.419851 0.147708 0.036121
C21   C     C_R   0.454936 0.536582 0.897821 0.116661
C22   C     C_R   0.545060 0.463443 0.102178 0.116660
C23   C     C_R   0.341112 0.485123 0.862095 -0.198248
C24   C     C_R   0.658883 0.514900 0.137904 -0.198257
C25   C     C_R   0.347001 0.468679 0.781398 -0.017954
C26   C     C_R   0.652997 0.531334 0.218602 -0.017953
C27   C     C_2   0.450098 0.530815 0.982730 -0.078492
C28   C     C_2   0.549898 0.469216 0.017269 -0.078508
Cu1   Cu    Cu3+1 0.359340 0.499980 0.500000 0.942002
Cu2   Cu    Cu3+1 0.640660 0.500020 0.500000 0.942002
H1    H     H_    0.671851 0.597784 0.736665 0.138159
H2    H     H_    0.328151 0.402218 0.263333 0.138158
H3    H     H_    0.641946 0.432354 0.983255 0.137636
H4    H     H_    0.358050 0.567675 0.016744 0.137641
H5    H     H_    0.250116 0.451574 0.897769 0.164745
H6    H     H_    0.749878 0.548454 0.102231 0.164741
H7    H     H_    0.727448 0.887900 0.503812 0.143154
H8    H     H_    0.272551 0.112100 0.496190 0.143155
H9    H     H_    0.727516 0.111768 0.503779 0.143753
H10   H     H_    0.272483 0.888232 0.496222 0.143753
H11   H     H_    0.856290 0.632418 0.591314 0.111488
H12   H     H_    0.143710 0.367583 0.408685 0.111488
H13   H     H_    0.117953 0.632189 0.591346 0.119118
H14   H     H_    0.882047 0.367811 0.408654 0.119118
N1    N     N_R   0.147930 0.499970 0.499980 -0.155612
N2    N     N_R   0.852070 0.500030 0.500020 -0.155611
O1    O     O_R   0.381260 0.680340 0.500000 -0.591420
O2    O     O_R   0.618740 0.319660 0.500000 -0.591421
O3    O     O_R   0.618830 0.680370 0.500010 -0.586846
O4    O     O_R   0.381170 0.319630 0.499990 -0.586847
O5    O     O_R   0.367440 0.500000 0.613600 -0.571623
O6    O     O_R   0.632560 0.500000 0.386400 -0.571623
O7    O     O_R   0.605010 0.500030 0.613600 -0.588502
O8    O     O_R   0.394990 0.499970 0.386400 -0.588501
C29   C     C_R   0.773329 0.593793 0.252498 0.133029
C30   C     C_R   0.752597 0.704764 0.294876 -0.080414
C31   C     C_R   0.865613 0.760977 0.328809 -0.123107
C32   C     C_R   0.000198 0.707832 0.319950 -0.094529
C33   C     C_R   0.022218 0.598841 0.276670 -0.138656
C34   C     C_R   0.909418 0.541964 0.242910 -0.170227
H15   H     H_    0.648729 0.746695 0.302391 0.104620
H16   H     H_    0.848805 0.845661 0.362056 0.118865
H17   H     H_    0.087461 0.751159 0.346518 0.126373
H18   H     H_    0.126517 0.557986 0.269750 0.130518
H19   H     H_    0.927631 0.456713 0.210319 0.122042
C35   C     C_R   0.226669 0.406216 0.747504 0.133032
C36   C     C_R   0.090580 0.458045 0.757090 -0.170229
C37   C     C_R   0.977780 0.401163 0.723332 -0.138653
C38   C     C_R   0.999801 0.292169 0.680056 -0.094526
C39   C     C_R   0.134386 0.239025 0.671199 -0.123109
C40   C     C_R   0.247402 0.295242 0.705130 -0.080416
H20   H     H_    0.072367 0.543299 0.789678 0.122040
H21   H     H_    0.873480 0.442018 0.730251 0.130517
H22   H     H_    0.912538 0.248838 0.653490 0.126372
H23   H     H_    0.151195 0.154338 0.637956 0.118867
H24   H     H_    0.351270 0.253310 0.697618 0.104621
C41   C     C_2   0.306233 0.353567 0.114826 0.325303
H25   H     H_    0.206581 0.343735 0.149655 0.058090
O9    O     O_2   0.318831 0.305341 0.050345 -0.537122
C42   C     C_2   0.693765 0.646452 0.885170 0.325299
H26   H     H_    0.793423 0.656265 0.850347 0.058090
O10   O     O_2   0.681158 0.694701 0.949644 -0.537113

loop_
_geom_bond_atom_site_label_1
_geom_bond_atom_site_label_2
_ccdc_geom_bond_type
C29   C30   A    
C10   H12   S    
C1    C8    S    
C2    C7    S    
C26   C29   S    
C31   H16   S    
C41   H25   S    
C33   H18   S    
C24   H6    S    
C20   C41   S    
Cu1   O1    S    
Cu2   O2    S    
C19   C21   A    
C24   C26   A    
C40   H24   S    
C15   C25   A    
Cu1   O8    S    
C30   C31   A    
C36   H20   S    
C2    O4    A    
C13   O5    A    
C14   O6    A    
C37   C38   A    
C11   H13   S    
C39   C40   A    
C18   C20   A    
C35   C36   A    
C21   C27   S    
C9    N2    A    
C22   C28   S    
C29   C34   A    
C19   C42   S    
C4    C7    A    
C13   O7    A    
Cu1   O4    S    
C41   O9    D    
C27   H4    S    
C16   C26   A    
Cu2   O7    S    
C36   C37   A    
C6    H10   S    
C4    C6    A    
C3    C8    A    
C5    C7    A    
C1    O1    A    
C6    C8    A    
C2    O2    A    
C37   H21   S    
Cu1   N1    S    
C12   N2    A    
Cu1   Cu2   S    
C35   C40   A    
C10   N1    A    
C38   H22   S    
C9    C11   A    
C10   C12   A    
C42   O10   D    
C14   O8    A    
Cu2   O3    S    
C20   C22   A    
C28   H3    S    
C23   H5    S    
C13   C15   S    
C17   H1    S    
C14   C16   S    
C11   N1    A    
C18   H2    S    
C39   H23   S    
Cu1   O5    S    
C32   H17   S    
C15   C17   A    
C5    H9    S    
Cu2   O6    S    
Cu2   N2    S    
C25   C35   S    
C4    H8    S    
C42   H26   S    
C3    C5    A    
C34   H19   S    
C9    H11   S    
C21   C23   A    
C32   C33   A    
C12   H14   S    
C31   C32   A    
C17   C19   A    
C22   C24   A    
C23   C25   A    
C38   C39   A    
C33   C34   A    
C3    H7    S    
C16   C18   A    
C27   C28   D    
C30   H15   S    
C1    O3    A    
