data_mof_unit_9309.cif
_audit_creation_date              2012-12-10T17:56:17-0500
_audit_creation_method            fapswitch 2.2
_symmetry_space_group_name_H-M    P1
_symmetry_Int_Tables_number       1
_space_group_crystal_system       triclinic
_cell_length_a                    12.955901
_cell_length_b                    10.859025
_cell_length_c                    9.567151
_cell_angle_alpha                 90.719679
_cell_angle_beta                  97.673014
_cell_angle_gamma                 92.142807
_cell_volume                      1332.79380655

loop_
_atom_site_label
_atom_site_type_symbol
_atom_type_description
_atom_site_fract_x
_atom_site_fract_y
_atom_site_fract_z
_atom_type_partial_charge
C1    C     C_R   0.496884 0.262034 0.498746 0.838767
C2    C     C_R   0.498145 0.737608 0.500872 0.830353
C3    C     C_R   0.493154 0.871205 0.502738 -0.222334
C4    C     C_R   0.493845 0.127720 0.498161 -0.230202
C5    C     C_R   0.428104 0.430412 0.058110 0.491490
C6    C     C_R   0.569995 0.573279 0.940878 0.478381
C7    C     C_R   0.429281 0.429068 0.910649 -0.152366
C8    C     C_R   0.570441 0.571842 0.089064 -0.141667
C9    C     C_R   0.300233 0.498606 0.472560 0.804544
C10   C     C_R   0.699600 0.502465 0.527854 0.839394
C11   C     C_R   0.812910 0.507992 0.545502 -0.118864
C12   C     C_R   0.186681 0.490686 0.457817 -0.131718
C13   C     C_R   0.023592 0.385636 0.362091 0.456303
C14   C     C_R   0.978719 0.594022 0.660350 0.448480
C15   C     C_R   0.129936 0.408912 0.359581 -0.262166
C16   C     C_R   0.870238 0.580163 0.652909 -0.253306
C17   C     C_R   0.136611 0.551797 0.557850 -0.247249
C18   C     C_R   0.863445 0.446273 0.447368 -0.267124
C19   C     C_R   0.029309 0.534973 0.557892 0.032719
C20   C     C_R   0.971676 0.455231 0.455180 -0.009480
C21   C     C_R   0.462147 0.058318 0.373506 0.478446
C22   C     C_R   0.500197 0.939831 0.630462 0.510881
C23   C     C_R   0.473628 0.931709 0.374414 -0.329879
C24   C     C_R   0.513110 0.067036 0.626698 -0.326246
Cu1   Cu    Cu3+1 0.500000 0.500020 0.640660 0.993116
Cu2   Cu    Cu3+1 0.500000 0.499980 0.359340 1.004575
H1    H     H_    0.817631 0.391289 0.364407 0.187043
H2    H     H_    0.182077 0.611757 0.636374 0.182181
H3    H     H_    0.830885 0.629919 0.727417 0.209352
H4    H     H_    0.168886 0.357630 0.286299 0.199573
H5    H     H_    0.454154 0.880045 0.276185 0.191045
H6    H     H_    0.527446 0.118244 0.725770 0.206093
H7    H     H_    0.372317 0.372411 0.842913 0.174201
H8    H     H_    0.626384 0.629897 0.156612 0.181129
N1    N     N_R   0.500030 0.500030 0.852080 -0.218473
N2    N     N_R   0.499970 0.499970 0.147920 -0.214274
O1    O     O_R   0.499990 0.319660 0.618740 -0.599017
O2    O     O_R   0.500010 0.680340 0.381260 -0.596166
O3    O     O_R   0.499990 0.319630 0.381170 -0.507366
O4    O     O_R   0.500010 0.680370 0.618830 -0.519369
O5    O     O_R   0.349000 0.499990 0.599490 -0.606249
O6    O     O_R   0.651000 0.500010 0.400510 -0.593009
O7    O     O_R   0.348990 0.499960 0.361920 -0.531060
O8    O     O_R   0.651010 0.500040 0.638080 -0.533549
O9    O     O_3   0.971939 0.295671 0.271563 -0.619183
C25   C     C_3   0.939324 0.193732 0.349176 0.046663
H9    H     H_    0.859063 0.164105 0.301988 0.173153
H10   H     H_    0.935668 0.214534 0.462947 0.135581
C26   C     C_3   0.010736 0.086289 0.338355 -0.371941
H11   H     H_    0.005976 0.056541 0.226195 0.238381
H12   H     H_    0.092011 0.117091 0.378314 0.206796
C27   C     C_3   0.980106 0.976639 0.424484 -0.892462
H13   H     H_    0.984775 0.003482 0.537647 0.263813
H14   H     H_    0.034404 0.901151 0.414987 0.251068
H15   H     H_    0.899571 0.942127 0.384969 0.264753
O10   O     O_3   0.034230 0.672377 0.761084 -0.632434
C28   C     C_3   0.037838 0.621147 0.897171 0.037439
H16   H     H_    0.120281 0.601258 0.935273 0.171534
H17   H     H_    0.991292 0.532692 0.900903 0.151656
C29   C     C_3   0.000221 0.715118 0.997702 -0.333975
H18   H     H_    0.048597 0.801891 0.999139 0.215773
H19   H     H_    0.918045 0.736261 0.959813 0.252698
C30   C     C_3   0.006933 0.666571 0.147555 -0.873542
H20   H     H_    0.957562 0.580894 0.149284 0.277641
H21   H     H_    0.978694 0.736625 0.217384 0.256296
H22   H     H_    0.088885 0.647309 0.188899 0.257863
O11   O     O_3   0.397617 0.106955 0.263039 -0.539231
C31   C     C_3   0.292379 0.085070 0.287822 0.155122
H23   H     H_    0.257586 0.174838 0.303606 0.169209
H24   H     H_    0.283058 0.034214 0.386876 0.046503
C32   C     C_3   0.229450 0.011089 0.165054 -0.376103
H25   H     H_    0.281169 0.950507 0.113762 0.226950
H26   H     H_    0.170927 0.949773 0.207677 0.172413
C33   C     C_3   0.171374 0.093442 0.055070 -0.762270
H27   H     H_    0.132209 0.167989 0.105500 0.266775
H28   H     H_    0.110168 0.037501 0.987885 0.220401
H29   H     H_    0.225822 0.135078 0.987374 0.294487
O12   O     O_3   0.488200 0.886961 0.758683 -0.554535
C34   C     C_3   0.381602 0.850950 0.760649 0.128852
H30   H     H_    0.376984 0.794067 0.855525 0.166331
H31   H     H_    0.349650 0.791398 0.668369 0.122748
C35   C     C_3   0.311420 0.961157 0.768260 -0.456258
H32   H     H_    0.336473 0.014182 0.867682 0.249863
H33   H     H_    0.317103 0.023228 0.678149 0.215319
C36   C     C_3   0.197517 0.917470 0.760805 -0.865942
H34   H     H_    0.173062 0.860979 0.663569 0.269278
H35   H     H_    0.147404 0.998304 0.757161 0.255728
H36   H     H_    0.186330 0.861769 0.854453 0.273461
Cl1   Cl    Cl    0.328732 0.344699 0.120011 -0.664365
Cl2   Cl    Cl    0.659531 0.674708 0.875217 -0.619241

loop_
_geom_bond_atom_site_label_1
_geom_bond_atom_site_label_2
_ccdc_geom_bond_type
C14   O10   S    
C30   H21   S    
C11   C18   A    
C10   O6    A    
C3    C23   A    
C19   C20   A    
O9    C25   S    
O10   C28   S    
C25   C26   S    
C33   H28   S    
C29   C30   S    
Cu1   O4    S    
C36   H34   S    
C4    C24   A    
Cu2   O3    S    
C28   H17   S    
C5    N2    A    
C6    N1    A    
C29   H19   S    
C8    N2    A    
Cu1   O1    S    
C31   H23   S    
C26   H12   S    
C33   H29   S    
C12   C17   A    
C18   C20   A    
C27   H15   S    
C1    O1    A    
C30   H22   S    
C21   O11   S    
C7    H7    S    
Cu1   O8    S    
C27   H14   S    
Cu2   O7    S    
C36   H35   S    
C25   H10   S    
C9    O7    A    
C33   H27   S    
C10   O8    A    
O11   C31   S    
C22   O12   S    
Cu1   O5    S    
C5    C7    A    
O12   C34   S    
Cu2   O2    S    
C28   C29   S    
C6    C8    A    
C16   H3    S    
C6    Cl2   S    
C34   H30   S    
C29   H18   S    
C23   H5    S    
C24   H6    S    
C32   C33   S    
C11   C16   A    
C2    O2    A    
C12   C15   A    
C26   C27   S    
C8    H8    S    
Cu1   N1    S    
Cu2   N2    S    
C35   H32   S    
C35   H33   S    
C13   C15   A    
C14   C16   A    
C27   H13   S    
Cu2   O6    S    
C15   H4    S    
C34   H31   S    
C36   H36   S    
C25   H9    S    
C13   C20   A    
C17   H2    S    
C7    N1    A    
C14   C19   A    
C18   H1    S    
C34   C35   S    
C35   C36   S    
C9    O5    A    
C1    C4    S    
C21   C23   A    
C2    C3    S    
Cu1   Cu2   S    
C32   H25   S    
C13   O9    S    
C4    C21   A    
C28   H16   S    
C31   C32   S    
C17   C19   A    
C22   C24   A    
C9    C12   S    
C10   C11   S    
C1    O3    A    
C30   H20   S    
C2    O4    A    
C31   H24   S    
C26   H11   S    
C32   H26   S    
C3    C22   A    
C5    Cl1   S    
