data_mof_unit_40893.cif
_audit_creation_date              2012-12-10T20:36:39-0500
_audit_creation_method            fapswitch 2.2
_symmetry_space_group_name_H-M    P1
_symmetry_Int_Tables_number       1
_space_group_crystal_system       triclinic
_cell_length_a                    10.540583
_cell_length_b                    10.703065
_cell_length_c                    9.943871
_cell_angle_alpha                 88.960522
_cell_angle_beta                  89.78843
_cell_angle_gamma                 91.484401
_cell_volume                      1121.26242052

loop_
_atom_site_label
_atom_site_type_symbol
_atom_type_description
_atom_site_fract_x
_atom_site_fract_y
_atom_site_fract_z
_atom_type_partial_charge
C1    C     C_R   0.505705 0.260329 0.500691 1.031892
C2    C     C_R   0.527819 0.933890 0.620106 -0.057436
C3    C     C_3   0.439028 0.920104 0.737277 0.524339
C4    C     C_R   0.258374 0.509154 0.499800 1.047228
C5    C     C_3   0.438578 0.062238 0.739132 0.420058
C6    C     C_R   0.432545 0.410585 0.073080 0.058300
C7    C     C_R   0.584012 0.574629 0.068669 -0.196038
C8    C     C_R   0.582550 0.574060 0.924411 0.820716
C9    C     C_R   0.428281 0.414659 0.931568 -0.152472
C10   C     C_3   0.286988 0.393942 0.931308 0.285268
C11   C     C_3   0.294354 0.378904 0.083493 1.035418
C12   C     C_3   0.960386 0.434025 0.399737 -0.328346
C13   C     C_R   0.505224 0.739925 0.498918 0.910954
C14   C     C_R   0.741834 0.497911 0.499877 0.953445
C15   C     C_3   0.038840 0.584066 0.597667 0.439943
C16   C     C_3   0.959098 0.462963 0.618133 0.575915
C17   C     C_3   0.876049 0.501975 0.499226 -0.418403
C18   C     C_3   0.954633 0.623297 0.479229 -0.281562
C19   C     C_3   0.040072 0.555488 0.380146 0.663563
C20   C     C_2   0.495780 0.120101 0.862307 0.698257
C21   C     C_2   0.679169 0.656200 0.136235 0.673900
C22   C     C_2   0.210414 0.504669 0.888846 0.584037
C23   C     C_3   0.043738 0.394584 0.518946 0.536297
C24   C     C_2   0.899434 0.750002 0.460262 0.606043
C25   C     C_2   0.916471 0.350193 0.289534 0.687455
C26   C     C_3   0.123620 0.515448 0.498956 -0.476778
C27   C     C_R   0.528251 0.061649 0.621833 -0.255835
C28   C     C_R   0.529454 0.129610 0.501052 -0.262750
C29   C     C_R   0.556912 0.068683 0.380197 0.652899
C30   C     C_R   0.554414 0.939452 0.378550 0.591060
C31   C     C_R   0.527660 0.871878 0.498225 -0.359694
F1    F     F_    0.914031 0.413998 0.739312 -0.587421
F2    F     F_    0.092636 0.277197 0.540272 -0.515593
F3    F     F_    0.575787 0.132185 0.261936 -0.543364
F4    F     F_    0.567292 0.882735 0.258608 -0.575894
F5    F     F_    0.498042 0.865774 0.847198 -0.562055
F6    F     F_    0.321617 0.109236 0.705100 -0.534553
F7    F     F_    0.662129 0.650532 0.851263 -0.550718
F8    F     F_    0.249552 0.285422 0.867908 -0.524149
F9    F     F_    0.226497 0.465179 0.152426 -0.635233
F10   F     F_    0.271482 0.257696 0.129999 -0.531748
F11   F     F_    0.078998 0.666572 0.694720 -0.570074
F12   F     F_    0.079813 0.610596 0.260116 -0.511687
H1    H     H_    0.346127 0.874938 0.712001 0.162188
H2    H     H_    0.579177 0.181466 0.853864 0.021699
H3    H     H_    0.673959 0.673608 0.241679 0.114834
H4    H     H_    0.109524 0.491385 0.872678 0.165169
H5    H     H_    0.838013 0.786422 0.537203 0.078578
H6    H     H_    0.939435 0.374165 0.185672 0.106595
N1    N     N_R   0.499140 0.499140 0.142800 -0.170073
N2    N     N_R   0.499140 0.499180 0.857150 -0.170595
O1    O     O_R   0.500020 0.316790 0.614690 -0.620323
O2    O     O_2   0.767576 0.705725 0.073967 -0.408169
O3    O     O_2   0.258202 0.609761 0.880194 -0.471256
O4    O     O_2   0.922519 0.812217 0.358696 -0.426227
O5    O     O_2   0.854443 0.255063 0.316094 -0.480936
O6    O     O_R   0.500000 0.316760 0.385350 -0.551530
O7    O     O_R   0.313960 0.499990 0.614650 -0.596604
O8    O     O_R   0.313940 0.499950 0.385310 -0.526460
O9    O     O_R   0.500000 0.683240 0.614650 -0.564189
O10   O     O_R   0.499980 0.683210 0.385310 -0.602461
O11   O     O_R   0.686060 0.500050 0.614690 -0.548844
O12   O     O_R   0.686040 0.500010 0.385350 -0.691670
O13   O     O_2   0.447366 0.100203 0.972549 -0.378899
Zn1   Zn    Zn3+2 0.500010 0.500020 0.653130 1.110892
Zn2   Zn    Zn3+2 0.499990 0.499980 0.346870 1.083096

loop_
_geom_bond_atom_site_label_1
_geom_bond_atom_site_label_2
_ccdc_geom_bond_type
C12   C17   S    
C20   O13   D    
C15   C18   S    
C4    C26   S    
C29   F3    S    
C29   C30   A    
C5    F6    S    
C16   F1    S    
C9    C10   S    
C12   C25   S    
O7    Zn1   S    
C20   H2    S    
C8    N2    A    
C25   O5    D    
O6    Zn2   S    
C9    N2    A    
C6    C9    A    
C2    C3    S    
O12   Zn2   S    
C7    C8    A    
C22   O3    D    
C13   O9    A    
C7    C21   S    
C10   C22   S    
C24   O4    D    
C21   O2    D    
C1    C28   S    
N1    Zn2   S    
C14   C17   S    
C22   H4    S    
C2    C27   A    
C8    F7    S    
C3    F5    S    
C18   C24   S    
C14   O12   A    
C30   F4    S    
C12   C19   S    
C28   C29   A    
C19   F12   S    
O9    Zn1   S    
C11   F10   S    
C16   C23   S    
C1    O6    A    
O8    Zn2   S    
C11   F9    S    
C1    O1    A    
C25   H6    S    
C3    H1    S    
C16   C17   S    
C10   C11   S    
C15   C16   S    
C14   O11   A    
C27   C28   A    
C13   O10   A    
C4    O8    A    
C17   C18   S    
C18   C19   S    
N2    Zn1   S    
C23   C26   S    
C4    O7    A    
C6    C11   S    
C5    C20   S    
C19   C26   S    
C30   C31   A    
C2    C31   A    
C15   C26   S    
C12   C23   S    
O11   Zn1   S    
C3    C5    S    
C7    N1    A    
C5    C27   S    
O10   Zn2   S    
C13   C31   S    
C6    N1    A    
O1    Zn1   S    
C15   F11   S    
C10   F8    S    
C23   F2    S    
C21   H3    S    
C24   H5    S    
