data_mof_unit_38466.cif
_audit_creation_date              2013-03-05T16:36:14-0500
_audit_creation_method            fapswitch 2.2
_symmetry_space_group_name_H-M    P1
_symmetry_Int_Tables_number       1
_space_group_crystal_system       triclinic
_cell_length_a                    27.724799
_cell_length_b                    9.129101
_cell_length_c                    7.77303
_cell_angle_alpha                 90.00081
_cell_angle_beta                  90.00519
_cell_angle_gamma                 91.538803
_cell_volume                      1966.66374321

loop_
_atom_site_label
_atom_site_type_symbol
_atom_site_description
_atom_site_fract_x
_atom_site_fract_y
_atom_site_fract_z
_atom_type_partial_charge
O1    O     O_R   0.500000 0.288390 0.642760 -0.574749
O2    O     O_R   0.500000 0.711610 0.357240 -0.574663
O3    O     O_R   0.500000 0.711610 0.642760 -0.574735
O4    O     O_R   0.500000 0.288390 0.357240 -0.574655
C1    C     C_R   0.499922 0.219907 0.500000 0.851514
C2    C     C_R   0.500078 0.780093 0.500000 0.851522
O5    O     O_R   0.430260 0.500000 0.642770 -0.585660
O6    O     O_R   0.569740 0.500000 0.357230 -0.584587
O7    O     O_R   0.569740 0.500000 0.642770 -0.585666
O8    O     O_R   0.430260 0.500000 0.357230 -0.584601
C3    C     C_R   0.407051 0.497234 0.500075 0.798635
C4    C     C_R   0.592950 0.502759 0.500092 0.798628
Cu1   Cu    Cu3+1 0.500000 0.500000 0.669080 1.009804
Cu2   Cu    Cu3+1 0.500000 0.500000 0.330920 1.010423
C5    C     C_R   0.174939 0.356961 0.567234 0.601480
C6    C     C_R   0.825059 0.642969 0.567573 0.601382
C7    C     C_R   0.179138 0.601627 0.458278 0.519762
C8    C     C_R   0.820857 0.398396 0.458305 0.519788
O9    O     O_2   0.198247 0.232880 0.602308 -0.458692
O10   O     O_2   0.801748 0.766981 0.602958 -0.459065
O11   O     O_2   0.206237 0.708842 0.384048 -0.514633
O12   O     O_2   0.793753 0.291244 0.383955 -0.514686
N1    N     N_R   0.200870 0.475996 0.508169 -0.468766
N2    N     N_R   0.799128 0.523982 0.508361 -0.468728
C9    C     C_R   0.278408 0.477372 0.659554 -0.110178
C10   C     C_R   0.721589 0.522283 0.659700 -0.110183
C11   C     C_R   0.277504 0.472645 0.347812 -0.066205
C12   C     C_R   0.722497 0.527642 0.347969 -0.066227
C13   C     C_R   0.328669 0.485525 0.657913 -0.201079
C14   C     C_R   0.671329 0.514131 0.658006 -0.201057
C15   C     C_R   0.327859 0.480973 0.345809 -0.209627
C16   C     C_R   0.672143 0.519314 0.345913 -0.209618
C17   C     C_R   0.252610 0.472006 0.504757 0.346293
C18   C     C_R   0.747389 0.527973 0.504934 0.346380
C19   C     C_R   0.101417 0.491794 0.531720 -0.038884
C20   C     C_R   0.898583 0.508190 0.531794 -0.038800
C21   C     C_R   0.124243 0.361497 0.581744 -0.074523
C22   C     C_R   0.875762 0.638455 0.581942 -0.074505
C23   C     C_R   0.129015 0.617424 0.481252 -0.096950
C24   C     C_R   0.870983 0.382582 0.481246 -0.096949
C25   C     C_R   0.095145 0.240805 0.640831 -0.000374
C26   C     C_R   0.904865 0.759153 0.640994 -0.000351
C27   C     C_R   0.105105 0.751658 0.452911 -0.088238
C28   C     C_R   0.894891 0.248365 0.452777 -0.088072
C29   C     C_R   0.353888 0.488626 0.500993 -0.040188
C30   C     C_R   0.646112 0.511351 0.501061 -0.040196
H1    H     H_    0.346341 0.482246 0.223058 0.160561
H2    H     H_    0.653661 0.518299 0.223146 0.160562
H3    H     H_    0.347714 0.490542 0.779512 0.162401
H4    H     H_    0.652282 0.508850 0.779583 0.162409
H5    H     H_    0.257777 0.468923 0.227562 0.151783
H6    H     H_    0.742228 0.531609 0.227740 0.151786
H7    H     H_    0.259387 0.478025 0.781245 0.147121
H8    H     H_    0.740610 0.521376 0.781402 0.147097
C31   C     C_R   0.972499 0.368667 0.519355 0.039783
C32   C     C_R   0.027500 0.631328 0.519422 0.039847
C33   C     C_R   0.977174 0.634794 0.548024 0.029478
C34   C     C_R   0.022827 0.365190 0.547933 0.029433
C35   C     C_R   0.949415 0.503730 0.532606 0.081199
C36   C     C_R   0.050586 0.496259 0.532577 0.081201
C37   C     C_R   0.944857 0.242472 0.478151 -0.164365
C38   C     C_R   0.055140 0.757541 0.478296 -0.164455
C39   C     C_R   0.954481 0.761480 0.605188 -0.239555
C40   C     C_R   0.045523 0.238489 0.605040 -0.239469
H9    H     H_    0.962234 0.138875 0.458711 0.157149
H10   H     H_    0.037763 0.861150 0.458938 0.157129
H11   H     H_    0.976174 0.856706 0.642262 0.174782
H12   H     H_    0.023831 0.143264 0.642090 0.174836
C41   C     C_1   0.499974 0.065285 0.499999 -0.163775
C42   C     C_1   0.500026 0.934715 0.500001 -0.163778
N3    N     N_1   0.500000 0.500000 0.076820 -0.049307
N4    N     N_1   0.500000 0.500000 0.923180 -0.049428
C43   C     C_2   0.113102 0.126987 0.760176 0.936274
O13   O     O_2   0.093611 0.005165 0.764078 -0.625591
O14   O     O_R   0.149593 0.162401 0.878532 -0.706600
H13   H     H_    0.157922 0.076624 0.954798 0.369179
C44   C     C_2   0.886917 0.873012 0.760276 0.936569
O15   O     O_2   0.906303 0.994969 0.763706 -0.625694
O16   O     O_R   0.850560 0.837485 0.879071 -0.706611
H14   H     H_    0.842220 0.923295 0.955267 0.369326
C45   C     C_2   0.130477 0.891038 0.404501 0.972568
O17   O     O_2   0.116545 0.959957 0.280256 -0.550252
O18   O     O_R   0.168822 0.948586 0.502185 -0.647615
H15   H     H_    0.174940 0.890152 0.610558 0.324896
C46   C     C_2   0.869520 0.109012 0.404201 0.972710
O19   O     O_2   0.883454 0.040196 0.279894 -0.550438
O20   O     O_R   0.831176 0.051365 0.501801 -0.647718
H16   H     H_    0.825046 0.109731 0.610206 0.325056

loop_
_geom_bond_atom_site_label_1
_geom_bond_atom_site_label_2
_geom_bond_distance
_ccdc_geom_bond_type
O20   H16   1.013760 S    
C31   C35   1.408160 A    
C43   O14   1.398810 S    
C43   O13   1.223719 D    
C20   C35   1.411001 A    
C45   O17   1.220960 D    
C13   H3    1.083008 S    
C44   O15   1.223530 D    
C11   C17   1.401632 A    
O5    C3    1.282170 A    
C7    N1    1.365975 A    
O1    C1    1.273640 A    
C40   H12   1.082734 S    
C19   C21   1.416672 A    
C9    H7    1.083126 S    
C22   C26   1.424086 A    
C7    C23   1.412325 A    
C33   C35   1.410247 A    
C34   C36   1.410258 A    
C32   C33   1.414107 A    
C9    C13   1.393514 A    
Cu2   N3    1.975126 S    
O7    Cu1   1.944328 S    
C5    C21   1.411802 A    
C1    C41   1.411600 S    
C5    O9    1.346966 S    
C10   C18   1.399896 A    
N1    C17   1.436157 S    
C8    N2    1.365964 A    
C24   C28   1.425929 A    
O3    Cu1   1.942615 S    
C6    O10   1.346984 S    
O3    C2    1.273650 A    
C5    N1    1.366248 A    
C14   H4    1.083044 S    
C12   C18   1.401642 A    
C6    N2    1.366241 A    
C15   H1    1.082983 S    
Cu1   Cu2   2.628529 S    
C21   C25   1.424113 A    
C16   H2    1.083015 S    
O2    C2    1.273642 A    
C10   H8    1.083146 S    
C45   O18   1.397357 S    
C11   H5    1.082994 S    
C33   C39   1.403541 A    
C44   O16   1.398738 S    
C34   C40   1.403537 A    
C39   H11   1.082756 S    
C38   H10   1.083456 S    
C46   O20   1.397405 S    
C11   C15   1.396196 A    
C12   C16   1.396190 A    
C4    C30   1.473905 S    
O8    Cu2   1.944331 S    
C23   C27   1.425924 A    
C46   O19   1.220918 D    
C7    O11   1.347595 S    
C32   C36   1.408170 A    
C13   C29   1.405894 A    
C19   C36   1.410970 A    
C19   C23   1.416913 A    
O14   H13   1.013728 S    
O18   H15   1.013805 S    
C20   C24   1.416900 A    
O6    C4    1.283300 A    
C10   C14   1.393506 A    
C27   C45   1.485749 S    
C32   C38   1.403441 A    
C3    C29   1.473917 S    
O1    Cu1   1.942610 S    
C28   C46   1.485808 S    
C2    C42   1.411600 S    
O6    Cu2   1.944292 S    
C8    O12   1.347578 S    
C16   C30   1.406362 A    
C14   C30   1.405911 A    
O4    C1    1.273651 A    
Cu1   N4    1.975126 S    
C28   C37   1.401722 A    
C20   C22   1.416651 A    
N3    N4    1.194249 T    
C12   H6    1.083023 S    
C31   C37   1.403429 A    
O4    Cu2   1.942616 S    
C41   C42   1.192028 T    
O2    Cu2   1.942609 S    
O7    C4    1.282162 A    
N2    C18   1.436147 S    
O8    C3    1.283284 A    
C25   C43   1.488561 S    
O16   H14   1.013739 S    
C37   H9    1.083446 S    
O5    Cu1   1.944294 S    
C8    C24   1.412361 A    
C26   C44   1.488468 S    
C15   C29   1.406359 A    
C31   C34   1.414083 A    
C9    C17   1.399906 A    
C25   C40   1.403172 A    
C26   C39   1.403095 A    
C27   C38   1.401706 A    
C6    C22   1.411841 A    
