data_mof_unit_46562.cif
_audit_creation_date              2012-12-10T17:24:47-0500
_audit_creation_method            fapswitch 2.2
_symmetry_space_group_name_H-M    P1
_symmetry_Int_Tables_number       1
_space_group_crystal_system       triclinic
_cell_length_a                    23.505429
_cell_length_b                    10.866745
_cell_length_c                    9.657478
_cell_angle_alpha                 88.5742
_cell_angle_beta                  88.697152
_cell_angle_gamma                 95.966254
_cell_volume                      2451.86838793

loop_
_atom_site_label
_atom_site_type_symbol
_atom_type_description
_atom_site_fract_x
_atom_site_fract_y
_atom_site_fract_z
_atom_type_partial_charge
C1    C     C_R   0.495517 0.262253 0.501236 0.875776
C2    C     C_R   0.968800 0.395105 0.279959 0.044671
C3    C     C_R   0.027925 0.394879 0.284868 0.671860
C4    C     C_R   0.058559 0.443157 0.398088 -0.184155
C5    C     C_R   0.029127 0.492276 0.509702 -0.115595
C6    C     C_R   0.060160 0.542842 0.622970 -0.031511
C7    C     C_R   0.029659 0.588436 0.736399 0.107425
C8    C     C_R   0.969764 0.584599 0.735264 0.180432
C9    C     C_R   0.118249 0.442893 0.402540 0.588711
C10   C     C_R   0.120663 0.546131 0.617623 0.551760
C11   C     C_R   0.236512 0.441569 0.617923 -0.099314
C12   C     C_R   0.391211 0.499495 0.501444 0.841060
C13   C     C_R   0.295949 0.443955 0.616776 -0.166800
C14   C     C_R   0.328846 0.499722 0.504694 -0.043386
C15   C     C_R   0.301700 0.555159 0.395147 -0.228766
C16   C     C_R   0.242407 0.555437 0.398028 -0.094034
C17   C     C_R   0.209334 0.497633 0.508755 0.327563
C18   C     C_R   0.752903 0.377145 0.500955 0.228193
C19   C     C_R   0.693237 0.379663 0.497415 -0.003452
C20   C     C_R   0.670181 0.494476 0.497029 -0.216292
C21   C     C_R   0.706372 0.605077 0.500616 0.528536
C22   C     C_R   0.765399 0.602202 0.501065 -0.213288
C23   C     C_R   0.495884 0.736734 0.498420 0.798451
C24   C     C_R   0.788991 0.488988 0.501435 0.219325
C25   C     C_R   0.406607 0.101822 0.669413 0.613247
C26   C     C_R   0.372369 0.027726 0.765524 0.116299
C27   C     C_R   0.379332 0.902213 0.780550 -0.285417
C28   C     C_R   0.417875 0.849175 0.694632 -0.203252
C29   C     C_R   0.453448 0.922498 0.597357 -0.015190
C30   C     C_R   0.450438 0.052625 0.592698 -0.066815
C31   C     C_R   0.487520 0.127154 0.499872 -0.111578
C32   C     C_R   0.513175 0.072209 0.389877 -0.265738
C33   C     C_R   0.508613 0.945188 0.379879 0.154327
C34   C     C_R   0.608439 0.499163 0.498885 0.875976
C35   C     C_R   0.486950 0.869397 0.494092 -0.074714
C36   C     C_R   0.577947 0.686368 0.122612 0.179306
C37   C     C_R   0.607376 0.778162 0.035957 -0.289363
C38   C     C_R   0.605133 0.772745 0.894871 0.134079
C39   C     C_R   0.572975 0.674540 0.838774 -0.103803
C40   C     C_R   0.536319 0.587205 0.918475 0.060210
C41   C     C_R   0.537274 0.589483 0.068122 0.187802
C42   C     C_R   0.464886 0.418797 0.078853 -0.125755
C43   C     C_R   0.464602 0.418876 0.931537 0.234562
C44   C     C_R   0.878632 0.530523 0.617614 0.585197
C45   C     C_R   0.878197 0.447584 0.391239 0.616623
C46   C     C_R   0.938156 0.443689 0.391284 -0.144275
C47   C     C_R   0.968695 0.490572 0.507515 -0.088143
C48   C     C_R   0.938868 0.535825 0.621327 -0.043666
Cu1   Cu    Cu3+1 0.500000 0.499990 0.640660 0.987290
Cu2   Cu    Cu3+1 0.500000 0.500010 0.359340 0.979953
H1    H     H_    0.793100 0.688257 0.502296 0.187528
H2    H     H_    0.535442 0.128354 0.307029 0.160599
H3    H     H_    0.352158 0.843905 0.853068 0.174154
H4    H     H_    0.416216 0.749742 0.700842 0.189865
H5    H     H_    0.436040 0.351934 0.137846 0.147060
H6    H     H_    0.636329 0.850020 0.080412 0.154763
H7    H     H_    0.579030 0.672003 0.730452 0.236736
H8    H     H_    0.211516 0.395781 0.703507 0.165610
H9    H     H_    0.316076 0.400079 0.701941 0.195230
H10   H     H_    0.326399 0.599648 0.308293 0.158689
H11   H     H_    0.222072 0.600175 0.313803 0.154814
N1    N     N_R   0.850153 0.488364 0.503750 -0.437706
N2    N     N_R   0.147931 0.495308 0.509829 -0.469671
N3    N     N_R   0.500540 0.501210 0.147910 -0.190133
N4    N     N_R   0.500560 0.501290 0.852040 -0.185814
O1    O     O_R   0.500000 0.319640 0.618810 -0.534063
O2    O     O_2   0.847616 0.412476 0.279929 -0.551335
O3    O     O_2   0.146689 0.389682 0.300979 -0.455552
O4    O     O_2   0.152569 0.601066 0.717405 -0.560160
O5    O     O_R   0.500000 0.319660 0.381240 -0.600018
O6    O     O_R   0.417880 0.499950 0.618810 -0.549017
O7    O     O_R   0.417880 0.499980 0.381240 -0.586154
O8    O     O_R   0.500000 0.680340 0.618760 -0.629208
O9    O     O_R   0.500000 0.680360 0.381190 -0.527092
O10   O     O_R   0.582120 0.500020 0.618760 -0.598920
O11   O     O_R   0.582120 0.500050 0.381190 -0.558702
O12   O     O_2   0.848199 0.566358 0.726860 -0.489711
N5    N     N_3   0.941691 0.342391 0.160424 -0.496941
H12   H     H_    0.911798 0.268348 0.191587 0.266249
H13   H     H_    0.922127 0.410275 0.106331 0.262971
N6    N     N_3   0.656799 0.265257 0.496016 -0.588676
H14   H     H_    0.629214 0.260660 0.582886 0.224712
H15   H     H_    0.632124 0.265512 0.407311 0.223523
F1    F     F_    0.684475 0.715785 0.504672 -0.675878
F2    F     F_    0.391811 0.216538 0.638542 -0.673332
N7    N     N_3   0.328797 0.079947 0.843641 -0.551614
H16   H     H_    0.336431 0.066143 0.948842 0.208544
H17   H     H_    0.289428 0.030992 0.822377 0.240051
N8    N     N_3   0.522019 0.895490 0.249003 -0.573260
H18   H     H_    0.490565 0.916664 0.180027 0.224490
H19   H     H_    0.560634 0.942224 0.211401 0.202211
F3    F     F_    0.055177 0.347610 0.175752 -0.599020
N9    N     N_3   0.598583 0.688589 0.259324 -0.465285
H20   H     H_    0.641044 0.667560 0.253104 0.230678
H21   H     H_    0.600765 0.776769 0.300156 0.245954
N10   N     N_3   0.638481 0.862019 0.805732 -0.514524
H22   H     H_    0.661714 0.928753 0.864082 0.224141
H23   H     H_    0.609903 0.908693 0.747927 0.222861
N11   N     N_3   0.425834 0.331126 0.865678 -0.455996
H24   H     H_    0.433818 0.243233 0.901800 0.196661
H25   H     H_    0.384335 0.345158 0.898269 0.213921
N12   N     N_3   0.057602 0.637948 0.856676 -0.581947
H26   H     H_    0.080418 0.570957 0.902901 0.291982
H27   H     H_    0.084392 0.717887 0.828514 0.270436
N13   N     N_3   0.940506 0.632930 0.850841 -0.492992
H28   H     H_    0.949885 0.584466 0.940894 0.242844
H29   H     H_    0.955770 0.726093 0.860642 0.241511
N14   N     N_3   0.777314 0.261664 0.506392 -0.540510
H30   H     H_    0.764468 0.211793 0.419256 0.258510
H31   H     H_    0.760664 0.211451 0.594561 0.241604

loop_
_geom_bond_atom_site_label_1
_geom_bond_atom_site_label_2
_ccdc_geom_bond_type
C4    C9    A    
N9    H20   S    
Cu2   N3    S    
C15   H10   S    
C19   C20   A    
C8    N13   S    
C10   N2    A    
N6    H14   S    
C7    C8    A    
C45   C46   A    
C2    C46   A    
N13   H29   S    
C26   C27   A    
C29   C30   A    
Cu1   N4    S    
C18   C24   A    
C28   C29   A    
C43   N11   S    
C33   N8    S    
Cu2   O9    S    
C30   C31   A    
N5    H13   S    
C11   C13   A    
C15   C16   A    
C39   H7    S    
C45   N1    A    
C1    C31   S    
N14   H30   S    
C18   C19   A    
Cu2   O7    S    
C32   H2    S    
C37   H6    S    
C36   N9    S    
C31   C32   A    
C16   C17   A    
C7    N12   S    
N10   H23   S    
C16   H11   S    
C45   O2    S    
Cu1   O10   S    
N8    H19   S    
C11   H8    S    
C43   N4    A    
C34   O10   A    
C20   C34   S    
C12   O7    A    
N9    H21   S    
C21   C22   A    
C36   C41   A    
C23   O8    A    
N6    H15   S    
C38   C39   A    
Cu1   O1    S    
N7    H17   S    
C39   C40   A    
C28   H4    S    
N7    H16   S    
C44   N1    A    
C25   C26   A    
C3    F3    S    
C8    C48   A    
C37   C38   A    
C2    N5    S    
Cu2   O11   S    
C42   H5    S    
C5    C47   A    
C47   C48   A    
C21   F1    S    
C26   N7    S    
N10   H22   S    
C25   F2    S    
C1    O1    A    
N12   H27   S    
C40   C41   A    
N11   H25   S    
C12   O6    A    
C12   C14   S    
C23   C35   S    
C40   N4    A    
C22   C24   A    
C42   C43   A    
C23   O9    A    
C3    C4    A    
C42   N3    A    
C25   C30   A    
C46   C47   A    
C11   C17   A    
C24   N1    S    
C9    N2    A    
C4    C5    A    
C6    C10   A    
C27   H3    S    
C6    C7    A    
C13   H9    S    
C44   O12   S    
N13   H28   S    
C29   C35   A    
C1    O5    A    
N11   H24   S    
C32   C33   A    
C2    C3    A    
Cu2   O5    S    
C9    O3    S    
C19   N6    S    
C17   N2    S    
N5    H12   S    
C5    C6    A    
C33   C35   A    
N14   H31   S    
Cu1   O8    S    
N12   H26   S    
C18   N14   S    
C10   O4    S    
C20   C21   A    
C36   C37   A    
Cu1   Cu2   S    
Cu1   O6    S    
C38   N10   S    
C27   C28   A    
C14   C15   A    
C41   N3    A    
N8    H18   S    
C13   C14   A    
C44   C48   A    
C34   O11   A    
C22   H1    S    
