data_mof_unit_33249.cif
_audit_creation_date              2012-12-10T16:42:55-0500
_audit_creation_method            fapswitch 2.2
_symmetry_space_group_name_H-M    P1
_symmetry_Int_Tables_number       1
_space_group_crystal_system       triclinic
_cell_length_a                    7.519727
_cell_length_b                    8.736311
_cell_length_c                    12.95437
_cell_angle_alpha                 86.040049
_cell_angle_beta                  79.211797
_cell_angle_gamma                 103.104392
_cell_volume                      808.673429743

loop_
_atom_site_label
_atom_site_type_symbol
_atom_type_description
_atom_site_fract_x
_atom_site_fract_y
_atom_site_fract_z
_atom_type_partial_charge
C1    C     C_R   0.452616 0.199831 0.505918 0.816279
C2    C     C_R   0.547380 0.800203 0.493401 0.810431
C3    C     C_R   0.465775 0.491892 0.700954 0.884324
C4    C     C_R   0.534165 0.509002 0.298847 0.866240
C5    C     C_R   0.550981 0.525613 0.184936 -0.115325
C6    C     C_R   0.446198 0.476163 0.814710 -0.102683
C7    C     C_R   0.329782 0.316632 0.984142 -0.256445
C8    C     C_R   0.652417 0.691345 0.017347 -0.248306
C9    C     C_R   0.337128 0.335518 0.875953 0.192289
C10   C     C_R   0.664557 0.663898 0.122603 0.183604
C11   C     C_R   0.543724 0.599389 0.861574 0.145602
C12   C     C_R   0.437168 0.409534 0.140176 0.151223
C13   C     C_R   0.542606 0.576600 0.970271 0.026853
C14   C     C_R   0.435770 0.433277 0.031882 0.029657
C15   C     C_2   0.428526 0.030720 0.520528 0.162900
C16   C     C_2   0.571097 0.969314 0.478171 0.165865
Cu1   Cu    Cu3+1 0.686350 0.517570 0.488220 0.999949
Cu2   Cu    Cu3+1 0.313650 0.482430 0.511780 1.000854
H1    H     H_    0.246337 0.206451 0.028945 0.163955
H2    H     H_    0.734353 0.801781 0.972391 0.164405
N1    N     N_2   0.033570 0.455950 0.529530 0.038631
N2    N     N_2   0.966430 0.544050 0.470470 0.034332
O1    O     O_R   0.621060 0.286250 0.492350 -0.519994
O2    O     O_R   0.378940 0.713750 0.507650 -0.518130
O3    O     O_R   0.306310 0.256580 0.512240 -0.615862
O4    O     O_R   0.693690 0.743420 0.487760 -0.619997
O5    O     O_R   0.631800 0.512400 0.642670 -0.575534
O6    O     O_R   0.368200 0.487600 0.357330 -0.570361
O7    O     O_R   0.317060 0.482730 0.662570 -0.586411
O8    O     O_R   0.682940 0.517270 0.337430 -0.577869
N3    N     N_2   0.332801 0.266199 0.204220 -0.447314
H3    H     H_    0.365845 0.164641 0.179149 0.234703
C17   C     C_3   0.134628 0.252230 0.240244 -0.606196
H4    H     H_    0.052392 0.149261 0.210011 0.193963
H5    H     H_    0.092725 0.359633 0.212895 0.218981
H6    H     H_    0.099575 0.233717 0.327975 0.272394
N4    N     N_2   0.636048 0.746978 0.799036 -0.448102
H7    H     H_    0.597596 0.844320 0.828113 0.240230
C18   C     C_3   0.834647 0.771967 0.757664 -0.623890
H8    H     H_    0.913241 0.874969 0.789704 0.190671
H9    H     H_    0.863205 0.797519 0.670253 0.262308
H10   H     H_    0.886440 0.666875 0.778567 0.229364
N5    N     N_2   0.787409 0.778590 0.165889 -0.434117
H11   H     H_    0.752144 0.886032 0.164896 0.241808
C19   C     C_3   0.983303 0.796110 0.119994 -0.708495
H12   H     H_    0.014218 0.833510 0.033478 0.221629
H13   H     H_    0.022794 0.682701 0.134692 0.244837
H14   H     H_    0.070645 0.888852 0.155767 0.207131
N6    N     N_2   0.241021 0.208546 0.828805 -0.443783
H15   H     H_    0.108030 0.157417 0.871896 0.245048
C20   C     C_3   0.345909 0.091259 0.804164 -0.734696
H16   H     H_    0.257151 0.988582 0.777567 0.250285
H17   H     H_    0.390727 0.047442 0.875358 0.219224
H18   H     H_    0.469991 0.142701 0.740078 0.238944
N7    N     N_2   0.913464 0.383326 0.622083 -0.268640
H19   H     H_    0.933826 0.447005 0.684720 0.246974
C21   C     C_3   0.915663 0.220200 0.646242 -0.591937
H20   H     H_    0.901514 0.155013 0.576453 0.251568
H21   H     H_    0.046427 0.212963 0.671609 0.234393
H22   H     H_    0.797389 0.163202 0.712459 0.176023
N8    N     N_2   0.089295 0.622777 0.380587 -0.270870
H23   H     H_    0.065621 0.569692 0.314267 0.243765
C22   C     C_3   0.096362 0.789225 0.366621 -0.571722
H24   H     H_    0.972825 0.807204 0.337341 0.224212
H25   H     H_    0.224681 0.851517 0.308161 0.177251
H26   H     H_    0.098450 0.840451 0.442305 0.260467
O9    O     O_3   0.266410 0.935115 0.583690 -0.773555
H27   H     H_    0.177550 0.999922 0.607092 0.319177
O10   O     O_3   0.732067 0.064636 0.413811 -0.767007
H28   H     H_    0.812024 0.997627 0.381629 0.314499

loop_
_geom_bond_atom_site_label_1
_geom_bond_atom_site_label_2
_ccdc_geom_bond_type
C19   H12   S    
N7    H19   S    
C22   H25   S    
C1    O1    A    
C8    C13   A    
C1    C15   S    
C7    C14   A    
Cu2   N1    S    
C2    C16   S    
Cu1   N2    S    
N5    H11   S    
C20   H18   S    
C15   O9    S    
C3    C6    S    
C6    C9    A    
C3    O5    A    
C17   H4    S    
C22   H26   S    
Cu2   O6    S    
C5    C10   A    
C2    O4    A    
Cu2   O7    S    
C8    H2    S    
N1    N2    D    
N2    N8    S    
C1    O3    A    
Cu1   O8    S    
N5    C19   S    
C6    C11   A    
C3    O7    A    
C21   H20   S    
Cu1   O1    S    
Cu2   O3    S    
N8    C22   S    
Cu2   O2    S    
Cu1   O4    S    
C8    C10   A    
C17   H5    S    
N4    H7    S    
C12   C14   A    
Cu1   Cu2   S    
C18   H10   S    
C7    H1    S    
O10   H28   S    
N7    C21   S    
C12   N3    S    
C2    O2    A    
N8    H23   S    
N4    C18   S    
C20   H16   S    
C21   H21   S    
N3    C17   S    
C15   C16   D    
Cu1   O5    S    
C7    C9    A    
C11   C13   A    
C17   H6    S    
C9    N6    S    
C18   H9    S    
C5    C12   A    
N1    N7    S    
N6    H15   S    
C19   H13   S    
C18   H8    S    
C11   N4    S    
N6    C20   S    
C4    C5    S    
C21   H22   S    
C19   H14   S    
C4    O6    A    
C10   N5    S    
C13   C14   A    
N3    H3    S    
C4    O8    A    
C16   O10   S    
O9    H27   S    
C22   H24   S    
C20   H17   S    
