data_mof_unit_23674.cif
_audit_creation_date              2012-12-10T17:34:54-0500
_audit_creation_method            fapswitch 2.2
_symmetry_space_group_name_H-M    P1
_symmetry_Int_Tables_number       1
_space_group_crystal_system       triclinic
_cell_length_a                    12.006341
_cell_length_b                    12.770277
_cell_length_c                    15.727935
_cell_angle_alpha                 90.354297
_cell_angle_beta                  85.891922
_cell_angle_gamma                 95.430935
_cell_volume                      2394.48110247

loop_
_atom_site_label
_atom_site_type_symbol
_atom_type_description
_atom_site_fract_x
_atom_site_fract_y
_atom_site_fract_z
_atom_type_partial_charge
C1    C     C_R   0.524139 0.700348 0.497501 0.883021
C2    C     C_R   0.543524 0.812268 0.497043 -0.040176
C3    C     C_R   0.601345 0.965141 0.577076 -0.203946
C4    C     C_R   0.499885 0.499970 0.661589 0.899418
C5    C     C_R   0.604547 0.859380 0.561158 -0.266929
C6    C     C_R   0.487782 0.870859 0.441303 0.123608
C7    C     C_R   0.471820 0.975181 0.464785 0.059545
C8    C     C_R   0.530421 0.023462 0.532851 0.128024
C9    C     C_R   0.517118 0.128819 0.554559 0.070302
C10   C     C_R   0.386548 0.135876 0.441622 0.125589
C11   C     C_R   0.393617 0.029948 0.425939 -0.255278
C12   C     C_3   0.426518 0.583203 0.053207 -0.408137
C13   C     C_R   0.956157 0.443810 0.395439 0.071027
C14   C     C_R   0.838747 0.443180 0.410637 0.019870
C15   C     C_R   0.856653 0.518938 0.547256 -0.070988
C16   C     C_R   0.475573 0.299258 0.501020 0.862015
C17   C     C_R   0.974926 0.519972 0.538177 -0.004679
C18   C     C_R   0.025154 0.481455 0.461165 -0.005956
C19   C     C_R   0.143384 0.481758 0.452408 -0.089792
C20   C     C_R   0.161229 0.558127 0.588898 0.028730
C21   C     C_R   0.043884 0.559158 0.603399 0.070934
C22   C     C_R   0.500233 0.499886 0.338343 0.899081
C23   C     C_3   0.511213 0.509416 0.082176 0.207170
C24   C     C_3   0.416042 0.571470 0.956681 -0.392687
C25   C     C_3   0.630686 0.549374 0.941206 0.200927
C26   C     C_3   0.632194 0.546581 0.042270 -0.015938
C27   C     C_1   0.502034 0.502950 0.249468 -0.193628
C28   C     C_3   0.508726 0.504891 0.916406 0.229109
C29   C     C_3   0.563333 0.178876 0.635359 -0.402467
C30   C     C_3   0.497497 0.133605 0.715808 -0.820099
C31   C     C_3   0.303356 0.190972 0.393870 -0.397790
C32   C     C_3   0.193093 0.193939 0.448307 -0.796960
C33   C     C_3   0.451590 0.821399 0.357179 -0.435794
C34   C     C_3   0.476690 0.395789 0.051284 -0.458829
C35   C     C_3   0.552304 0.790451 0.300657 -0.872659
C36   C     C_3   0.008651 0.408850 0.309832 -0.434608
C37   C     C_3   0.927093 0.373994 0.242402 -0.865190
C38   C     C_3   0.991163 0.599804 0.686998 -0.422893
C39   C     C_3   0.072169 0.636272 0.754374 -0.851834
C40   C     C_3   0.678423 0.655230 0.894845 -0.333144
C41   C     C_3   0.606995 0.748474 0.895767 -0.915969
C42   C     C_3   0.689569 0.646659 0.085207 -0.409740
C43   C     C_3   0.816556 0.643452 0.087335 -0.866782
C44   C     C_3   0.480562 0.391285 0.953113 -0.028580
C45   C     C_1   0.505945 0.506232 0.174045 -0.093313
C46   C     C_1   0.503436 0.502577 0.825323 -0.016892
C47   C     C_1   0.500547 0.501118 0.750265 -0.153999
C48   C     C_R   0.455674 0.186452 0.501362 -0.112790
H1    H     H_    0.454077 0.666104 0.069137 0.171744
H2    H     H_    0.217054 0.586646 0.636394 0.155938
H3    H     H_    0.782812 0.415112 0.363097 0.157231
H4    H     H_    0.814542 0.549941 0.603546 0.140544
H5    H     H_    0.682641 0.481934 0.059063 0.180723
H6    H     H_    0.544922 0.339183 0.929999 0.177976
H7    H     H_    0.390733 0.369445 0.078863 0.221524
H8    H     H_    0.408027 0.148984 0.715049 0.276819
H9    H     H_    0.502219 0.047667 0.721309 0.254694
H10   H     H_    0.532277 0.172240 0.772920 0.267957
H11   H     H_    0.654110 0.169735 0.637189 0.207067
H12   H     H_    0.331687 0.531870 0.946244 0.212681
H13   H     H_    0.557161 0.264741 0.638771 0.226957
H14   H     H_    0.156296 0.112644 0.463949 0.251525
H15   H     H_    0.206060 0.237581 0.508550 0.279922
H16   H     H_    0.132525 0.233163 0.412674 0.227262
H17   H     H_    0.337725 0.271219 0.373294 0.208699
H18   H     H_    0.285019 0.148273 0.333863 0.194165
H19   H     H_    0.613561 0.860240 0.287590 0.267356
H20   H     H_    0.594785 0.728440 0.330833 0.260215
H21   H     H_    0.523423 0.759467 0.239033 0.239433
H22   H     H_    0.390660 0.751397 0.369642 0.229348
H23   H     H_    0.342556 0.563643 0.087181 0.188497
H24   H     H_    0.410093 0.874638 0.317389 0.205791
H25   H     H_    0.871038 0.303883 0.264730 0.256390
H26   H     H_    0.876630 0.439008 0.227179 0.253181
H27   H     H_    0.975264 0.352331 0.183008 0.266829
H28   H     H_    0.066446 0.475196 0.282408 0.214587
H29   H     H_    0.058758 0.342175 0.320438 0.207095
H30   H     H_    0.119850 0.570611 0.772972 0.270375
H31   H     H_    0.130757 0.703835 0.730284 0.250141
H32   H     H_    0.023645 0.662413 0.812151 0.261380
H33   H     H_    0.943301 0.667170 0.672694 0.206034
H34   H     H_    0.533752 0.340078 0.074532 0.172260
H35   H     H_    0.931303 0.536131 0.716216 0.241234
H36   H     H_    0.546297 0.738498 0.845648 0.253235
H37   H     H_    0.562786 0.760953 0.958511 0.257242
H38   H     H_    0.662296 0.821343 0.879546 0.254572
H39   H     H_    0.760577 0.683235 0.918577 0.225189
H40   H     H_    0.698202 0.638217 0.826260 0.214236
H41   H     H_    0.834522 0.580123 0.130936 0.258996
H42   H     H_    0.856788 0.628565 0.023366 0.275865
H43   H     H_    0.854514 0.719607 0.111402 0.253944
H44   H     H_    0.672188 0.720387 0.055015 0.231528
H45   H     H_    0.650568 0.998207 0.627221 0.162533
H46   H     H_    0.657262 0.653969 0.152483 0.219541
H47   H     H_    0.335014 0.991329 0.384329 0.145207
H48   H     H_    0.650383 0.813071 0.601720 0.156580
H49   H     H_    0.185365 0.450605 0.396117 0.141744
H50   H     H_    0.414307 0.648932 0.926621 0.180555
I1    I     I_    0.755451 0.444754 0.891889 -0.514721
I2    I     I_    0.328184 0.308232 0.911199 -0.436244
N1    N     N_R   0.207800 0.519340 0.515510 -0.118949
N2    N     N_R   0.792190 0.480660 0.484490 -0.118889
O1    O     O_R   0.421690 0.658830 0.504140 -0.622001
O2    O     O_R   0.609320 0.646410 0.494190 -0.617815
O3    O     O_R   0.406150 0.506210 0.627840 -0.617752
O4    O     O_R   0.593770 0.493790 0.617880 -0.622264
O5    O     O_R   0.390680 0.353590 0.505810 -0.605650
O6    O     O_R   0.578310 0.341170 0.495860 -0.620209
O7    O     O_R   0.406230 0.506210 0.382120 -0.624890
O8    O     O_R   0.593850 0.493790 0.372160 -0.626433
Zn1   Zn    Zn3+2 0.374720 0.508290 0.506640 0.935679
Zn2   Zn    Zn3+2 0.625280 0.491710 0.493360 0.935691

loop_
_geom_bond_atom_site_label_1
_geom_bond_atom_site_label_2
_ccdc_geom_bond_type
C31   H18   S    
C37   H26   S    
C23   C45   S    
C38   H35   S    
C44   I2    S    
N2    Zn2   S    
C16   C48   S    
C12   H1    S    
C19   H49   S    
C7    C8    A    
O4    Zn2   S    
C25   C28   S    
C7    C11   A    
C41   H38   S    
C12   C23   S    
C28   C46   S    
C43   H41   S    
C13   C18   A    
C24   H50   S    
C40   H39   S    
C36   C37   S    
C18   C19   A    
C36   H29   S    
O7    Zn1   S    
C25   C40   S    
C38   C39   S    
C14   N2    A    
C30   H9    S    
O1    Zn1   S    
C1    C2    S    
C23   C26   S    
C20   H2    S    
C36   H28   S    
C16   O5    A    
C10   C31   S    
C25   I1    S    
C21   C38   S    
C14   H3    S    
C8    C9    A    
C22   O8    A    
C1    O1    A    
C33   H24   S    
C9    C29   S    
C27   C45   T    
O3    Zn1   S    
C34   H7    S    
C13   C14   A    
C2    C6    A    
C29   H13   S    
C43   H42   S    
C39   H30   S    
C29   H11   S    
C34   C44   S    
C32   H16   S    
C13   C36   S    
C3    C8    A    
O2    Zn2   S    
C20   N1    A    
C25   C26   S    
C41   H36   S    
C4    O4    A    
C28   C44   S    
C43   H43   S    
O6    Zn2   S    
C39   H31   S    
C29   C30   S    
C31   C32   S    
C35   H19   S    
C24   H12   S    
C23   C34   S    
C17   C18   A    
C3    H45   S    
C15   H4    S    
C1    O2    A    
C33   H22   S    
C40   C41   S    
C12   H23   S    
C22   C27   S    
C38   H33   S    
C10   C48   A    
C2    C5    A    
C42   C43   S    
C26   H5    S    
C5    H48   S    
C26   C42   S    
C11   H47   S    
C31   H17   S    
C37   H25   S    
C46   C47   T    
C42   H46   S    
O5    Zn1   S    
C24   C28   S    
C32   H15   S    
C3    C5    A    
C15   C17   A    
C6    C7    A    
N1    Zn1   S    
C41   H37   S    
C4    O3    A    
C12   C24   S    
C6    C33   S    
C22   O7    A    
C39   H32   S    
C40   H40   S    
C32   H14   S    
C19   N1    A    
C30   H8    S    
C35   H20   S    
C30   H10   S    
C33   C35   S    
C42   H44   S    
C15   N2    A    
C37   H27   S    
O8    Zn2   S    
C10   C11   A    
C16   O6    A    
C44   H6    S    
C20   C21   A    
C35   H21   S    
C9    C48   A    
C34   H34   S    
C4    C47   S    
C17   C21   A    
