data_mof_unit_53837.cif
_audit_creation_date              2012-12-10T16:55:49-0500
_audit_creation_method            fapswitch 2.2
_symmetry_space_group_name_H-M    P1
_symmetry_Int_Tables_number       1
_space_group_crystal_system       triclinic
_cell_length_a                    7.790804
_cell_length_b                    8.565604
_cell_length_c                    10.532338
_cell_angle_alpha                 91.075135
_cell_angle_beta                  85.891286
_cell_angle_gamma                 93.746763
_cell_volume                      699.479069362

loop_
_atom_site_label
_atom_site_type_symbol
_atom_type_description
_atom_site_fract_x
_atom_site_fract_y
_atom_site_fract_z
_atom_type_partial_charge
C1    C     C_R   0.545759 0.794633 0.496773 0.952704
C2    C     C_3   0.505460 0.499748 0.875925 -0.163049
C3    C     C_3   0.337570 0.511050 0.046044 0.617022
C4    C     C_3   0.662553 0.487912 0.953683 0.580788
C5    C     C_2   0.569743 0.958262 0.494888 -0.378337
C6    C     C_2   0.430272 0.041742 0.505336 -0.370244
C7    C     C_3   0.081365 0.393245 0.129393 -0.267772
C8    C     C_3   0.919972 0.607478 0.873367 -0.224061
C9    C     C_R   0.454245 0.205368 0.503309 0.956365
C10   C     C_R   0.502502 0.501585 0.741965 0.914336
C11   C     C_R   0.497400 0.497867 0.257983 0.922835
C12   C     C_3   0.443538 0.632017 0.963752 0.019846
C13   C     C_3   0.556186 0.366679 0.035922 0.019725
C14   C     C_3   0.602036 0.623156 0.042402 -0.422600
C15   C     C_3   0.397671 0.375971 0.957408 -0.379292
C16   C     C_3   0.494356 0.499043 0.123901 -0.160651
H1    H     H_    0.679578 0.724595 0.080359 0.169286
H2    H     H_    0.723830 0.246843 0.130205 0.189315
H3    H     H_    0.155683 0.321054 0.189932 0.141738
H4    H     H_    0.048827 0.326680 0.041883 0.191742
H5    H     H_    0.958850 0.417465 0.183799 0.202427
H6    H     H_    0.948013 0.673410 0.962113 0.196736
H7    H     H_    0.847983 0.679644 0.811204 0.127276
H8    H     H_    0.045508 0.585144 0.822231 0.215858
H9    H     H_    0.319291 0.274927 0.919659 0.165358
H10   H     H_    0.012317 0.376588 0.409467 0.179697
H11   H     H_    0.987650 0.623071 0.590895 0.181836
H12   H     H_    0.701416 0.009470 0.484839 0.179702
H13   H     H_    0.298599 0.990534 0.515397 0.180110
H14   H     H_    0.350413 0.845354 0.999715 0.205105
H15   H     H_    0.479867 0.834830 0.865927 0.169636
H16   H     H_    0.656927 0.156726 0.998173 0.197057
N1    N     N_2   0.950320 0.457950 0.465730 -0.166170
N2    N     N_2   0.049680 0.542050 0.534270 -0.164076
N3    N     N_3   0.378651 0.775548 0.919464 -0.445811
N4    N     N_3   0.615621 0.220224 0.079095 -0.460425
O1    O     O_R   0.389250 0.738570 0.508410 -0.612446
O2    O     O_3   0.830447 0.462594 0.901287 -0.612708
O3    O     O_R   0.610750 0.261430 0.491590 -0.615812
O4    O     O_R   0.678390 0.711620 0.486450 -0.635421
O5    O     O_R   0.321610 0.288380 0.513550 -0.636320
O6    O     O_R   0.355460 0.513510 0.697030 -0.618493
O7    O     O_R   0.644540 0.486490 0.302970 -0.630825
O8    O     O_R   0.644600 0.486560 0.675070 -0.605772
O9    O     O_R   0.355400 0.513440 0.324930 -0.603811
O10   O     O_3   0.170159 0.537362 0.098433 -0.600953
Zn1   Zn    Zn3+2 0.306940 0.517990 0.514670 0.952960
Zn2   Zn    Zn3+2 0.693060 0.482010 0.485330 0.945591

loop_
_geom_bond_atom_site_label_1
_geom_bond_atom_site_label_2
_ccdc_geom_bond_type
C2    C4    S    
C11   O7    A    
N2    Zn1   S    
O1    Zn1   S    
C5    H12   S    
C11   C16   S    
H10   N1    S    
C9    O5    A    
C1    O1    A    
C2    C12   S    
C6    H13   S    
C6    C9    S    
C13   C15   S    
N1    N2    D    
O5    Zn1   S    
C12   N3    S    
C2    C15   S    
C15   H9    S    
C14   H1    S    
C8    O2    S    
H14   N3    S    
C1    C5    S    
H16   N4    S    
C8    H8    S    
C4    O2    S    
H15   N3    S    
O6    Zn1   S    
O9    Zn1   S    
H11   N2    S    
C4    C14   S    
C5    C6    D    
C14   C16   S    
C11   O9    A    
C10   O6    A    
C10   O8    A    
C2    C10   S    
C7    O10   S    
C9    O3    A    
C8    H7    S    
C3    C15   S    
C13   N4    S    
C7    H4    S    
O7    Zn2   S    
C13   C16   S    
C4    C13   S    
O4    Zn2   S    
N1    Zn2   S    
C7    H3    S    
C3    C12   S    
C3    O10   S    
C1    O4    A    
C7    H5    S    
H2    N4    S    
C8    H6    S    
C3    C16   S    
O8    Zn2   S    
C12   C14   S    
O3    Zn2   S    
