data_mof_unit_58359.cif
_audit_creation_date              2012-12-10T19:47:20-0500
_audit_creation_method            fapswitch 2.2
_symmetry_space_group_name_H-M    P1
_symmetry_Int_Tables_number       1
_space_group_crystal_system       triclinic
_cell_length_a                    14.981487
_cell_length_b                    14.234737
_cell_length_c                    10.671919
_cell_angle_alpha                 87.737429
_cell_angle_beta                  90.916105
_cell_angle_gamma                 89.182309
_cell_volume                      2273.54916051

loop_
_atom_site_label
_atom_site_type_symbol
_atom_type_description
_atom_site_fract_x
_atom_site_fract_y
_atom_site_fract_z
_atom_type_partial_charge
C1    C     C_R   0.328469 0.500259 0.501658 0.963195
C2    C     C_R   0.672584 0.499317 0.498246 0.915166
C3    C     C_R   0.233500 0.500341 0.509215 -0.226763
C4    C     C_R   0.769568 0.498503 0.495604 -0.326707
C5    C     C_R   0.192030 0.488220 0.626623 0.237057
C6    C     C_R   0.818933 0.424686 0.557977 0.265581
C7    C     C_R   0.100377 0.501797 0.633132 0.563589
C8    C     C_R   0.911216 0.430425 0.568197 0.505887
C9    C     C_R   0.050174 0.515368 0.521149 -0.090328
C10   C     C_R   0.953705 0.511304 0.520948 -0.118880
C11   C     C_R   0.468910 0.107203 0.394338 0.328461
C12   C     C_R   0.534532 0.099929 0.602452 0.355408
C13   C     C_R   0.462052 0.206689 0.401198 0.357404
C14   C     C_R   0.539984 0.199391 0.596522 0.323677
C15   C     C_R   0.502472 0.052884 0.498116 0.024578
C16   C     C_R   0.580215 0.892945 0.526653 0.222541
C17   C     C_R   0.422780 0.898659 0.475106 0.263542
C18   C     C_R   0.575195 0.793078 0.537993 0.389006
C19   C     C_R   0.424891 0.799243 0.465141 0.386709
C20   C     C_R   0.502217 0.946588 0.498689 0.064896
C21   C     C_R   0.512367 0.502130 0.261511 0.970251
C22   C     C_R   0.496479 0.498833 0.741078 0.902484
C23   C     C_R   0.532515 0.683318 0.099204 0.321127
C24   C     C_R   0.425795 0.659825 0.884824 0.355318
C25   C     C_R   0.496079 0.762627 0.031514 0.160757
C26   C     C_R   0.437617 0.749810 0.930149 0.327421
C27   C     C_R   0.476198 0.581989 0.939087 -0.253128
C28   C     C_R   0.514388 0.591717 0.057763 -0.132034
C29   C     C_R   0.532709 0.507820 0.129542 -0.112127
C30   C     C_R   0.497471 0.497953 0.876638 -0.161666
C31   C     C_R   0.551876 0.423905 0.071017 0.319389
C32   C     C_R   0.541706 0.422060 0.941504 0.338526
C33   C     C_R   0.091705 0.521789 0.404730 -0.383559
C34   C     C_R   0.905360 0.583303 0.457632 -0.287229
C35   C     C_R   0.183965 0.514162 0.397880 0.393164
C36   C     C_R   0.814352 0.576005 0.439648 0.406208
H1    H     H_    0.051849 0.529409 0.319128 0.179110
H2    H     H_    0.939329 0.643704 0.417018 0.201149
N1    N     N_R   0.500000 0.252470 0.500000 -0.228427
N2    N     N_R   0.500000 0.747550 0.500000 -0.180330
O1    O     O_R   0.369060 0.579480 0.500010 -0.539146
O2    O     O_R   0.630940 0.579480 0.499990 -0.540673
O3    O     O_R   0.369050 0.420520 0.500010 -0.665215
O4    O     O_R   0.630950 0.420520 0.499990 -0.642081
O5    O     O_R   0.500000 0.579490 0.316770 -0.605745
O6    O     O_R   0.500000 0.579490 0.683230 -0.602132
O7    O     O_R   0.499990 0.420540 0.316770 -0.554939
O8    O     O_R   0.500010 0.420540 0.683230 -0.569187
Zn1   Zn    Zn3+2 0.500000 0.606140 0.500000 1.051735
Zn2   Zn    Zn3+2 0.500000 0.393860 0.500000 0.998356
O9    O     O_3   0.582094 0.345812 0.141561 -0.740318
H3    H     H_    0.564412 0.288267 0.098656 0.358517
O10   O     O_3   0.576426 0.348429 0.877089 -0.710924
H4    H     H_    0.629981 0.322404 0.922746 0.359490
O11   O     O_3   0.659667 0.939201 0.544251 -0.713703
H5    H     H_    0.709648 0.892830 0.548501 0.367502
O12   O     O_3   0.344164 0.950190 0.461908 -0.722654
H6    H     H_    0.293355 0.907332 0.473497 0.360591
O13   O     O_3   0.645579 0.741320 0.591192 -0.560920
C37   C     C_3   0.642191 0.747916 0.723019 0.118682
H7    H     H_    0.572995 0.739969 0.757867 0.114788
H8    H     H_    0.667366 0.817172 0.751591 0.140442
C38   C     C_3   0.698977 0.669555 0.787301 -0.328269
H9    H     H_    0.687858 0.669359 0.890075 0.174517
H10   H     H_    0.678069 0.600359 0.753233 0.236070
C39   C     C_3   0.798123 0.682575 0.763353 -0.811741
H11   H     H_    0.811314 0.685148 0.661304 0.296729
H12   H     H_    0.835800 0.622301 0.807879 0.230036
H13   H     H_    0.821625 0.748460 0.804539 0.242767
O14   O     O_3   0.349189 0.754745 0.423949 -0.585022
C40   C     C_3   0.345443 0.761656 0.291225 0.136752
H14   H     H_    0.385869 0.703462 0.254524 0.151097
H15   H     H_    0.371828 0.829056 0.250620 0.159536
C41   C     C_3   0.249387 0.750392 0.243654 -0.369845
H16   H     H_    0.250950 0.731297 0.143788 0.161683
H17   H     H_    0.217023 0.692816 0.297817 0.272864
C42   C     C_3   0.192927 0.839789 0.253604 -0.835180
H18   H     H_    0.227219 0.901376 0.210439 0.266291
H19   H     H_    0.178777 0.852572 0.353210 0.273534
H20   H     H_    0.128157 0.831317 0.203570 0.245053
O15   O     O_3   0.593227 0.693606 0.196424 -0.748927
H21   H     H_    0.592827 0.759572 0.222524 0.364690
O16   O     O_3   0.362931 0.650806 0.790532 -0.714313
H22   H     H_    0.344574 0.584483 0.791745 0.343686
O17   O     O_3   0.511577 0.852537 0.070326 -0.635622
C43   C     C_3   0.587342 0.887805 0.008392 0.096555
H23   H     H_    0.572783 0.898543 0.906127 0.187025
H24   H     H_    0.645811 0.838847 0.022457 0.140422
C44   C     C_3   0.610989 0.982447 0.061924 -0.296498
H25   H     H_    0.556628 0.034401 0.038087 0.239798
H26   H     H_    0.617123 0.974655 0.165825 0.248280
C45   C     C_3   0.698848 0.018992 0.010052 -0.920830
H27   H     H_    0.754848 0.970912 0.040303 0.265089
H28   H     H_    0.711859 0.089699 0.046128 0.277498
H29   H     H_    0.695925 0.024522 0.906029 0.289766
O18   O     O_3   0.401860 0.826862 0.863224 -0.595406
C46   C     C_3   0.321392 0.854133 0.918936 0.137064
H30   H     H_    0.333889 0.876083 0.016648 0.160430
H31   H     H_    0.273100 0.795354 0.919606 0.145106
C47   C     C_3   0.280732 0.937367 0.842108 -0.295563
H32   H     H_    0.329103 0.995898 0.838337 0.244106
H33   H     H_    0.267033 0.915926 0.744670 0.239558
C48   C     C_3   0.194012 0.971982 0.898858 -0.960469
H34   H     H_    0.144190 0.914987 0.902141 0.267864
H35   H     H_    0.166137 0.031996 0.840356 0.276284
H36   H     H_    0.206610 0.995935 0.995260 0.274957
O19   O     O_3   0.227041 0.516579 0.284125 -0.781544
H37   H     H_    0.182150 0.526177 0.215304 0.335222
O20   O     O_3   0.772008 0.644981 0.365397 -0.705045
H38   H     H_    0.722396 0.615392 0.319898 0.368774
O21   O     O_3   0.237613 0.461801 0.736319 -0.754122
H39   H     H_    0.297825 0.437715 0.716829 0.325803
O22   O     O_3   0.778697 0.347465 0.612258 -0.705543
H40   H     H_    0.753696 0.312157 0.541893 0.343789
O23   O     O_3   0.059852 0.488912 0.748145 -0.563412
C49   C     C_3   0.031781 0.576457 0.793112 0.080663
H41   H     H_    0.976621 0.561897 0.858905 0.175969
H42   H     H_    0.004429 0.625921 0.717886 0.118240
C50   C     C_3   0.107331 0.622591 0.865961 -0.313818
H43   H     H_    0.135718 0.571471 0.937870 0.255255
H44   H     H_    0.161208 0.643719 0.800741 0.243616
C51   C     C_3   0.073198 0.709415 0.930852 -1.000083
H45   H     H_    0.046722 0.762617 0.860343 0.272990
H46   H     H_    0.128532 0.740784 0.984347 0.262601
H47   H     H_    0.019624 0.690065 0.997438 0.274262
O24   O     O_3   0.959557 0.357827 0.628291 -0.565252
C52   C     C_3   0.985782 0.292641 0.538989 0.085552
H48   H     H_    0.017196 0.328091 0.456034 0.129341
H49   H     H_    0.926777 0.252804 0.506938 0.155680
C53   C     C_3   0.054189 0.223878 0.600302 -0.295204
H50   H     H_    0.112299 0.263671 0.635072 0.245704
H51   H     H_    0.023561 0.186145 0.681660 0.239762
C54   C     C_3   0.086828 0.152212 0.508071 -0.932184
H52   H     H_    0.029988 0.110852 0.472930 0.267398
H53   H     H_    0.135909 0.103200 0.555942 0.275834
H54   H     H_    0.119851 0.188357 0.427528 0.278193
O25   O     O_3   0.441189 0.061113 0.289112 -0.718929
H55   H     H_    0.425482 0.107421 0.220413 0.379352
O26   O     O_3   0.561974 0.047119 0.707978 -0.728675
H56   H     H_    0.571318 0.089036 0.778697 0.376697
O27   O     O_3   0.415957 0.255618 0.306734 -0.732894
H57   H     H_    0.385057 0.308612 0.344898 0.390100
O28   O     O_3   0.589786 0.240398 0.687369 -0.694543
H58   H     H_    0.608855 0.301717 0.652992 0.420137

loop_
_geom_bond_atom_site_label_1
_geom_bond_atom_site_label_2
_ccdc_geom_bond_type
C22   O8    A    
O11   H5    S    
C4    C36   A    
O24   C52   S    
C39   H12   S    
O21   H39   S    
C24   C27   A    
C38   H10   S    
O15   H21   S    
C42   H18   S    
O6    Zn1   S    
C41   H17   S    
C37   C38   S    
C28   C29   A    
C24   O16   S    
C24   C26   A    
O22   H40   S    
C43   H24   S    
C50   C51   S    
C39   H13   S    
O28   H58   S    
C17   C20   A    
C49   H41   S    
C37   H8    S    
C7    O23   S    
C18   N2    A    
C45   H27   S    
C17   C19   A    
C14   N1    A    
C11   C15   A    
C1    O3    A    
O16   H22   S    
C2    O4    A    
C41   C42   S    
C54   H54   S    
O19   H37   S    
O14   C40   S    
C13   O27   S    
C44   H26   S    
C23   O15   S    
C9    C10   S    
O8    Zn2   S    
C39   H11   S    
C38   C39   S    
O13   C37   S    
C27   C30   A    
C9    C33   A    
O1    Zn1   S    
C46   H31   S    
C25   O17   S    
C46   H30   S    
O7    Zn2   S    
C21   O5    A    
C51   H45   S    
C42   H19   S    
C26   O18   S    
C15   C20   S    
O26   H56   S    
C41   H16   S    
O9    H3    S    
C52   C53   S    
C4    C6    A    
C40   H15   S    
C43   H23   S    
C6    C8    A    
C5    O21   S    
C25   C26   A    
O17   C43   S    
C21   C29   S    
C47   C48   S    
C33   H1    S    
C37   H7    S    
C1    C3    S    
C53   H51   S    
C52   H49   S    
C6    O22   S    
C31   C32   A    
C12   C15   A    
C3    C35   A    
C16   C20   A    
O18   C46   S    
N1    Zn2   S    
C45   H28   S    
O5    Zn1   S    
C12   O26   S    
C10   C34   A    
C16   C18   A    
C23   C28   A    
C44   C45   S    
N2    Zn1   S    
C50   H44   S    
C1    O1    A    
C22   O6    A    
C12   C14   A    
C54   H52   S    
C48   H35   S    
C53   C54   S    
C51   H46   S    
C52   H48   S    
C36   O20   S    
C32   O10   S    
C48   H34   S    
C46   C47   S    
C5    C7    A    
C47   H33   S    
C42   H20   S    
O4    Zn2   S    
C7    C9    A    
C14   O28   S    
C22   C30   S    
C34   H2    S    
C31   O9    S    
C3    C5    A    
C43   C44   S    
C40   C41   S    
C50   H43   S    
O3    Zn2   S    
O10   H4    S    
O25   H55   S    
C49   C50   S    
C51   H47   S    
C53   H50   S    
C11   O25   S    
C16   O11   S    
C40   H14   S    
C29   C31   A    
O20   H38   S    
C30   C32   A    
C11   C13   A    
O12   H6    S    
C2    O2    A    
C2    C4    S    
C47   H32   S    
C33   C35   A    
C49   H42   S    
C48   H36   S    
C34   C36   A    
C45   H29   S    
C13   N1    A    
C35   O19   S    
C19   N2    A    
O2    Zn1   S    
C38   H9    S    
C18   O13   S    
C23   C25   A    
C8    C10   A    
C27   C28   A    
C54   H53   S    
C19   O14   S    
O23   C49   S    
C44   H25   S    
O27   H57   S    
C8    O24   S    
C17   O12   S    
C21   O7    A    
