data_mof_unit_16928.cif
_audit_creation_date              2012-12-10T17:47:44-0500
_audit_creation_method            fapswitch 2.2
_symmetry_space_group_name_H-M    P1
_symmetry_Int_Tables_number       1
_space_group_crystal_system       triclinic
_cell_length_a                    14.723941
_cell_length_b                    14.740325
_cell_length_c                    14.324971
_cell_angle_alpha                 76.595546
_cell_angle_beta                  101.501291
_cell_angle_gamma                 115.36998
_cell_volume                      2714.90016092

loop_
_atom_site_label
_atom_site_type_symbol
_atom_type_description
_atom_site_fract_x
_atom_site_fract_y
_atom_site_fract_z
_atom_type_partial_charge
C1    C     C_R   0.879938 0.311980 0.517448 0.817482
C2    C     C_R   0.119457 0.688109 0.486491 0.820155
C3    C     C_R   0.633987 0.082647 0.548381 0.091758
C4    C     C_R   0.353756 0.927563 0.519723 0.091975
C5    C     C_R   0.668870 0.007844 0.601893 0.092156
C6    C     C_R   0.319406 0.003091 0.466967 0.089244
C7    C     C_R   0.527975 0.058030 0.527967 0.082916
C8    C     C_R   0.458473 0.955801 0.554338 0.084641
C9    C     C_R   0.496576 0.885015 0.611872 -0.226633
C10   C     C_R   0.489030 0.132006 0.482037 -0.225543
C11   C     C_R   0.599758 0.910825 0.635026 -0.203087
C12   C     C_R   0.386571 0.104781 0.452784 -0.200943
C13   C     C_R   0.704506 0.638553 0.315558 0.146943
C14   C     C_R   0.266095 0.313219 0.648050 0.142570
C15   C     C_R   0.793027 0.623886 0.357004 -0.009671
C16   C     C_R   0.193815 0.355858 0.626830 -0.002304
C17   C     C_R   0.712737 0.511171 0.492449 0.369714
C18   C     C_R   0.286013 0.484225 0.505510 0.373372
C19   C     C_R   0.617624 0.513671 0.450355 -0.084431
C20   C     C_R   0.357594 0.440054 0.517731 -0.079198
C21   C     C_R   0.615450 0.580634 0.361614 0.036280
C22   C     C_R   0.349446 0.356917 0.593582 0.032410
C23   C     C_R   0.999631 0.499818 0.668646 0.799369
C24   C     C_R   0.000361 0.500208 0.331346 0.804690
C25   C     C_R   0.525335 0.454717 0.494348 0.092588
C26   C     C_R   0.440008 0.479243 0.460250 0.090181
C27   C     C_R   0.437534 0.536961 0.367252 -0.197725
C28   C     C_R   0.512216 0.368206 0.566569 -0.195599
C29   C     C_R   0.523192 0.586333 0.318970 -0.195308
C30   C     C_R   0.425717 0.319669 0.614107 -0.184251
C31   C     C_1   0.999177 0.499955 0.770891 -0.197941
C32   C     C_1   0.000694 0.500113 0.229049 -0.199326
C33   C     C_1   0.999187 0.500024 0.856354 -0.015613
C34   C     C_1   0.000510 0.500096 0.143530 -0.011578
C35   C     C_1   0.999560 0.500069 0.957134 0.000825
C36   C     C_1   0.000011 0.500087 0.042710 0.001979
C37   C     C_R   0.810509 0.203944 0.539414 -0.159334
C38   C     C_R   0.184982 0.797550 0.482579 -0.152238
C39   C     C_R   0.772838 0.030740 0.622288 -0.284244
C40   C     C_R   0.218422 0.976196 0.426590 -0.288256
C41   C     C_R   0.844130 0.127931 0.590504 0.501506
C42   C     C_R   0.150645 0.873924 0.433783 0.502673
C43   C     C_R   0.706561 0.179065 0.515431 -0.339770
C44   C     C_R   0.283225 0.825597 0.530036 -0.347915
Cu1   Cu    Cu3+1 0.081740 0.475690 0.523180 0.933987
Cu2   Cu    Cu3+1 0.918260 0.524310 0.476820 0.930805
H1    H     H_    0.625643 0.853708 0.678151 0.142315
H2    H     H_    0.360300 0.163610 0.415632 0.149391
H3    H     H_    0.368425 0.542148 0.329006 0.171395
H4    H     H_    0.565338 0.332659 0.584181 0.166713
H5    H     H_    0.303058 0.765492 0.572802 0.172283
H6    H     H_    0.684128 0.236973 0.470370 0.176361
H7    H     H_    0.799132 0.973500 0.664296 0.147252
H8    H     H_    0.192988 0.034378 0.385500 0.147609
H9    H     H_    0.448634 0.808942 0.641523 0.138318
H10   H     H_    0.535557 0.212197 0.467650 0.140765
H11   H     H_    0.516207 0.629891 0.247913 0.160748
H12   H     H_    0.421044 0.254360 0.669447 0.163585
H13   H     H_    0.126803 0.321661 0.663717 0.191283
H14   H     H_    0.861285 0.662127 0.321931 0.182508
N1    N     N_R   0.795420 0.560790 0.441960 -0.217525
N2    N     N_R   0.204580 0.439210 0.558040 -0.221471
O1    O     O_R   0.977910 0.338120 0.530560 -0.534604
O2    O     O_R   0.022090 0.661880 0.469440 -0.534691
O3    O     O_R   0.839850 0.379180 0.491410 -0.599992
O4    O     O_R   0.160150 0.620820 0.508590 -0.580186
O5    O     O_R   0.069040 0.479460 0.643530 -0.560712
O6    O     O_R   0.930960 0.520540 0.356470 -0.559960
O7    O     O_R   0.930990 0.520530 0.604380 -0.566199
O8    O     O_R   0.069010 0.479470 0.395620 -0.578892
O9    O     O_3   0.054158 0.848572 0.385097 -0.575150
C45   C     C_3   0.995553 0.871622 0.435368 -0.326081
H15   H     H_    0.994307 0.832221 0.511822 0.161967
H16   H     H_    0.916440 0.844073 0.400246 0.185524
H17   H     H_    0.022771 0.955135 0.432223 0.146057
O10   O     O_3   0.946009 0.150449 0.617204 -0.584959
C46   C     C_3   0.979623 0.111555 0.556084 -0.345213
H18   H     H_    0.062367 0.133908 0.574421 0.190712
H19   H     H_    0.966311 0.144063 0.478836 0.165092
H20   H     H_    0.943213 0.026929 0.566770 0.151165
N3    N     N_2   0.305358 0.581149 0.446974 -0.440775
H21   H     H_    0.245467 0.594003 0.405265 0.288770
C47   C     C_3   0.383861 0.666024 0.488883 -0.669709
H22   H     H_    0.384075 0.738852 0.445014 0.231909
H23   H     H_    0.459322 0.665761 0.490324 0.233338
H24   H     H_    0.371660 0.660496 0.564254 0.221580
N4    N     N_2   0.724564 0.465460 0.590222 -0.443498
H25   H     H_    0.759939 0.416110 0.605426 0.283469
C48   C     C_3   0.747175 0.530773 0.660488 -0.661689
H26   H     H_    0.752430 0.487431 0.734459 0.224786
H27   H     H_    0.686002 0.557914 0.653277 0.224523
H28   H     H_    0.820124 0.597517 0.650194 0.236548
N5    N     N_2   0.703006 0.709846 0.228625 -0.434519
H29   H     H_    0.672033 0.759550 0.232560 0.250604
C49   C     C_3   0.787889 0.755318 0.172263 -0.690532
H30   H     H_    0.768534 0.799928 0.103473 0.230706
H31   H     H_    0.804816 0.695236 0.154215 0.237864
H32   H     H_    0.855360 0.807691 0.212412 0.235221
N6    N     N_2   0.254643 0.225140 0.720597 -0.434906
H33   H     H_    0.252122 0.163583 0.695955 0.246976
C50   C     C_3   0.189499 0.198825 0.794762 -0.682592
H34   H     H_    0.203688 0.140487 0.853081 0.231168
H35   H     H_    0.108834 0.166446 0.764350 0.251294
H36   H     H_    0.205941 0.266772 0.826865 0.234747

loop_
_geom_bond_atom_site_label_1
_geom_bond_atom_site_label_2
_ccdc_geom_bond_type
C7    C10   A    
N4    H25   S    
N5    H29   S    
C27   C29   A    
C15   H14   S    
C23   O7    A    
C11   H1    S    
C35   C36   T    
C12   H2    S    
N3    H21   S    
C49   H32   S    
C24   O8    A    
C7    C8    A    
C39   C41   A    
C46   H18   S    
C25   C28   A    
C38   C44   A    
C3    C43   A    
C26   C27   A    
C50   H34   S    
C19   C21   A    
C5    C11   A    
C3    C7    A    
C6    C12   A    
C33   C35   S    
C43   H6    S    
Cu1   N2    S    
C18   N3    S    
C23   O5    A    
Cu2   O7    S    
C17   N1    A    
C28   H4    S    
C49   H30   S    
C8    C9    A    
Cu1   O5    S    
C1    O3    A    
C31   C33   T    
C9    H9    S    
C48   H27   S    
C10   H10   S    
C18   C20   A    
C4    C8    A    
C40   C42   A    
C50   H35   S    
C16   N2    A    
C45   H17   S    
C1    O1    A    
N3    C47   S    
C2    O2    A    
C46   H19   S    
Cu2   N1    S    
C14   N6    S    
C6    C40   A    
O10   C46   S    
Cu2   O3    S    
C45   H16   S    
C18   N2    A    
C4    C44   A    
C3    C5    A    
C25   C26   A    
Cu1   Cu2   S    
C21   C29   A    
Cu1   O1    S    
Cu2   O2    S    
C16   H13   S    
C23   C31   S    
C37   C43   A    
C24   C32   S    
Cu2   O6    S    
C2    C38   S    
C47   H22   S    
C15   N1    A    
C13   C21   A    
C48   H28   S    
C9    C11   A    
C10   C12   A    
C44   H5    S    
C4    C6    A    
N6    C50   S    
C29   H11   S    
C50   H36   S    
C40   H8    S    
C13   C15   A    
C14   C16   A    
C46   H20   S    
C22   C30   A    
C47   H23   S    
Cu1   O8    S    
C17   N4    S    
C20   C22   A    
C45   H15   S    
C2    O4    A    
C49   H31   S    
C38   C42   A    
C1    C37   S    
N6    H33   S    
C14   C22   A    
C5    C39   A    
O9    C45   S    
C41   O10   S    
C39   H7    S    
C20   C26   A    
C30   H12   S    
C28   C30   A    
C42   O9    S    
C17   C19   A    
C34   C36   S    
C37   C41   A    
C19   C25   A    
C24   O6    A    
C47   H24   S    
N5    C49   S    
C13   N5    S    
Cu1   O4    S    
N4    C48   S    
C48   H26   S    
C27   H3    S    
C32   C34   T    
