data_mof_unit_66733.cif
_audit_creation_date              2013-03-05T15:40:27-0500
_audit_creation_method            fapswitch 2.2
_symmetry_space_group_name_H-M    P1
_symmetry_Int_Tables_number       1
_space_group_crystal_system       triclinic
_cell_length_a                    8.616037
_cell_length_b                    15.636616
_cell_length_c                    16.897411
_cell_angle_alpha                 97.252867
_cell_angle_beta                  95.844593
_cell_angle_gamma                 99.017071
_cell_volume                      2213.1402933

loop_
_atom_site_label
_atom_site_type_symbol
_atom_site_description
_atom_site_fract_x
_atom_site_fract_y
_atom_site_fract_z
_atom_type_partial_charge
P1    P     P_3+3 0.037890 0.428670 0.315390 0.538631
O1    O     O_2   0.870790 0.455700 0.303190 -0.327355
O2    O     O_3   0.120480 0.453880 0.403310 -0.318073
O3    O     O_3   0.662860 0.618850 0.354340 -0.333068
O4    O     O_2   0.717745 0.555833 0.208233 -0.327884
O5    O     O_3   0.023480 0.317169 0.273505 -0.723534
O6    O     O_3   0.668514 0.716383 0.226445 -0.542799
C1    C     C_3   0.529167 0.837139 0.207952 0.736609
P2    P     P_3+3 0.680030 0.705880 0.565670 0.529616
P3    P     P_3+3 0.131802 0.776644 0.400110 0.527202
O7    O     O_2   0.855710 0.719820 0.541650 -0.213470
O8    O     O_3   0.086210 0.664250 0.395340 -0.255118
O9    O     O_2   0.020614 0.810211 0.458138 -0.321228
O10   O     O_3   0.717917 0.745463 0.671331 -0.577898
O11   O     O_3   0.061625 0.808393 0.308228 -0.645827
C2    C     C_3   0.080418 0.749284 0.240766 1.268723
H1    H     H_    0.207746 0.747276 0.238517 -0.347480
C3    C     C_3   0.007737 0.777126 0.161361 -0.142974
H2    H     H_    0.878971 0.752742 0.153650 0.221692
C4    C     C_3   0.214964 0.748904 0.670605 1.178823
C5    C     C_3   0.161815 0.833391 0.709535 -0.414755
H3    H     H_    0.243503 0.861561 0.765101 0.115392
H4    H     H_    0.167043 0.881402 0.666517 0.185619
Ba1   Ba    Ba6+2 0.854080 0.543710 0.461380 1.667145
C6    C     C_3   0.873677 0.264550 0.269885 1.063889
C7    C     C_3   0.863399 0.175148 0.213566 0.595250
C8    C     C_3   0.689289 0.683952 0.724731 1.046091
H5    H     H_    0.579056 0.637221 0.702949 -0.029587
C9    C     C_3   0.677123 0.726322 0.811030 -0.496721
H6    H     H_    0.792251 0.766027 0.838580 0.204937
H7    H     H_    0.653421 0.672991 0.848288 0.159497
P4    P     P_3+3 0.151830 0.571400 0.684620 0.510964
O12   O     O_2   0.318910 0.544330 0.696860 -0.415365
O13   O     O_3   0.069240 0.546190 0.596700 -0.355621
O14   O     O_3   0.526850 0.381230 0.645670 -0.384104
O15   O     O_3   0.192401 0.685434 0.722693 -0.656562
P5    P     P_3+3 0.049697 0.222290 0.607225 0.393562
O16   O     O_3   0.607560 0.392310 0.457770 -0.444276
O17   O     O_3   0.103510 0.335820 0.604670 -0.431005
O18   O     O_2   0.173214 0.181344 0.561472 -0.387603
O19   O     O_3   0.085606 0.195842 0.705471 -0.568848
Ba2   Ba    Ba6+2 0.335760 0.456360 0.538630 1.562051
P6    P     P_3+3 0.608386 0.611883 0.250491 0.505344
C10   C     C_3   0.584091 0.775355 0.266216 0.371300
H8    H     H_    0.472717 0.741298 0.284554 -0.042602
O20   O     O_3   0.582150 0.607760 0.542240 -0.452945
C11   C     C_3   0.365600 0.269992 0.284111 0.500692
H9    H     H_    0.256724 0.242132 0.306433 0.065859
C12   C     C_3   0.344985 0.234569 0.192113 -0.076048
H10   H     H_    0.222628 0.241003 0.169932 0.143875
P7    P     P_3+3 0.508351 0.279355 0.433833 0.497475
O21   O     O_2   0.333990 0.280210 0.458400 -0.356403
O22   O     O_3   0.493225 0.243801 0.328342 -0.564703
C13   C     C_3   0.041135 0.257414 0.764205 0.529250
H11   H     H_    0.936356 0.283281 0.739111 -0.011829
C14   C     C_3   0.991169 0.213153 0.838455 -0.442062
H12   H     H_    0.089144 0.221167 0.887823 0.199571
H13   H     H_    0.899684 0.246754 0.864798 0.137734
P8    P     P_3+3 0.579991 0.398287 0.753135 0.416513
C15   C     C_3   0.462084 0.231082 0.750407 0.551147
O23   O     O_2   0.489199 0.470639 0.784077 -0.401547
O24   O     O_3   0.502414 0.311087 0.802016 -0.585264
H14   H     H_    0.380446 0.238928 0.697656 0.160095
C16   C     C_3   0.374481 0.162263 0.796689 -0.369484
H15   H     H_    0.305149 0.106579 0.753368 0.190301
H16   H     H_    0.288909 0.192260 0.829012 0.217538
C17   C     C_R   0.290096 0.548154 0.272933 0.441691
C18   C     C_R   0.139244 0.498214 0.247190 0.259901
C19   C     C_R   0.080749 0.484506 0.164485 -0.328358
C20   C     C_R   0.177018 0.512789 0.106985 0.156631
C21   C     C_R   0.336159 0.551920 0.134115 -0.415143
C22   C     C_R   0.393489 0.569381 0.216455 0.026727
C23   C     C_R   0.099472 0.544904 0.847387 0.017556
C24   C     C_R   0.045478 0.518614 0.762965 0.218065
C25   C     C_R   0.001703 0.513348 0.905374 0.099955
N1    N     N_2   0.125687 0.486093 0.022604 -0.062856
N2    N     N_2   0.047831 0.536951 0.990821 -0.048999
C26   C     C_R   0.896058 0.466231 0.738671 -0.195631
H17   H     H_    0.418593 0.566367 0.091966 0.184867
C27   C     C_R   0.792826 0.444151 0.794272 0.173712
C28   C     C_R   0.846832 0.466134 0.878118 -0.026818
H18   H     H_    0.963992 0.446654 0.144286 0.202388
C29   C     C_R   0.743524 0.228849 0.536852 -0.471542
C30   C     C_R   0.845872 0.172324 0.557523 0.261009
C31   C     C_R   0.795364 0.080498 0.537003 -0.380574
C32   C     C_R   0.641182 0.043644 0.495007 -0.020895
C33   C     C_R   0.559267 0.106895 0.460702 0.597611
C34   C     C_R   0.605580 0.198280 0.484979 0.164550
C35   C     C_R   0.402011 0.911382 0.460227 -0.016969
C36   C     C_R   0.341421 0.820287 0.444439 0.125543
C37   C     C_R   0.586225 0.787429 0.508996 0.117009
C38   C     C_R   0.655606 0.877991 0.515282 0.570208
C39   C     C_R   0.567520 0.943579 0.488494 -0.077908
C40   C     C_R   0.433907 0.760248 0.468731 -0.461667
H19   H     H_    0.876200 0.041107 0.559059 0.244882
H20   H     H_    0.381231 0.692059 0.463001 0.250580
H21   H     H_    0.780299 0.298242 0.552817 0.159553
N3    N     N_2   0.680589 0.820793 0.340211 -0.142771
H22   H     H_    0.727336 0.778783 0.374315 0.235448
C41   C     C_3   0.791098 0.901103 0.341438 -0.711407
H23   H     H_    0.871448 0.916542 0.398718 0.255474
H24   H     H_    0.727214 0.956342 0.339105 0.239593
H25   H     H_    0.863457 0.896250 0.291453 0.315741
N4    N     N_2   0.006428 0.819677 0.733622 -0.015125
H26   H     H_    0.003388 0.782257 0.779475 0.233705
C42   C     C_3   0.948870 0.900892 0.754387 -0.757687
H27   H     H_    0.826937 0.887430 0.770289 0.251100
H28   H     H_    0.945369 0.938098 0.702582 0.288319
H29   H     H_    0.027003 0.941585 0.806405 0.220921
F1    F     F_    0.758877 0.305103 0.236050 -0.743046
N5    N     N_2   0.841400 0.250156 0.350251 -0.147163
H30   H     H_    0.747209 0.202165 0.353296 0.193998
C43   C     C_3   0.973038 0.252866 0.411100 -0.844868
H31   H     H_    0.970149 0.188123 0.430793 0.228652
H32   H     H_    0.969329 0.305096 0.460986 0.273695
H33   H     H_    0.087215 0.268057 0.389440 0.280846
N6    N     N_2   0.824705 0.184504 0.128931 -0.103705
H34   H     H_    0.771880 0.127060 0.092663 0.202675
C44   C     C_3   0.930464 0.240666 0.088478 -1.030062
H35   H     H_    0.017151 0.203956 0.062176 0.245006
H36   H     H_    0.993074 0.299358 0.128996 0.282649
H37   H     H_    0.860348 0.262721 0.038487 0.276962
F2    F     F_    0.738459 0.116266 0.230644 -0.759361
N7    N     N_2   0.007924 0.137950 0.225010 -0.145994
H38   H     H_    0.041749 0.109568 0.172656 0.183185
C45   C     C_3   0.028735 0.086878 0.290521 -0.871482
H39   H     H_    0.133341 0.118248 0.333685 0.270770
H40   H     H_    0.051061 0.021173 0.267242 0.254851
H41   H     H_    0.924396 0.078230 0.323676 0.281108
F3    F     F_    0.820992 0.645315 0.735879 -0.780815
F4    F     F_    0.660488 0.889521 0.188608 -0.706651
N8    N     N_2   0.553922 0.778796 0.815795 -0.085538
H42   H     H_    0.443445 0.741023 0.805148 0.216168
C46   C     C_3   0.570849 0.839547 0.889289 -0.927272
H43   H     H_    0.464578 0.871450 0.891452 0.253789
H44   H     H_    0.676418 0.890731 0.892073 0.257844
H45   H     H_    0.585152 0.804702 0.942182 0.256997
N9    N     N_2   0.425495 0.889777 0.246698 -0.165283
H46   H     H_    0.388905 0.874420 0.299945 0.114548
C47   C     C_3   0.449138 0.981530 0.241110 -0.683287
H47   H     H_    0.340537 0.007580 0.253949 0.244707
H48   H     H_    0.477632 0.992430 0.180478 0.285816
H49   H     H_    0.547733 0.016994 0.285409 0.320159
N10   N     N_2   0.377615 0.363543 0.295465 -0.133159
H50   H     H_    0.297823 0.381762 0.254858 0.080278
C48   C     C_3   0.531671 0.414238 0.296612 -0.512597
H51   H     H_    0.551574 0.427192 0.235451 0.222531
H52   H     H_    0.625522 0.381559 0.319941 0.296035
H53   H     H_    0.540130 0.473910 0.339263 0.267509
N11   N     N_2   0.358077 0.143211 0.178686 -0.093884
H54   H     H_    0.467693 0.134203 0.202350 0.284366
C49   C     C_3   0.315170 0.099885 0.096592 -1.004758
H55   H     H_    0.286482 0.028325 0.095622 0.257721
H56   H     H_    0.415722 0.114794 0.061730 0.278236
H57   H     H_    0.209015 0.120474 0.067388 0.254223
N12   N     N_2   0.455599 0.284574 0.148113 -0.071406
H58   H     H_    0.551403 0.256005 0.134894 0.276946
C50   C     C_3   0.386125 0.318796 0.079785 -0.940386
H59   H     H_    0.479936 0.360894 0.055378 0.264431
H60   H     H_    0.296770 0.358584 0.098215 0.257097
H61   H     H_    0.329293 0.264491 0.031830 0.260679
N13   N     N_2   0.443328 0.787063 0.133295 -0.128012
H62   H     H_    0.495022 0.735777 0.110203 0.182537
C51   C     C_3   0.401427 0.838627 0.071174 -0.905982
H63   H     H_    0.347064 0.795447 0.015090 0.262266
H64   H     H_    0.507509 0.881911 0.057764 0.286846
H65   H     H_    0.313296 0.878780 0.089571 0.258128
N14   N     N_2   0.073694 0.737143 0.092591 -0.102578
H66   H     H_    0.095892 0.675401 0.098678 0.202016
C52   C     C_3   0.994248 0.740438 0.013204 -0.892371
H67   H     H_    0.034551 0.694948 0.967345 0.262388
H68   H     H_    0.026098 0.805955 0.995440 0.263633
H69   H     H_    0.863771 0.722058 0.010742 0.244412
N15   N     N_2   0.173046 0.330457 0.787405 -0.099933
H70   H     H_    0.186789 0.374614 0.747428 0.220203
C53   C     C_3   0.224189 0.367252 0.870915 -0.927805
H71   H     H_    0.296714 0.432358 0.874791 0.296820
H72   H     H_    0.300124 0.326728 0.900575 0.275083
H73   H     H_    0.121204 0.372237 0.903851 0.232019
N16   N     N_2   0.932947 0.120108 0.819554 -0.057367
H74   H     H_    0.847401 0.102009 0.771080 0.219526
C54   C     C_3   0.893753 0.079295 0.888949 -0.942472
H75   H     H_    0.831801 0.011520 0.869338 0.245633
H76   H     H_    0.814358 0.115172 0.923101 0.259993
H77   H     H_    0.003389 0.077916 0.929126 0.256619
N17   N     N_2   0.601827 0.203151 0.722902 -0.121306
H78   H     H_    0.695854 0.212277 0.767061 0.155708
C55   C     C_3   0.574648 0.119425 0.672292 -1.067748
H79   H     H_    0.688154 0.098812 0.664415 0.280734
H80   H     H_    0.510082 0.125971 0.614481 0.273453
H81   H     H_    0.508301 0.066155 0.698998 0.261117
N18   N     N_2   0.478068 0.130490 0.855493 -0.085573
H82   H     H_    0.578917 0.112857 0.835626 0.216934
C56   C     C_3   0.397430 0.062410 0.894469 -0.932158
H83   H     H_    0.482013 0.044557 0.941115 0.253534
H84   H     H_    0.350409 0.003207 0.849875 0.248279
H85   H     H_    0.297924 0.085200 0.923024 0.268759
F5    F     F_    0.003638 0.665922 0.245417 -0.677875
N19   N     N_2   0.244471 0.607264 0.870472 -0.085012
H86   H     H_    0.320476 0.610264 0.827969 0.231755
C57   C     C_3   0.336080 0.617533 0.948363 -0.982921
H87   H     H_    0.449891 0.662203 0.949133 0.244091
H88   H     H_    0.364286 0.553906 0.960775 0.264066
H89   H     H_    0.274952 0.648053 0.995665 0.281208
N20   N     N_2   0.745851 0.443210 0.936579 -0.098610
H90   H     H_    0.665774 0.386100 0.920586 0.221058
C58   C     C_3   0.679000 0.514766 0.974546 -0.822496
H91   H     H_    0.591581 0.489803 0.013467 0.231382
H92   H     H_    0.619886 0.547176 0.928280 0.255623
H93   H     H_    0.772017 0.563661 0.013093 0.264442
F6    F     F_    0.342851 0.566176 0.352513 -0.697057
N21   N     N_2   0.837851 0.443974 0.656379 -0.142962
H94   H     H_    0.913512 0.421354 0.619525 0.184542
C59   C     C_3   0.752241 0.506607 0.625078 -0.439624
H95   H     H_    0.687516 0.478609 0.568236 0.261373
H96   H     H_    0.827592 0.567237 0.617514 0.262174
H97   H     H_    0.661972 0.522344 0.662568 0.222523
N22   N     N_2   0.291247 0.969157 0.452611 -0.058396
H98   H     H_    0.214121 0.954924 0.400072 0.221322
C60   C     C_3   0.214127 0.989773 0.522872 -0.700057
H99   H     H_    0.114448 0.023576 0.506396 0.253181
H100  H     H_    0.298084 0.032124 0.570610 0.230041
H101  H     H_    0.166681 0.930308 0.547233 0.253361
F7    F     F_    0.806422 0.899814 0.551240 -0.711332
F8    F     F_    0.445439 0.083384 0.397382 -0.729641
N23   N     N_2   0.033524 0.872008 0.166273 -0.106095
H102  H     H_    0.147941 0.903591 0.181969 0.174018
C61   C     C_3   0.939648 0.912023 0.109861 -0.735982
H103  H     H_    0.012672 0.936854 0.064487 0.199442
H104  H     H_    0.898514 0.968502 0.142204 0.294018
H105  H     H_    0.833194 0.865835 0.079195 0.278182
N24   N     N_2   0.382285 0.768319 0.662234 -0.150997
H106  H     H_    0.412702 0.722486 0.620806 0.157963
C62   C     C_3   0.462045 0.858805 0.664937 -1.086546
H107  H     H_    0.588131 0.862604 0.658659 0.318345
H108  H     H_    0.464266 0.898444 0.724208 0.271463
H109  H     H_    0.405470 0.889970 0.617246 0.256999
F9    F     F_    0.131118 0.719956 0.595732 -0.650793

loop_
_geom_bond_atom_site_label_1
_geom_bond_atom_site_label_2
_geom_bond_distance
_ccdc_geom_bond_type
C56   H84   1.110432 S    
C33   C34   1.417505 A    
O2    Ba2   2.785973 S    
P6    C22   1.871261 S    
C4    N24   1.451100 S    
C27   C28   1.426389 A    
C8    C9    1.544449 S    
Ba1   Ba2   4.681572 S    
C57   H87   1.109073 S    
C12   N12   1.459439 S    
N5    H30   1.025542 S    
O13   Ba2   3.054667 S    
C7    N6    1.465878 S    
P2    C37   1.915739 S    
C46   H45   1.110141 S    
N4    C42   1.449875 S    
C11   C12   1.565388 S    
C31   C32   1.437079 A    
C10   H8    1.114669 S    
C45   H39   1.105484 S    
C7    N7    1.460379 S    
C12   N11   1.441796 S    
C55   H81   1.105635 S    
O12   Ba2   2.876595 S    
P4    O15   1.784582 S    
C1    N9    1.455157 S    
N12   H58   1.028969 S    
C47   H48   1.105077 S    
O16   Ba2   3.065195 S    
P5    O18   1.548008 D    
P2    O20   1.610892 S    
P3    O11   1.766363 S    
N6    C44   1.447869 S    
P4    C24   1.886624 S    
O3    Ba1   2.811187 S    
C59   H96   1.091408 S    
N14   C52   1.453333 S    
O5    C6    1.408893 S    
C42   H27   1.105751 S    
O11   C2    1.413650 S    
N24   H106  1.020743 S    
O7    Ba1   2.909296 S    
P1    C18   1.869991 S    
C14   H12   1.105086 S    
C52   H69   1.111000 S    
C45   H40   1.105710 S    
C15   O24   1.404575 S    
P1    O1    1.564060 D    
Ba2   O20   2.911489 S    
C12   H10   1.106477 S    
O14   Ba2   2.810441 S    
N15   H70   1.027373 S    
N4    H26   1.028191 S    
C19   H18   1.082242 S    
C3    N23   1.455752 S    
C50   H61   1.110205 S    
C35   N22   1.420577 S    
C54   H75   1.102651 S    
C5    N4    1.430764 S    
C10   N3    1.462267 S    
C5    H4    1.108085 S    
C53   H73   1.102019 S    
C11   H9    1.094299 S    
C55   H80   1.098470 S    
N8    H42   1.024376 S    
C33   F8    1.347496 S    
C58   H93   1.107698 S    
Ba1   O16   2.912161 S    
C47   H49   1.098856 S    
P5    C30   1.871819 S    
C17   F6    1.354214 S    
C20   C21   1.415212 A    
O6    P6    1.746052 S    
O10   C8    1.410747 S    
O1    Ba1   2.875968 S    
N13   C51   1.452593 S    
C24   C26   1.404909 A    
C11   O22   1.409440 S    
C43   H33   1.086360 S    
C53   H72   1.106389 S    
C29   C34   1.383236 A    
O4    P6    1.550385 D    
N19   H86   1.020550 S    
N21   H94   1.018434 S    
P5    O19   1.769626 S    
C5    H3    1.111198 S    
C50   H60   1.107626 S    
C57   H88   1.100452 S    
O2    Ba1   3.053782 S    
C62   H108  1.105992 S    
C61   H104  1.104486 S    
C60   H99   1.106913 S    
C16   N18   1.453872 S    
O16   P7    1.813785 S    
N16   C54   1.448568 S    
C36   C40   1.396431 A    
O17   Ba2   2.933555 S    
C48   H52   1.088958 S    
N20   C58   1.446130 S    
C23   C24   1.441237 A    
C47   H47   1.107722 S    
O14   P8    1.802310 S    
C13   C14   1.572985 S    
P8    O23   1.541617 D    
C48   H51   1.102971 S    
C17   C18   1.403317 A    
C38   F7    1.349816 S    
C30   C31   1.420909 A    
N10   C48   1.432362 S    
C37   C38   1.434462 A    
C3    N14   1.458273 S    
C59   H95   1.064615 S    
C3    H2    1.103930 S    
C4    O15   1.411512 S    
C46   H44   1.106208 S    
C56   H85   1.109704 S    
C45   H41   1.106310 S    
C6    C7    1.573485 S    
N20   H90   1.026877 S    
C11   N10   1.437010 S    
P3    O9    1.540672 D    
C41   H25   1.101678 S    
Ba1   O13   2.785374 S    
C21   H17   1.075225 S    
C58   H91   1.107136 S    
C55   H79   1.092023 S    
P1    O2    1.554904 S    
C62   H109  1.103673 S    
P4    O13   1.554905 S    
P8    C27   1.887480 S    
N7    C45   1.457028 S    
P2    O10   1.793389 S    
C9    H6    1.107271 S    
C32   C39   1.579277 S    
C48   H53   1.092476 S    
P2    O7    1.596079 D    
N22   C60   1.444348 S    
C29   C30   1.392963 A    
C49   H57   1.106443 S    
C9    H7    1.113041 S    
C1    F4    1.382149 S    
N24   C62   1.465875 S    
N5    C43   1.442846 S    
O6    C10   1.408663 S    
N1    N2    1.253994 D    
C40   H20   1.079594 S    
C25   N2    1.442725 S    
N19   C57   1.440973 S    
C7    F2    1.381836 S    
C43   H31   1.102300 S    
C44   H36   1.101340 S    
P3    O8    1.729408 S    
C6    F1    1.371241 S    
C2    C3    1.563261 S    
N14   H66   1.028666 S    
C41   H24   1.097175 S    
C49   H56   1.107821 S    
N3    H22   1.028124 S    
N23   C61   1.451406 S    
C15   H14   1.109643 S    
C29   H21   1.073067 S    
C50   H59   1.107414 S    
C57   H89   1.100997 S    
N11   C49   1.449012 S    
C62   H107  1.095354 S    
C23   C25   1.439807 A    
N17   C55   1.442422 S    
C26   N21   1.409700 S    
C8    H5    1.102194 S    
C17   C22   1.405320 A    
C2    F5    1.381692 S    
N16   H74   1.023413 S    
C28   N20   1.424079 S    
N13   H62   1.030588 S    
C14   N16   1.446259 S    
C44   H37   1.110127 S    
C13   H11   1.112750 S    
C51   H63   1.105555 S    
P8    O24   1.760473 S    
C15   N17   1.443603 S    
C32   C33   1.446578 A    
C18   C19   1.414220 A    
C51   H65   1.102579 S    
C25   C28   1.420519 A    
C1    C10   1.554073 S    
N21   C59   1.435528 S    
N10   H50   1.019456 S    
C53   H71   1.098441 S    
C59   H97   1.089834 S    
P7    C34   1.875612 S    
C44   H35   1.105646 S    
P2    Ba1   3.519436 S    
C46   H43   1.110845 S    
N9    C47   1.433622 S    
O3    P6    1.754815 S    
O8    Ba1   2.932912 S    
N3    C41   1.448655 S    
C60   H100  1.099363 S    
C15   C16   1.554798 S    
Ba1   O20   3.066161 S    
N18   H82   1.027060 S    
C13   N15   1.462610 S    
C51   H64   1.109888 S    
C35   C36   1.419606 A    
P7    O21   1.600416 D    
P5    O17   1.770227 S    
C1    N13   1.459639 S    
N6    H34   1.032276 S    
P4    O12   1.564215 D    
C37   C40   1.391470 A    
C20   N1    1.437431 S    
C31   H19   1.069081 S    
N22   H98   1.030960 S    
C2    H1    1.106778 S    
C42   H28   1.111002 S    
C4    F9    1.376293 S    
C23   N19   1.444512 S    
C16   H15   1.112571 S    
N12   C50   1.446842 S    
C38   C39   1.457381 A    
N15   C53   1.450977 S    
C14   H13   1.112533 S    
C56   H83   1.110245 S    
C26   C27   1.396017 A    
C60   H101  1.101319 S    
C35   C39   1.445920 A    
C19   C20   1.408982 A    
C54   H76   1.111135 S    
O19   C13   1.417932 S    
N9    H46   1.027220 S    
C6    N5    1.451417 S    
C61   H103  1.109643 S    
C9    N8    1.442309 S    
C21   C22   1.405768 A    
C4    C5    1.555389 S    
P3    C36   1.870237 S    
P1    Ba1   3.521011 S    
N8    C46   1.444874 S    
N23   H102  1.023302 S    
C52   H67   1.104570 S    
Ba2   O21   2.909389 S    
P1    O5    1.777298 S    
C58   H92   1.107823 S    
C8    F3    1.374142 S    
P4    Ba2   3.521635 S    
N11   H54   1.025050 S    
C41   H23   1.107480 S    
C49   H55   1.105118 S    
C52   H68   1.105099 S    
P7    O22   1.784158 S    
N17   H78   1.023333 S    
C54   H77   1.110467 S    
C61   H105  1.110162 S    
C16   H16   1.089799 S    
N7    H38   1.028799 S    
C43   H32   1.103821 S    
C42   H29   1.111162 S    
N18   C56   1.445016 S    
