data_mof_unit_42186.cif
_audit_creation_date              2012-12-11T14:03:24-0500
_audit_creation_method            fapswitch 2.2
_symmetry_space_group_name_H-M    P1
_symmetry_Int_Tables_number       1
_space_group_crystal_system       triclinic
_cell_length_a                    6.936961
_cell_length_b                    11.41188
_cell_length_c                    18.675028
_cell_angle_alpha                 90.000068
_cell_angle_beta                  92.770619
_cell_angle_gamma                 90.000136
_cell_volume                      1476.6574059

loop_
_atom_site_label
_atom_site_type_symbol
_atom_type_description
_atom_site_fract_x
_atom_site_fract_y
_atom_site_fract_z
_atom_type_partial_charge
O1    O     O_R   0.330540 0.606360 0.598870 -0.537551
O2    O     O_R   0.669460 0.106360 0.401130 -0.537550
O3    O     O_R   0.026770 0.620470 0.750430 -0.541201
O4    O     O_R   0.973230 0.120470 0.249570 -0.541200
O5    O     O_R   0.856460 0.393640 0.750930 -0.539534
O6    O     O_R   0.143540 0.893640 0.249070 -0.539529
C1    C     C_R   0.198489 0.648304 0.774583 0.690169
C2    C     C_R   0.801512 0.148300 0.225415 0.690176
O7    O     O_R   0.000920 0.620350 0.599420 -0.548719
O8    O     O_R   0.999080 0.120350 0.400580 -0.548720
O9    O     O_R   0.830430 0.393520 0.598850 -0.537946
O10   O     O_R   0.169570 0.893520 0.401150 -0.537946
C3    C     C_R   0.166719 0.647849 0.574534 0.767025
C4    C     C_R   0.833282 0.147849 0.425466 0.767028
O11   O     O_R   0.356570 0.606480 0.750960 -0.539132
O12   O     O_R   0.643430 0.106480 0.249040 -0.539138
O13   O     O_3   0.176990 0.425580 0.674890 -0.374025
O14   O     O_3   0.823010 0.925580 0.325110 -0.374024
V1    V     V_3+5 0.902170 0.513810 0.674910 1.412415
V2    V     V_3+5 0.097830 0.013810 0.325090 1.412418
O15   O     O_R   0.500800 0.379530 0.599380 -0.549051
O16   O     O_R   0.499200 0.879530 0.400620 -0.549050
C5    C     C_R   0.666612 0.352031 0.574505 0.765590
C6    C     C_R   0.333388 0.852031 0.425495 0.765590
O17   O     O_R   0.526650 0.379650 0.750390 -0.543701
O18   O     O_R   0.473350 0.879650 0.249610 -0.543706
C7    C     C_R   0.698365 0.351434 0.774323 0.700906
C8    C     C_R   0.301635 0.851433 0.225678 0.700902
V3    V     V_3+5 0.402160 0.486190 0.674900 1.409681
V4    V     V_3+5 0.597840 0.986190 0.325100 1.409676
O19   O     O_3   0.677210 0.574420 0.674910 -0.372529
O20   O     O_3   0.322790 0.074420 0.325090 -0.372529
C9    C     C_R   0.696250 0.071471 0.879698 -0.158279
C10   C     C_R   0.303595 0.571465 0.120303 -0.158278
H1    H     H_    0.707588 0.940523 0.996910 0.138646
H2    H     H_    0.292133 0.440513 0.003091 0.138644
H3    H     H_    0.679969 0.978495 0.869127 0.131198
H4    H     H_    0.319802 0.478484 0.130874 0.131191
C11   C     C_R   0.712936 0.269047 0.834246 -0.035650
C12   C     C_R   0.287055 0.769048 0.165753 -0.035642
C13   C     C_R   0.805814 0.350685 0.180604 -0.181292
C14   C     C_R   0.194295 0.850694 0.819392 -0.181300
C15   C     C_R   0.800588 0.432464 0.125468 -0.118018
C16   C     C_R   0.199558 0.932475 0.874529 -0.118018
C17   C     C_R   0.778382 0.396378 0.054291 -0.166799
C18   C     C_R   0.221714 0.896387 0.945707 -0.166811
C19   C     C_R   0.760275 0.276017 0.036328 0.068582
C20   C     C_R   0.239728 0.776022 0.963671 0.068581
C21   C     C_R   0.763115 0.192635 0.093317 0.066157
C22   C     C_R   0.236828 0.692637 0.906683 0.066165
C23   C     C_R   0.739837 0.235607 0.963877 0.067894
C24   C     C_R   0.260137 0.735610 0.036123 0.067894
C25   C     C_R   0.719843 0.113386 0.950258 0.137378
C26   C     C_R   0.280032 0.613384 0.049742 0.137373
C27   C     C_R   0.722551 0.033737 0.006997 -0.211204
C28   C     C_R   0.277251 0.533732 0.993005 -0.211201
C29   C     C_R   0.744449 0.072446 0.077349 -0.211212
C30   C     C_R   0.255385 0.572444 0.922652 -0.211209
C31   C     C_R   0.737759 0.312099 0.904204 -0.223703
C32   C     C_R   0.262279 0.812105 0.095795 -0.223704
C33   C     C_R   0.691287 0.149009 0.822086 -0.188292
C34   C     C_R   0.308608 0.649005 0.177914 -0.188299
C35   C     C_R   0.786669 0.231255 0.165365 -0.077567
C36   C     C_R   0.213336 0.731259 0.834633 -0.077561
H5    H     H_    0.752196 0.405677 0.909948 0.104095
H6    H     H_    0.247914 0.905687 0.090050 0.104092
H7    H     H_    0.825337 0.380611 0.235548 0.103874
H8    H     H_    0.174828 0.880621 0.764447 0.103870
H9    H     H_    0.814918 0.524829 0.137928 0.135799
H10   H     H_    0.185306 0.024843 0.862067 0.135796
H11   H     H_    0.746140 0.006883 0.119270 0.129535
H12   H     H_    0.253638 0.506878 0.880732 0.129526
C37   C     C_2   0.831967 0.233665 0.484675 -0.351641
C38   C     C_2   0.168034 0.733665 0.515325 -0.351641
H13   H     H_    0.969616 0.270410 0.503679 0.150145
H14   H     H_    0.030384 0.770409 0.496321 0.150146
C39   C     C_2   0.667944 0.266207 0.515301 -0.350858
C40   C     C_2   0.332056 0.766207 0.484699 -0.350859
H15   H     H_    0.530295 0.229462 0.496296 0.150122
H16   H     H_    0.469705 0.729463 0.503704 0.150123
H17   H     H_    0.670142 0.115506 0.767997 0.105761
H18   H     H_    0.329712 0.615497 0.232004 0.105760
H19   H     H_    0.776090 0.465175 0.014824 0.122948
H20   H     H_    0.224049 0.965185 0.985174 0.122947

loop_
_geom_bond_atom_site_label_1
_geom_bond_atom_site_label_2
_ccdc_geom_bond_type
C21   C35   A    
C22   C36   A    
O4    C2    A    
V1    O19   S    
C21   C29   A    
C19   C21   A    
O9    V1    S    
C38   H14   S    
C12   C32   A    
O3    C1    A    
C40   H16   S    
C8    C12   S    
O12   V4    S    
C10   C34   A    
C12   C34   A    
C29   H11   S    
O17   V3    S    
C17   C19   A    
O7    C3    A    
C24   C32   A    
O5    C7    A    
O7    V1    S    
O6    C8    A    
C7    C11   S    
O3    V1    S    
O14   V4    S    
C24   C26   A    
C39   H15   S    
C34   H18   S    
C32   H6    S    
C2    O12   A    
C14   H8    S    
C13   C15   A    
C17   H19   S    
C14   C16   A    
C16   C18   A    
O11   V3    S    
C18   C20   A    
C25   C27   A    
C9    C25   A    
C11   C33   A    
C26   C28   A    
H1    C27   S    
C22   C30   A    
C4    C37   S    
C13   H7    S    
O8    C4    A    
O8    V2    S    
C19   C23   A    
C1    O11   A    
O15   V3    S    
C9    H3    S    
C23   C25   A    
H2    C28   S    
C11   C31   A    
O10   V2    S    
O1    V3    S    
C5    C39   S    
C16   H10   S    
C20   C22   A    
C15   C17   A    
C18   H20   S    
C6    C40   S    
C10   C26   A    
C27   C29   A    
O16   C6    A    
O1    C3    A    
C37   H13   S    
C14   C36   A    
V2    O20   S    
C37   C39   D    
O16   V4    S    
C10   H4    S    
O18   V4    S    
O5    V1    S    
O17   C7    A    
O6    V2    S    
O10   C6    A    
O18   C8    A    
O2    V4    S    
O15   C5    A    
V3    O19   S    
C33   H17   S    
O13   V3    S    
C31   H5    S    
V4    O20   S    
C30   H12   S    
O9    C5    A    
O13   V1    S    
C28   C30   A    
O14   V2    S    
O2    C4    A    
C1    C36   S    
C2    C35   S    
O4    V2    S    
C20   C24   A    
C23   C31   A    
C3    C38   S    
C9    C33   A    
C38   C40   D    
C13   C35   A    
C15   H9    S    
