data_mof_unit_52539.cif
_audit_creation_date              2012-10-26T17:12:42-0400
_audit_creation_method            fapswitch 2.2
_symmetry_space_group_name_H-M    P1
_symmetry_Int_Tables_number       1
_space_group_crystal_system       triclinic
_cell_length_a                    28.011852
_cell_length_b                    18.678309
_cell_length_c                    16.745526
_cell_angle_alpha                 90.082116
_cell_angle_beta                  62.9326
_cell_angle_gamma                 90.082282
_cell_volume                      7801.85286801

loop_
_atom_site_label
_atom_site_type_symbol
_atom_type_description
_atom_site_fract_x
_atom_site_fract_y
_atom_site_fract_z
_atom_type_partial_charge
C1    C     C_R   0.295167 0.729337 0.328500 0.552200
C2    C     C_R   0.589438 0.999997 0.536408 0.022114
C3    C     C_R   0.700448 0.700034 0.896801 0.027237
C4    C     C_R   0.110041 0.815529 0.049924 -0.113342
C5    C     C_R   0.840060 0.092880 0.002440 -0.104989
C6    C     C_R   0.889763 0.813927 0.951733 -0.113543
C7    C     C_R   0.158744 0.102613 0.000114 -0.106490
C8    C     C_R   0.610041 0.315530 0.049925 -0.113333
C9    C     C_R   0.340060 0.592880 0.002441 -0.104988
C10   C     C_R   0.389764 0.313923 0.951734 -0.113557
C11   C     C_R   0.658745 0.602611 0.000113 -0.106492
C12   C     C_R   0.136015 0.792535 0.099866 0.001942
C13   C     C_R   0.910726 0.500180 0.462914 0.022166
C14   C     C_R   0.817203 0.111581 0.946627 0.012203
C15   C     C_R   0.863836 0.794209 0.900114 0.000888
C16   C     C_R   0.186509 0.120431 0.049041 0.004207
C17   C     C_R   0.636015 0.292535 0.099867 0.001943
C18   C     C_R   0.317203 0.611581 0.946627 0.012203
C19   C     C_R   0.363838 0.294206 0.900115 0.000881
C20   C     C_R   0.686511 0.620429 0.049039 0.004208
C21   C     C_R   0.226604 0.677622 0.800019 -0.122029
C22   C     C_R   0.753159 0.289391 0.202610 -0.118840
C23   C     C_R   0.731927 0.749404 0.222884 -0.117157
C24   C     C_R   0.089437 0.499997 0.536411 0.022114
C25   C     C_R   0.245639 0.296349 0.793318 -0.114838
C26   C     C_R   0.726604 0.177621 0.800020 -0.122029
C27   C     C_R   0.253158 0.789390 0.202611 -0.118851
C28   C     C_R   0.231926 0.249406 0.222885 -0.117155
C29   C     C_R   0.745635 0.796351 0.793321 -0.114819
C30   C     C_R   0.247885 0.647895 0.853197 -0.148173
C31   C     C_R   0.722260 0.301393 0.158473 -0.141508
C32   C     C_R   0.710252 0.718026 0.171599 -0.144134
C33   C     C_R   0.278648 0.307937 0.834007 -0.142407
C34   C     C_R   0.747885 0.147894 0.853198 -0.148173
C35   C     C_R   0.583002 0.870789 0.548577 -0.118580
C36   C     C_R   0.222259 0.801393 0.158475 -0.141518
C37   C     C_R   0.210251 0.218028 0.171600 -0.144136
C38   C     C_R   0.778643 0.807941 0.834012 -0.142378
C39   C     C_R   0.928126 0.900237 0.064710 0.543415
C40   C     C_R   0.076973 0.091860 0.930652 0.564118
C41   C     C_R   0.072327 0.900749 0.934904 0.544618
C42   C     C_R   0.922143 0.089727 0.070174 0.564605
C43   C     C_R   0.428126 0.400237 0.064710 0.543415
C44   C     C_R   0.576973 0.591859 0.930652 0.564118
C45   C     C_R   0.572327 0.400750 0.934904 0.544617
C46   C     C_R   0.417135 0.129399 0.450739 -0.116474
C47   C     C_R   0.422143 0.589727 0.070174 0.564604
C48   C     C_R   0.041071 0.629810 0.526573 0.007812
C49   C     C_R   0.959180 0.370413 0.472499 0.011505
C50   C     C_R   0.958658 0.629960 0.474925 0.007186
C51   C     C_R   0.041529 0.370266 0.524285 0.009258
C52   C     C_R   0.541072 0.129810 0.526567 0.007808
C53   C     C_R   0.459180 0.870413 0.472496 0.011505
C54   C     C_R   0.458660 0.129960 0.474920 0.007186
C55   C     C_R   0.541529 0.870266 0.524282 0.009258
C56   C     C_R   0.019630 0.694743 0.515528 -0.145726
C57   C     C_R   0.417483 0.871071 0.448731 -0.114280
C58   C     C_R   0.980655 0.305485 0.483465 -0.127239
C59   C     C_R   0.979795 0.694833 0.487264 -0.146399
C60   C     C_R   0.020369 0.305395 0.511994 -0.130044
C61   C     C_R   0.519632 0.194743 0.515522 -0.145732
C62   C     C_R   0.480656 0.805485 0.483462 -0.127239
C63   C     C_R   0.479796 0.194833 0.487258 -0.146390
C64   C     C_R   0.520370 0.805395 0.511991 -0.130044
C65   C     C_R   0.978611 0.564968 0.488838 0.022954
C66   C     C_R   0.021635 0.435265 0.510249 0.023894
C67   C     C_R   0.021382 0.564907 0.511447 0.022800
C68   C     C_R   0.582661 0.129111 0.550596 -0.116256
C69   C     C_R   0.978877 0.435326 0.487609 0.023684
C70   C     C_R   0.478612 0.064969 0.488833 0.022954
C71   C     C_R   0.521635 0.935265 0.510245 0.023894
C72   C     C_R   0.521383 0.064907 0.511442 0.022800
C73   C     C_R   0.478878 0.935326 0.487605 0.023684
C74   C     C_R   0.456625 0.000170 0.478195 -0.007110
C75   C     C_R   0.543611 0.000052 0.520918 -0.007144
C76   C     C_R   0.956624 0.500170 0.478199 -0.007110
C77   C     C_R   0.043610 0.500052 0.520922 -0.007145
C78   C     C_R   0.387904 0.934409 0.455452 -0.001681
C79   C     C_R   0.083001 0.370789 0.548580 -0.118580
C80   C     C_R   0.612205 0.065739 0.544043 -0.001592
C81   C     C_R   0.612361 0.934212 0.543195 -0.002105
C82   C     C_R   0.387760 0.065939 0.456238 -0.001961
C83   C     C_R   0.887903 0.434409 0.455454 -0.001681
C84   C     C_R   0.112205 0.565739 0.544046 -0.001595
C85   C     C_R   0.112361 0.434212 0.543197 -0.002105
C86   C     C_R   0.887759 0.565939 0.456240 -0.001960
C87   C     C_R   0.336233 0.934524 0.457289 -0.026280
C88   C     C_R   0.663792 0.065546 0.542537 -0.026516
C89   C     C_R   0.663866 0.934469 0.542128 -0.025399
C90   C     C_R   0.917134 0.629399 0.450742 -0.116470
C91   C     C_R   0.336175 0.065611 0.457614 -0.025715
C92   C     C_R   0.836233 0.434524 0.457290 -0.026280
C93   C     C_R   0.163792 0.565546 0.542538 -0.026517
C94   C     C_R   0.163866 0.434469 0.542129 -0.025400
C95   C     C_R   0.836175 0.565611 0.457615 -0.025714
C96   C     C_R   0.312034 0.000026 0.457155 -0.167773
C97   C     C_R   0.687958 0.000035 0.542785 -0.169876
C98   C     C_R   0.812034 0.500027 0.457156 -0.167774
C99   C     C_R   0.187958 0.500035 0.542785 -0.169876
C100  C     C_3   0.102318 0.787293 0.201489 -0.277212
C101  C     C_R   0.917483 0.371072 0.448733 -0.114280
C102  C     C_3   0.095768 0.709677 0.233641 -0.418831
C103  C     C_3   0.847358 0.081072 0.852377 -0.275330
C104  C     C_3   0.832049 0.002951 0.847523 -0.456241
C105  C     C_3   0.898302 0.786530 0.799175 -0.277048
C106  C     C_3   0.901091 0.708800 0.768701 -0.420138
C107  C     C_3   0.187444 0.065408 0.115454 -0.274783
C108  C     C_3   0.243244 0.033104 0.083324 -0.423900
C109  C     C_3   0.602317 0.287286 0.201489 -0.277236
C110  C     C_3   0.595735 0.209664 0.233618 -0.418853
C111  C     C_3   0.347356 0.581069 0.852379 -0.275332
C112  C     C_R   0.703500 0.268179 0.671675 0.551590
C113  C     C_R   0.082660 0.629111 0.550600 -0.116260
C114  C     C_3   0.332043 0.502949 0.847531 -0.456242
C115  C     C_3   0.398304 0.286530 0.799175 -0.277045
C116  C     C_3   0.401053 0.208814 0.768676 -0.420130
C117  C     C_3   0.687443 0.565407 0.115455 -0.274774
C118  C     C_3   0.743244 0.533106 0.083336 -0.423891
C119  C     C_R   0.204688 0.737421 0.965822 0.018561
C120  C     C_R   0.764495 0.201923 0.057817 0.012262
C121  C     C_R   0.787503 0.755344 0.037256 0.014249
C122  C     C_R   0.231736 0.215179 0.941408 0.014580
C123  C     C_R   0.704687 0.237420 0.965823 0.018565
C124  C     C_R   0.264496 0.701925 0.057816 0.012263
C125  C     C_R   0.287503 0.255343 0.037257 0.014242
C126  C     C_R   0.731736 0.715178 0.941407 0.014573
C127  C     C_R   0.244626 0.683478 0.929960 0.012512
C128  C     C_R   0.704093 0.730960 0.671430 0.555005
C129  C     C_R   0.723457 0.254106 0.092310 0.010170
C130  C     C_R   0.739586 0.715379 0.078460 0.010111
C131  C     C_R   0.275122 0.263835 0.903994 0.009735
C132  C     C_R   0.744625 0.183477 0.929961 0.012511
C133  C     C_R   0.223458 0.754108 0.092308 0.010169
C134  C     C_R   0.239585 0.215380 0.078461 0.010111
C135  C     C_R   0.775120 0.763836 0.903994 0.009726
C136  C     C_R   0.275193 0.664157 0.976650 0.016256
C137  C     C_R   0.688589 0.263424 0.053301 0.022514
C138  C     C_R   0.718755 0.683097 0.024763 0.022855
C139  C     C_R   0.292807 0.275659 0.330297 0.558134
C140  C     C_R   0.309304 0.272087 0.945215 0.022224
C141  C     C_R   0.775193 0.164155 0.976651 0.016253
C142  C     C_R   0.188589 0.763426 0.053300 0.022527
C143  C     C_R   0.218754 0.183099 0.024764 0.022859
C144  C     C_R   0.809303 0.772089 0.945215 0.022200
C145  C     C_R   0.134403 0.809925 0.955632 -0.010177
C146  C     C_R   0.836039 0.136886 0.072992 -0.012319
C147  C     C_R   0.862829 0.814306 0.046399 -0.009534
C148  C     C_R   0.160461 0.146663 0.930434 -0.009576
C149  C     C_R   0.634403 0.309926 0.955632 -0.010178
C150  C     C_R   0.795167 0.229337 0.328500 0.552200
C151  C     C_R   0.336040 0.636888 0.072991 -0.012318
C152  C     C_R   0.362830 0.314305 0.046400 -0.009534
C153  C     C_R   0.660462 0.646662 0.930433 -0.009577
C154  C     C_R   0.113821 0.843733 0.901028 -0.027740
C155  C     C_R   0.871640 0.130891 0.112335 -0.024624
C156  C     C_R   0.885017 0.845582 0.099931 -0.027894
C157  C     C_R   0.125800 0.136845 0.889953 -0.025089
C158  C     C_R   0.613821 0.343733 0.901029 -0.027741
C159  C     C_R   0.371640 0.630892 0.112335 -0.024624
C160  C     C_R   0.385017 0.345582 0.099932 -0.027894
C161  C     C_R   0.203500 0.768179 0.671675 0.551590
C162  C     C_R   0.625801 0.636844 0.889953 -0.025089
C163  C     C_R   0.136959 0.827757 0.809403 -0.167423
C164  C     C_R   0.858954 0.165216 0.193418 -0.164377
C165  C     C_R   0.861465 0.830866 0.191698 -0.168297
C166  C     C_R   0.138618 0.169860 0.807898 -0.165025
C167  C     C_R   0.636960 0.327758 0.809403 -0.167423
C168  C     C_R   0.358954 0.665217 0.193418 -0.164377
C169  C     C_R   0.361464 0.330867 0.191698 -0.168297
C170  C     C_R   0.638619 0.669859 0.807897 -0.165025
C171  C     C_R   0.177698 0.776835 0.770824 -0.028798
C172  C     C_R   0.204093 0.230960 0.671430 0.555004
C173  C     C_R   0.815143 0.211030 0.231981 -0.029143
C174  C     C_R   0.813112 0.793456 0.234104 -0.025794
C175  C     C_R   0.182400 0.216154 0.768429 -0.028370
C176  C     C_R   0.677698 0.276835 0.770824 -0.028798
C177  C     C_R   0.315143 0.711030 0.231981 -0.029142
C178  C     C_R   0.313111 0.293457 0.234105 -0.025794
C179  C     C_R   0.682399 0.716154 0.768429 -0.028372
C180  C     C_R   0.195726 0.740259 0.826633 0.012876
C181  C     C_R   0.787441 0.229984 0.181236 0.014571
C182  C     C_R   0.785725 0.773532 0.183423 0.010284
C183  C     C_R   0.792807 0.775658 0.330296 0.558133
C184  C     C_R   0.209653 0.237950 0.818363 0.012801
C185  C     C_R   0.695725 0.240259 0.826633 0.012876
C186  C     C_R   0.287442 0.729985 0.181236 0.014565
C187  C     C_R   0.285724 0.273533 0.183424 0.010285
C188  C     C_R   0.709652 0.737950 0.818363 0.012807
C189  C     C_R   0.196577 0.631718 0.527514 0.551431
C190  C     C_R   0.803432 0.368299 0.472453 0.555511
C191  C     C_R   0.803394 0.631697 0.472577 0.562012
C192  C     C_R   0.196618 0.368337 0.527336 0.548665
C193  C     C_R   0.696577 0.131718 0.527513 0.551432
C194  C     C_R   0.410727 0.000180 0.462911 0.022166
C195  C     C_R   0.303432 0.868299 0.472452 0.555512
C196  C     C_R   0.303394 0.131697 0.472576 0.562012
C197  C     C_R   0.696618 0.868337 0.527336 0.548664
C198  C     C_R   0.178638 0.763308 0.915642 0.030302
C199  C     C_R   0.796049 0.189625 0.103866 0.029901
C200  C     C_R   0.812407 0.780428 0.088990 0.026302
C201  C     C_R   0.200448 0.200035 0.896802 0.027234
C202  C     C_R   0.678638 0.263308 0.915642 0.030304
C203  C     C_R   0.296050 0.689626 0.103865 0.029898
C204  C     C_R   0.312407 0.280428 0.088990 0.026300
Cu1   Cu    Cu3+1 0.209920 0.785290 0.495070 0.897463
Cu2   Cu    Cu3+1 0.504760 0.500000 0.075850 0.892362
Cu3   Cu    Cu3+1 0.995240 0.000000 0.924150 0.889114
Cu4   Cu    Cu3+1 0.004760 1.000000 0.075850 0.892363
Cu5   Cu    Cu3+1 0.790080 0.214710 0.504930 0.902648
Cu6   Cu    Cu3+1 0.790080 0.785290 0.504930 0.894996
Cu7   Cu    Cu3+1 0.209920 0.214710 0.495070 0.894226
Cu8   Cu    Cu3+1 0.709920 0.285290 0.495070 0.897466
Cu9   Cu    Cu3+1 0.290080 0.714710 0.504930 0.902648
Cu10  Cu    Cu3+1 0.290080 0.285290 0.504930 0.894990
Cu11  Cu    Cu3+1 0.709920 0.714710 0.495070 0.894226
Cu12  Cu    Cu3+1 0.495240 0.500000 0.924150 0.889117
H1    H     H_    0.535647 0.754650 0.521820 0.099882
H2    H     H_    0.727572 0.000079 0.539149 0.155701
H3    H     H_    0.772358 0.499963 0.461050 0.157155
H4    H     H_    0.227572 0.500079 0.539148 0.155702
H5    H     H_    0.590314 0.820888 0.573049 0.148979
H6    H     H_    0.409752 0.179299 0.426346 0.148074
H7    H     H_    0.409983 0.821369 0.423845 0.147386
H8    H     H_    0.590050 0.178797 0.575661 0.146705
H9    H     H_    0.090314 0.320888 0.573051 0.148979
H10   H     H_    0.909751 0.679300 0.426350 0.148074
H11   H     H_    0.909983 0.321369 0.423847 0.147386
H12   H     H_    0.464499 0.245578 0.477489 0.102107
H13   H     H_    0.090049 0.678797 0.575665 0.146706
H14   H     H_    0.123506 0.856262 0.767040 0.158992
H15   H     H_    0.883021 0.155213 0.227781 0.156712
H16   H     H_    0.880204 0.850920 0.231384 0.157512
H17   H     H_    0.115397 0.157354 0.772671 0.156775
H18   H     H_    0.623507 0.356262 0.767040 0.158992
H19   H     H_    0.383022 0.655213 0.227780 0.156712
H20   H     H_    0.380203 0.350921 0.231385 0.157513
H21   H     H_    0.615397 0.657353 0.772670 0.156776
H22   H     H_    0.068955 0.832458 0.086801 0.147344
H23   H     H_    0.465572 0.754805 0.472733 0.101967
H24   H     H_    0.863695 0.044613 0.985757 0.160633
H25   H     H_    0.932115 0.825647 0.916853 0.143054
H26   H     H_    0.138393 0.051669 0.014041 0.150535
H27   H     H_    0.568955 0.332459 0.086802 0.147349
H28   H     H_    0.363695 0.544613 0.985758 0.160632
H29   H     H_    0.432116 0.325644 0.916856 0.143051
H30   H     H_    0.638394 0.551667 0.014039 0.150533
H31   H     H_    0.231666 0.648028 0.741183 0.140369
H32   H     H_    0.751761 0.329543 0.250084 0.141176
H33   H     H_    0.704291 0.757295 0.292461 0.156023
H34   H     H_    0.534703 0.245422 0.526268 0.102260
H35   H     H_    0.247506 0.335442 0.744527 0.141402
H36   H     H_    0.731665 0.148028 0.741183 0.140369
H37   H     H_    0.251759 0.829542 0.250086 0.141182
H38   H     H_    0.204290 0.257298 0.292462 0.156021
H39   H     H_    0.747501 0.835444 0.744532 0.141392
H40   H     H_    0.264351 0.595464 0.834086 0.123361
H41   H     H_    0.699811 0.350763 0.172684 0.104387
H42   H     H_    0.668621 0.701807 0.204675 0.109167
H43   H     H_    0.303721 0.355027 0.815079 0.104280
H44   H     H_    0.764351 0.095463 0.834087 0.123361
H45   H     H_    0.035647 0.254650 0.521823 0.099881
H46   H     H_    0.199810 0.850762 0.172687 0.104398
H47   H     H_    0.168620 0.201809 0.204676 0.109167
H48   H     H_    0.803710 0.855038 0.815093 0.104261
H49   H     H_    0.078789 0.676636 0.197470 0.156396
H50   H     H_    0.134774 0.686739 0.222800 0.170198
H51   H     H_    0.068011 0.707466 0.306485 0.149278
H52   H     H_    0.118136 0.820018 0.239012 0.134801
H53   H     H_    0.061353 0.808789 0.222353 0.126467
H54   H     H_    0.849199 0.967451 0.881087 0.154673
H55   H     H_    0.787913 0.995386 0.880849 0.154803
H56   H     H_    0.964497 0.745578 0.477496 0.102103
H57   H     H_    0.848420 0.986213 0.776288 0.125343
H58   H     H_    0.845165 0.115393 0.800412 0.141432
H59   H     H_    0.891130 0.082108 0.832100 0.143873
H60   H     H_    0.915633 0.673782 0.806615 0.155018
H61   H     H_    0.861246 0.689664 0.778691 0.169888
H62   H     H_    0.929362 0.704575 0.696232 0.150135
H63   H     H_    0.884794 0.821319 0.760257 0.133871
H64   H     H_    0.940113 0.804113 0.779494 0.128743
H65   H     H_    0.257141 0.009212 0.015592 0.159049
H66   H     H_    0.272389 0.074443 0.080839 0.165594
H67   H     H_    0.965572 0.254805 0.472736 0.101967
H68   H     H_    0.241834 0.990353 0.130381 0.131284
H69   H     H_    0.173443 0.087573 0.183554 0.137469
H70   H     H_    0.159431 0.020557 0.123663 0.129877
H71   H     H_    0.578701 0.176676 0.197489 0.156379
H72   H     H_    0.634737 0.186670 0.222698 0.170202
H73   H     H_    0.568010 0.207451 0.306476 0.149289
H74   H     H_    0.618148 0.319971 0.239020 0.134832
H75   H     H_    0.561362 0.308818 0.222360 0.126466
H76   H     H_    0.349192 0.467448 0.881096 0.154674
H77   H     H_    0.287907 0.495387 0.880857 0.154808
H78   H     H_    0.034700 0.745422 0.526276 0.102264
H79   H     H_    0.348413 0.486208 0.776297 0.125341
H80   H     H_    0.345164 0.615389 0.800412 0.141432
H81   H     H_    0.391128 0.582101 0.832103 0.143873
H82   H     H_    0.415470 0.173725 0.806709 0.155061
H83   H     H_    0.361218 0.189780 0.778486 0.169893
H84   H     H_    0.429409 0.204568 0.696244 0.150112
H85   H     H_    0.384820 0.321364 0.760263 0.133842
H86   H     H_    0.440125 0.304063 0.779508 0.128755
H87   H     H_    0.757146 0.509210 0.015603 0.159044
H88   H     H_    0.772387 0.574449 0.080852 0.165596
H89   H     H_    0.272357 0.999963 0.461051 0.157155
H90   H     H_    0.741834 0.490359 0.130399 0.131281
H91   H     H_    0.673436 0.587572 0.183558 0.137461
H92   H     H_    0.659433 0.520554 0.123658 0.129878
O1    O     O_R   0.255040 0.869590 0.478480 -0.508335
O2    O     O_R   0.817950 0.203450 0.375560 -0.509292
O3    O     O_R   0.817950 0.796550 0.375560 -0.512217
O4    O     O_R   0.182050 0.203450 0.624440 -0.509463
O5    O     O_R   0.682050 0.296550 0.624440 -0.512649
O6    O     O_R   0.317950 0.703450 0.375560 -0.509292
O7    O     O_R   0.317950 0.296550 0.375560 -0.512217
O8    O     O_R   0.682050 0.703450 0.624440 -0.509464
O9    O     O_R   0.250530 0.763330 0.367210 -0.512021
O10   O     O_R   0.749470 0.236670 0.632790 -0.507710
O11   O     O_R   0.749470 0.763330 0.632790 -0.512295
O12   O     O_R   0.744960 0.130410 0.521520 -0.511832
O13   O     O_R   0.250530 0.236670 0.367210 -0.518627
O14   O     O_R   0.750530 0.263330 0.367210 -0.512019
O15   O     O_R   0.249470 0.736670 0.632790 -0.507710
O16   O     O_R   0.249470 0.263330 0.632790 -0.512300
O17   O     O_R   0.750530 0.736670 0.367210 -0.518628
O18   O     O_R   0.177260 0.690030 0.513710 -0.518340
O19   O     O_R   0.822740 0.309970 0.486290 -0.516490
O20   O     O_R   0.822740 0.690030 0.486290 -0.516679
O21   O     O_R   0.177260 0.309970 0.513710 -0.527521
O22   O     O_R   0.677260 0.190030 0.513710 -0.518340
O23   O     O_R   0.744960 0.869590 0.521520 -0.511877
O24   O     O_R   0.322740 0.809970 0.486290 -0.516490
O25   O     O_R   0.322740 0.190030 0.486290 -0.516680
O26   O     O_R   0.677260 0.809970 0.513710 -0.527521
O27   O     O_R   0.051640 0.926880 0.885090 -0.514056
O28   O     O_R   0.948360 0.073120 0.114910 -0.502603
O29   O     O_R   0.948360 0.926880 0.114910 -0.515228
O30   O     O_R   0.051640 0.073120 0.885090 -0.502917
O31   O     O_R   0.551640 0.426880 0.885090 -0.514056
O32   O     O_R   0.448360 0.573120 0.114910 -0.502603
O33   O     O_R   0.448360 0.426880 0.114910 -0.515228
O34   O     O_R   0.255040 0.130410 0.478480 -0.501988
O35   O     O_R   0.551640 0.573120 0.885090 -0.502918
O36   O     O_R   0.940620 0.926560 0.986760 -0.529593
O37   O     O_R   0.059380 0.073440 0.013240 -0.512784
O38   O     O_R   0.059380 0.926560 0.013240 -0.530308
O39   O     O_R   0.940620 0.073440 0.986760 -0.517052
O40   O     O_R   0.440620 0.426560 0.986760 -0.529591
O41   O     O_R   0.559380 0.573440 0.013240 -0.512783
O42   O     O_R   0.559380 0.426560 0.013240 -0.530310
O43   O     O_R   0.440620 0.573440 0.986760 -0.517051
O44   O     O_R   0.755040 0.369590 0.478480 -0.508335
O45   O     O_R   0.244960 0.630410 0.521520 -0.511831
O46   O     O_R   0.244960 0.369590 0.521520 -0.511876
O47   O     O_R   0.755040 0.630410 0.478480 -0.501988
O48   O     O_R   0.182050 0.796550 0.624440 -0.512649

loop_
_geom_bond_atom_site_label_1
_geom_bond_atom_site_label_2
_ccdc_geom_bond_type
C74   C194  A    
C169  H20   S    
C161  O48   A    
C36   C133  A    
C21   H31   S    
C124  C133  A    
Cu2   O42   S    
C50   C59   A    
C122  C143  A    
C22   C181  A    
C52   C61   A    
C35   H5    S    
C26   C185  A    
Cu9   O45   S    
C54   C63   A    
C58   C60   A    
C61   C63   A    
C62   C64   A    
C131  C140  A    
C134  C143  A    
C50   C90   A    
C61   H34   S    
C1    O9    A    
C70   C74   A    
C6    H25   S    
C106  H62   S    
C4    C12   A    
C24   C85   A    
C88   C97   A    
C108  H68   S    
C172  C175  S    
Cu1   O9    S    
C82   C91   A    
C166  H17   S    
C114  H79   S    
C49   C69   A    
C147  C200  A    
C158  C167  A    
C109  H74   S    
C11   C20   A    
C40   C157  S    
C107  H70   S    
C127  C136  A    
C23   C182  A    
C86   C90   A    
C28   C187  A    
C71   C73   A    
C191  O47   A    
C179  C188  A    
C187  C204  A    
C177  C186  A    
C51   C66   A    
C185  C202  A    
C42   O28   A    
C52   C72   A    
Cu6   O11   S    
Cu3   O39   S    
C54   C70   A    
C128  O11   A    
C164  C173  A    
C130  C138  A    
C79   C85   A    
C42   O39   A    
C57   H7    S    
C56   H78   S    
C112  O5    A    
C66   C77   A    
C30   C127  A    
C9    C151  A    
C44   O41   A    
C57   C78   A    
C90   H10   S    
C103  H58   S    
C17   C109  S    
C56   C59   A    
C128  C179  S    
C114  H76   S    
C8    C17   A    
C46   H6    S    
C29   C188  A    
C101  H11   S    
C32   H42   S    
C104  H55   S    
C87   C195  S    
C80   C88   A    
C22   H32   S    
C25   H35   S    
C193  O22   A    
C39   O36   A    
Cu3   O27   S    
C45   O42   A    
Cu2   O33   S    
C8    C149  A    
C84   C93   A    
C29   H39   S    
C48   C67   A    
C180  C198  A    
C86   C95   A    
C24   C77   A    
C129  C137  A    
C99   H4    S    
C114  H77   S    
C196  O25   A    
C97   H2    S    
C2    C81   A    
C17   C137  A    
C55   C71   A    
C2    C75   A    
C78   C87   A    
Cu7   O13   S    
Cu3   O30   S    
C125  C204  A    
C5    H24   S    
C123  C132  A    
C119  C198  A    
C105  C106  S    
C67   C77   A    
C121  C130  A    
C174  C182  A    
C47   C159  S    
C47   O32   A    
C133  C142  A    
C64   H1    S    
C122  C201  A    
C190  O19   A    
C112  O10   A    
Cu6   Cu11  S    
C120  C199  A    
C69   C76   A    
C53   C62   A    
C46   C82   A    
C189  O18   A    
C107  C108  S    
C18   C136  A    
C195  O24   A    
C190  O44   A    
C149  C158  A    
C91   C96   A    
C150  O2    A    
C1    O6    A    
C87   C96   A    
C121  C144  A    
Cu8   O5    S    
C68   H8    S    
Cu5   O2    S    
C72   C75   A    
C125  C140  A    
C12   C100  S    
C146  C155  A    
C124  C203  A    
C120  C129  A    
C115  H85   S    
Cu4   O37   S    
C100  H52   S    
C165  C174  A    
C48   C113  A    
C151  C159  A    
C192  O21   A    
C96   H89   S    
C117  H92   S    
C33   H43   S    
C34   H44   S    
C26   H36   S    
C168  H19   S    
C139  O7    A    
C145  C154  A    
Cu3   O36   S    
C112  C176  S    
C110  H73   S    
C102  H51   S    
Cu6   O23   S    
C30   H40   S    
C181  C199  A    
C122  C131  A    
C132  C141  A    
C184  C201  A    
C83   C101  A    
Cu4   O28   S    
C88   C193  S    
Cu9   O15   S    
C120  C141  A    
C113  H13   S    
C93   C189  S    
C89   C197  S    
C172  O4    A    
C170  C179  A    
C41   O38   A    
C103  H59   S    
C145  C198  A    
C31   C129  A    
C117  C118  S    
C6    C147  A    
C14   C103  S    
C28   C37   A    
C4    C145  A    
C104  H57   S    
C186  C203  A    
C115  H86   S    
C148  C157  A    
C50   C65   A    
C104  H54   S    
C11   C153  A    
Cu1   Cu9   S    
C43   O33   A    
C9    C18   A    
C150  C173  S    
C39   O29   A    
C105  H64   S    
C4    H22   S    
C37   C134  A    
C175  C184  A    
C51   C60   A    
C149  C202  A    
C189  O45   A    
C108  H65   S    
C25   C33   A    
C119  C127  A    
C125  C134  A    
Cu12  O35   S    
C73   C74   A    
C163  H14   S    
C3    C126  A    
C176  C185  A    
C166  C175  A    
C65   C76   A    
C107  H69   S    
C197  O23   A    
C49   C101  A    
Cu10  O46   S    
C58   H67   S    
C168  C177  A    
Cu5   Cu8   S    
C191  O20   A    
C78   C194  A    
C20   C138  A    
Cu9   O6    S    
C16   C107  S    
C10   C152  A    
C110  H71   S    
C116  H83   S    
Cu8   O14   S    
C65   C67   A    
C102  H49   S    
C41   O27   A    
C160  C169  A    
C111  H80   S    
C163  C171  A    
C93   C99   A    
Cu9   O24   S    
C25   C184  A    
C100  H53   S    
C81   C89   A    
C173  C181  A    
C98   H3    S    
C44   C162  S    
C20   C117  S    
C92   C190  S    
Cu7   O4    S    
C124  C136  A    
Cu2   O41   S    
Cu3   Cu4   S    
C16   C143  A    
C182  C200  A    
C47   O43   A    
C8    H27   S    
Cu12  O40   S    
C36   H46   S    
Cu11  O26   S    
C162  C170  A    
C10   C19   A    
Cu7   O21   S    
C46   C54   A    
C192  O46   A    
C106  H60   S    
C106  H61   S    
C38   C135  A    
C18   C111  S    
C147  C156  A    
C197  O26   A    
C178  C187  A    
C7    C16   A    
C170  H21   S    
C126  C135  A    
Cu11  O47   S    
C155  C164  A    
Cu11  O17   S    
C109  H75   S    
C123  C137  A    
C53   C57   A    
C11   H30   S    
C174  C183  S    
Cu5   O19   S    
Cu1   O1    S    
C63   H12   S    
C27   C36   A    
C21   C30   A    
C13   C83   A    
C153  C162  A    
C23   C32   A    
C15   C105  S    
C42   C155  S    
Cu10  O7    S    
C23   H33   S    
C109  C110  S    
C91   C196  S    
C45   O31   A    
C156  C165  A    
C7    H26   S    
C12   C142  A    
C111  C114  S    
Cu5   O10   S    
C172  O16   A    
C62   H23   S    
C103  C104  S    
C119  C142  A    
C183  O3    A    
C152  C204  A    
Cu6   O3    S    
C115  C116  S    
Cu4   O29   S    
C68   C80   A    
C167  H18   S    
C71   C75   A    
C152  C160  A    
Cu6   O20   S    
C84   C113  A    
C183  O17   A    
C193  O12   A    
C3    C188  A    
Cu7   O34   S    
C32   C130  A    
C35   C81   A    
C95   C98   A    
C92   C98   A    
C121  C200  A    
C83   C92   A    
C164  H15   S    
C28   H38   S    
Cu4   O38   S    
C66   C69   A    
Cu2   O32   S    
C3    C153  A    
C159  C168  A    
C146  C199  A    
C195  O1    A    
C6    C15   A    
C1    C177  S    
C26   C34   A    
C21   C180  A    
C117  H91   S    
C19   C140  A    
C111  H81   S    
Cu12  O31   S    
C13   C86   A    
C118  H87   S    
C165  H16   S    
C196  O34   A    
C43   O40   A    
C52   C68   A    
C95   C191  S    
C33   C131  A    
C14   C141  A    
C116  H82   S    
C82   C194  A    
C148  C201  A    
C51   C79   A    
C22   C31   A    
C35   C55   A    
C139  O13   A    
C154  C163  A    
Cu1   O48   S    
C43   C160  S    
Cu8   O44   S    
C10   H29   S    
C150  O14   A    
C128  O8    A    
C49   C58   A    
C89   C97   A    
C27   C186  A    
C161  C171  S    
C29   C38   A    
C37   H47   S    
Cu5   O12   S    
C38   H48   S    
C85   C94   A    
C13   C76   A    
C19   C115  S    
C55   C64   A    
Cu7   Cu10  S    
C100  C102  S    
C5    C14   A    
Cu12  O43   S    
C118  H88   S    
C31   H41   S    
C27   H37   S    
C116  H84   S    
C135  C144  A    
C105  H63   S    
C171  C180  A    
C169  C178  A    
C108  H66   S    
C41   C154  S    
Cu2   Cu12  S    
C48   C56   A    
C126  C138  A    
C5    C146  A    
C123  C202  A    
Cu10  O16   S    
C60   H45   S    
C53   C73   A    
C45   C158  S    
C151  C203  A    
C157  C166  A    
C7    C148  A    
C59   H56   S    
Cu11  O8    S    
C40   O37   A    
C44   O35   A    
Cu1   O18   S    
C39   C156  S    
C24   C84   A    
C139  C178  S    
Cu8   O22   S    
C94   C99   A    
C118  H90   S    
Cu10  O25   S    
C94   C192  S    
C2    C80   A    
C34   C132  A    
C15   C144  A    
C40   O30   A    
C110  H72   S    
C161  O15   A    
C102  H50   S    
C70   C72   A    
C9    H28   S    
C79   H9    S    
C167  C176  A    
