data_mof_unit_7395.cif
_audit_creation_date              2012-12-11T14:21:20-0500
_audit_creation_method            fapswitch 2.2
_symmetry_space_group_name_H-M    P1
_symmetry_Int_Tables_number       1
_space_group_crystal_system       triclinic
_cell_length_a                    21.904678
_cell_length_b                    7.217453
_cell_length_c                    14.928093
_cell_angle_alpha                 89.99989
_cell_angle_beta                  107.101562
_cell_angle_gamma                 90.000038
_cell_volume                      2255.72098361

loop_
_atom_site_label
_atom_site_type_symbol
_atom_type_description
_atom_site_fract_x
_atom_site_fract_y
_atom_site_fract_z
_atom_type_partial_charge
O1    O     O_R   0.584770 0.505770 0.002090 -0.539923
O2    O     O_R   0.415230 0.005770 0.997910 -0.539924
O3    O     O_R   0.467060 0.173340 0.861950 -0.539011
O4    O     O_R   0.532940 0.673340 0.138050 -0.539011
C1    C     C_R   0.454488 0.344399 0.825858 0.685095
C2    C     C_R   0.545512 0.844399 0.174142 0.685096
O5    O     O_R   0.587510 0.175890 0.993210 -0.542530
O6    O     O_R   0.412490 0.675890 0.006790 -0.542530
O7    O     O_R   0.536540 0.008150 0.130100 -0.539739
O8    O     O_R   0.463460 0.508150 0.869900 -0.539739
C3    C     C_R   0.612884 0.344898 0.997186 0.733470
C4    C     C_R   0.387116 0.844898 0.002814 0.733468
O9    O     O_3   0.483140 0.340040 0.044760 -0.378105
O10   O     O_3   0.516860 0.840040 0.955240 -0.378105
V1    V     V_3+5 0.503130 0.064190 0.991700 1.395221
V2    V     V_3+5 0.496870 0.564190 0.008300 1.395222
C5    C     C_2   0.213561 0.727234 0.001040 -0.103914
C6    C     C_2   0.786438 0.227234 0.998957 -0.103906
C7    C     C_2   0.180251 0.886517 0.995533 -0.286186
C8    C     C_2   0.819749 0.386517 0.004466 -0.286186
H1    H     H_    0.190177 0.596406 0.005593 0.152416
H2    H     H_    0.809822 0.096406 0.994403 0.152416
H3    H     H_    0.202013 0.018619 0.989168 0.124656
H4    H     H_    0.797987 0.518619 0.010831 0.124656
C9    C     C_2   0.281357 0.714418 0.000121 -0.150142
C10   C     C_2   0.718642 0.214418 0.999875 -0.150145
C11   C     C_2   0.320176 0.861100 0.004714 -0.324039
C12   C     C_2   0.679824 0.361100 0.995286 -0.324047
H5    H     H_    0.299868 0.575909 0.996547 0.144303
H6    H     H_    0.700131 0.075909 0.003446 0.144304
H7    H     H_    0.302988 0.000344 0.009374 0.136776
H8    H     H_    0.697012 0.500345 0.990629 0.136777
C13   C     C_R   0.924146 0.876874 0.724205 -0.049847
C14   C     C_R   0.075854 0.376873 0.275795 -0.049847
C15   C     C_R   0.571920 0.852207 0.277089 -0.105337
C16   C     C_R   0.428080 0.352209 0.722911 -0.105338
C17   C     C_R   0.930548 0.740389 0.579337 -0.158540
C18   C     C_R   0.069451 0.240391 0.420664 -0.158541
C19   C     C_R   0.959617 0.792257 0.671592 -0.198699
C20   C     C_R   0.040383 0.292257 0.328408 -0.198700
C21   C     C_R   0.858103 0.908375 0.684249 0.066864
C22   C     C_R   0.141897 0.408375 0.315751 0.066864
C23   C     C_R   0.826327 0.832295 0.594346 0.049505
C24   C     C_R   0.173672 0.332295 0.405655 0.049504
C25   C     C_R   0.864416 0.758291 0.540459 0.123792
C26   C     C_R   0.135583 0.258294 0.459542 0.123792
C27   C     C_R   0.758511 0.824959 0.555237 0.075932
C28   C     C_R   0.241488 0.324959 0.444764 0.075933
C29   C     C_R   0.731623 0.794940 0.457740 0.066759
C30   C     C_R   0.268376 0.294942 0.542261 0.066759
C31   C     C_R   0.770581 0.716319 0.408068 -0.186200
C32   C     C_R   0.229418 0.216324 0.591933 -0.186207
C33   C     C_R   0.835891 0.696669 0.449016 -0.194341
C34   C     C_R   0.164108 0.196674 0.550985 -0.194344
C35   C     C_R   0.716905 0.818795 0.610947 -0.153355
C36   C     C_R   0.283094 0.318793 0.389053 -0.153355
C37   C     C_R   0.651053 0.806179 0.570597 -0.135572
C38   C     C_R   0.348946 0.306177 0.429404 -0.135572
C39   C     C_R   0.623765 0.813355 0.472708 0.063698
C40   C     C_R   0.376234 0.313355 0.527292 0.063697
C41   C     C_R   0.665009 0.823613 0.415067 0.028161
C42   C     C_R   0.334990 0.323615 0.584934 0.028164
C43   C     C_R   0.556642 0.812250 0.431914 0.205289
C44   C     C_R   0.443357 0.312251 0.568086 0.205288
C45   C     C_R   0.530611 0.829256 0.333556 0.036818
C46   C     C_R   0.469388 0.329257 0.666443 0.036819
C47   C     C_R   0.638717 0.869707 0.318391 -0.006650
C48   C     C_R   0.361283 0.369709 0.681609 -0.006650
H9    H     H_    0.864221 0.633017 0.408816 0.121037
H10   H     H_    0.135778 0.133024 0.591186 0.121038
H11   H     H_    0.622241 0.795247 0.617851 0.161579
H12   H     H_    0.377757 0.295243 0.382150 0.161579
H13   H     H_    0.959514 0.679129 0.539433 0.121858
H14   H     H_    0.040485 0.179132 0.460567 0.121858
H15   H     H_    0.010119 0.765202 0.702547 0.112462
H16   H     H_    0.989880 0.265201 0.297453 0.112462
H17   H     H_    0.750023 0.655263 0.339956 0.126566
H18   H     H_    0.249976 0.155270 0.660046 0.126569
H19   H     H_    0.734959 0.806743 0.686213 0.156020
H20   H     H_    0.265039 0.306739 0.313788 0.156020
O11   O     O_R   0.036450 0.233070 0.130130 -0.537826
O12   O     O_R   0.963550 0.733070 0.869870 -0.537826
O13   O     O_R   0.912470 0.560570 0.006790 -0.546407
O14   O     O_R   0.087530 0.060570 0.993210 -0.546406
C49   C     C_R   0.887034 0.391892 0.002794 0.750006
C50   C     C_R   0.112966 0.891892 0.997206 0.750006
O15   O     O_R   0.032920 0.562940 0.138050 -0.526805
O16   O     O_R   0.967080 0.062940 0.861950 -0.526805
O17   O     O_R   0.084790 0.730500 0.002090 -0.530463
O18   O     O_R   0.915210 0.230500 0.997910 -0.530464
C51   C     C_R   0.046195 0.393929 0.174392 0.722008
C52   C     C_R   0.953805 0.893929 0.825608 0.722007
O19   O     O_3   0.016820 0.396170 0.955260 -0.378959
O20   O     O_3   0.983180 0.896170 0.044740 -0.378959
V3    V     V_3+5 0.996880 0.672090 0.008300 1.466996
V4    V     V_3+5 0.003120 0.172090 0.991700 1.466995
I1    I     I_    0.814539 0.108077 0.752761 -0.479522
I2    I     I_    0.185461 0.608076 0.247239 -0.479521
I3    I     I_    0.493470 0.778709 0.518049 -0.494598
I4    I     I_    0.506529 0.278709 0.481951 -0.494597
C53   C     C_3   0.679017 0.966271 0.263134 -0.356431
C54   C     C_3   0.711889 0.142499 0.312738 -0.269792
C55   C     C_3   0.746951 0.244752 0.253111 -0.781765
H21   H     H_    0.779042 0.148945 0.229976 0.234372
H22   H     H_    0.711980 0.306616 0.190954 0.230796
H23   H     H_    0.776468 0.357384 0.294780 0.214577
H24   H     H_    0.675632 0.236741 0.326900 0.209317
H25   H     H_    0.747302 0.107988 0.380595 0.211832
H26   H     H_    0.714267 0.872846 0.247266 0.156664
H27   H     H_    0.649658 0.010421 0.192871 0.186161
C56   C     C_3   0.320983 0.466275 0.736867 -0.356433
C57   C     C_3   0.288108 0.642498 0.687259 -0.269786
C58   C     C_3   0.253056 0.744771 0.746894 -0.781742
H28   H     H_    0.220972 0.648970 0.770050 0.234369
H29   H     H_    0.288034 0.806657 0.809040 0.230785
H30   H     H_    0.223532 0.857388 0.705221 0.214575
H31   H     H_    0.324363 0.736733 0.673082 0.209318
H32   H     H_    0.252689 0.607977 0.619410 0.211826
H33   H     H_    0.285735 0.372849 0.752738 0.156657
H34   H     H_    0.350343 0.510431 0.807127 0.186167
C59   C     C_3   0.458502 0.839233 0.289552 -0.319533
C60   C     C_3   0.428643 0.645828 0.269425 -0.317449
C61   C     C_3   0.356538 0.653454 0.251958 -0.708611
H35   H     H_    0.345467 0.691616 0.317590 0.267350
H36   H     H_    0.334657 0.757241 0.197145 0.247191
H37   H     H_    0.335431 0.515490 0.228508 0.221143
H38   H     H_    0.438964 0.586252 0.206865 0.211126
H39   H     H_    0.449224 0.552086 0.329406 0.248522
H40   H     H_    0.436445 0.919275 0.335449 0.226836
H41   H     H_    0.445863 0.919856 0.223259 0.147118
C62   C     C_3   0.541497 0.339234 0.710447 -0.319533
C63   C     C_3   0.571357 0.145829 0.730574 -0.317449
C64   C     C_3   0.643462 0.153455 0.748041 -0.708613
H42   H     H_    0.654533 0.191617 0.682409 0.267351
H43   H     H_    0.665343 0.257243 0.802854 0.247192
H44   H     H_    0.664569 0.015492 0.771492 0.221143
H45   H     H_    0.561036 0.086253 0.793135 0.211126
H46   H     H_    0.550776 0.052088 0.670594 0.248522
H47   H     H_    0.563555 0.419276 0.664550 0.226836
H48   H     H_    0.554137 0.419857 0.776740 0.147118

loop_
_geom_bond_atom_site_label_1
_geom_bond_atom_site_label_2
_ccdc_geom_bond_type
C18   C20   A    
C43   C45   A    
O4    V2    S    
C53   C54   S    
O15   C51   A    
C56   C57   S    
C14   C22   A    
C59   H41   S    
C7    C50   S    
C33   H9    S    
C2    O7    A    
O16   V4    S    
C61   H35   S    
C27   C29   A    
O5    C3    A    
C13   C19   A    
C14   C20   A    
C56   H33   S    
O14   C50   A    
C46   C62   S    
C22   I2    S    
C57   H31   S    
C16   C46   A    
C37   C39   A    
C15   C45   A    
C38   C40   A    
C1    C16   S    
O12   C52   A    
C2    C15   S    
C40   C42   A    
O14   V4    S    
C60   H38   S    
C14   C51   S    
C43   I3    S    
C62   H48   S    
C6    C10   S    
C8    H4    S    
C32   C34   A    
C63   C64   S    
C29   C31   A    
O15   V3    S    
C64   H44   S    
C30   C32   A    
C54   H25   S    
C19   H15   S    
C58   H30   S    
O5    V1    S    
O2    C4    A    
O6    V2    S    
C21   C23   A    
O20   V3    S    
C22   C24   A    
C32   H18   S    
C57   C58   S    
C24   C26   A    
C9    H5    S    
C39   C41   A    
C29   C41   A    
C4    C11   S    
C11   H7    S    
O16   C52   A    
C12   H8    S    
C62   H47   S    
O4    C2    A    
C13   C52   S    
O11   V4    S    
C61   H37   S    
C53   H27   S    
C5    H1    S    
C20   H16   S    
C56   H34   S    
C31   C33   A    
C48   C56   S    
C44   C46   A    
O17   V3    S    
C7    H3    S    
C31   H17   S    
C35   H19   S    
C41   C47   A    
C34   H10   S    
C15   C47   A    
O6    C4    A    
O13   V3    S    
C8    C49   S    
C26   C34   A    
C54   H24   S    
C55   H22   S    
O1    V2    S    
C37   H11   S    
O2    V1    S    
C23   C25   A    
C59   C60   S    
O13   C49   A    
C10   H6    S    
O19   V4    S    
C45   C59   S    
C35   C37   A    
C64   H42   S    
C30   C42   A    
C21   I1    S    
C17   C25   A    
C62   C63   S    
O3    V1    S    
C47   C53   S    
C27   C35   A    
C58   H28   S    
C18   H14   S    
C63   H46   S    
C28   C36   A    
C17   H13   S    
O12   V3    S    
C6    H2    S    
C10   C12   D    
C59   H40   S    
O3    C1    A    
C50   O17   A    
C49   O18   A    
C16   C48   A    
O18   V4    S    
C9    C11   D    
C39   C43   A    
C36   H20   S    
C42   C48   A    
C40   C44   A    
C13   C21   A    
C63   H45   S    
C5    C9    S    
C1    O8    A    
C17   C19   A    
O8    V2    S    
C57   H32   S    
C38   H12   S    
C23   C27   A    
C3    C12   S    
C28   C30   A    
C5    C7    D    
C36   C38   A    
C55   H23   S    
C6    C8    D    
C60   H39   S    
C54   C55   S    
C18   C26   A    
C61   H36   S    
C25   C33   A    
O11   C51   A    
C44   I4    S    
O9    V2    S    
C55   H21   S    
C64   H43   S    
O10   V1    S    
O1    C3    A    
C60   C61   S    
C53   H26   S    
C24   C28   A    
O7    V1    S    
C58   H29   S    
