data_mof_unit_54012.cif
_audit_creation_date              2012-12-10T17:48:45-0500
_audit_creation_method            fapswitch 2.2
_symmetry_space_group_name_H-M    P1
_symmetry_Int_Tables_number       1
_space_group_crystal_system       triclinic
_cell_length_a                    15.746676
_cell_length_b                    10.724633
_cell_length_c                    9.889183
_cell_angle_alpha                 90.627021
_cell_angle_beta                  89.97374
_cell_angle_gamma                 91.551468
_cell_volume                      1669.34651219

loop_
_atom_site_label
_atom_site_type_symbol
_atom_type_description
_atom_site_fract_x
_atom_site_fract_y
_atom_site_fract_z
_atom_type_partial_charge
C1    C     C_R   0.507612 0.260753 0.500007 0.869334
C2    C     C_R   0.549521 0.066089 0.869946 0.446606
C3    C     C_R   0.504942 0.952868 0.878950 -0.215063
C4    C     C_R   0.338414 0.499564 0.500089 0.880222
C5    C     C_R   0.478544 0.890331 0.761292 -0.209219
C6    C     C_R   0.496627 0.940741 0.631815 0.109181
C7    C     C_R   0.525611 0.064710 0.625672 0.028505
C8    C     C_R   0.515847 0.127826 0.501767 -0.095397
C9    C     C_R   0.498092 0.062488 0.381886 -0.158629
C10   C     C_R   0.487404 0.935619 0.384149 -0.182653
C11   C     C_R   0.487838 0.873506 0.507542 -0.105262
C12   C     C_3   0.947955 0.391123 0.591885 -0.399384
C13   C     C_R   0.390477 0.334100 0.138648 -0.129374
C14   C     C_R   0.336931 0.251688 0.067530 -0.127599
C15   C     C_R   0.336600 0.251938 0.927624 -0.123146
C16   C     C_R   0.493738 0.739855 0.501793 0.892685
C17   C     C_R   0.389856 0.334526 0.858073 -0.135861
C18   C     C_R   0.445927 0.418198 0.926767 0.175026
C19   C     C_R   0.446072 0.418120 0.071512 0.196423
C20   C     C_R   0.551416 0.578606 0.072452 -0.080884
C21   C     C_R   0.551414 0.578546 0.929190 -0.094981
C22   C     C_R   0.661638 0.500071 0.499945 0.904102
C23   C     C_3   0.917245 0.499018 0.502998 -0.021545
C24   C     C_3   0.046522 0.388046 0.591480 0.641070
C25   C     C_3   0.047669 0.488771 0.353769 0.244566
C26   C     C_3   0.949795 0.477818 0.356917 -0.487228
C27   C     C_1   0.750460 0.499293 0.500151 -0.121792
C28   C     C_3   0.082856 0.498041 0.501856 -0.108555
C29   C     C_3   0.953474 0.626434 0.557856 0.199300
C30   C     C_3   0.051935 0.623786 0.564190 0.059854
C31   C     C_1   0.825724 0.498853 0.501167 0.066570
C32   C     C_1   0.174461 0.498372 0.500836 0.162352
C33   C     C_1   0.249686 0.498883 0.500291 -0.067765
C34   C     C_R   0.560373 0.121719 0.744144 -0.193789
Cl1   Cl    Cl    0.084842 0.400439 0.762805 -0.519684
Cl2   Cl    Cl    0.587885 0.141753 0.016725 -0.632560
Cl3   Cl    Cl    0.079770 0.237697 0.533619 -0.438515
Cl4   Cl    Cl    0.091713 0.367757 0.250501 -0.470051
Cl5   Cl    Cl    0.097967 0.759383 0.483785 -0.538620
Cl6   Cl    Cl    0.910913 0.666319 0.720933 -0.523429
H1    H     H_    0.920043 0.301151 0.553240 0.216965
H2    H     H_    0.491469 0.109250 0.286064 0.207738
H3    H     H_    0.596359 0.208954 0.740411 0.195691
H4    H     H_    0.478307 0.886388 0.288729 0.177530
H5    H     H_    0.386085 0.329408 0.245774 0.203570
H6    H     H_    0.294424 0.188286 0.872441 0.193128
H7    H     H_    0.384707 0.330196 0.750937 0.210241
H8    H     H_    0.065618 0.575838 0.299607 0.193208
H9    H     H_    0.923088 0.547986 0.287689 0.199462
H10   H     H_    0.073437 0.632061 0.670901 0.238091
H11   H     H_    0.933574 0.700798 0.487882 0.187012
H12   H     H_    0.491958 0.912029 0.976738 0.165955
H13   H     H_    0.441309 0.805336 0.774452 0.193873
H14   H     H_    0.593353 0.642839 0.127094 0.158687
H15   H     H_    0.295027 0.187834 0.121500 0.192957
H16   H     H_    0.593298 0.642784 0.875901 0.169380
H17   H     H_    0.927599 0.384219 0.319537 0.262067
H18   H     H_    0.923178 0.402247 0.696544 0.248003
N1    N     N_R   0.499210 0.498800 0.142780 -0.120714
N2    N     N_R   0.499180 0.498720 0.857170 -0.128674
O1    O     O_R   0.500000 0.316780 0.614690 -0.654991
O2    O     O_R   0.499990 0.316750 0.385360 -0.628284
O3    O     O_R   0.377150 0.500020 0.614720 -0.630934
O4    O     O_R   0.377140 0.499990 0.385380 -0.627236
O5    O     O_R   0.500010 0.683250 0.614640 -0.632116
O6    O     O_R   0.500000 0.683220 0.385310 -0.621489
O7    O     O_R   0.622860 0.500010 0.614620 -0.600842
O8    O     O_R   0.622850 0.499980 0.385280 -0.600050
Zn1   Zn    Zn3+2 0.500010 0.500020 0.653130 0.957652
Zn2   Zn    Zn3+2 0.499990 0.499980 0.346870 0.979308

loop_
_geom_bond_atom_site_label_1
_geom_bond_atom_site_label_2
_ccdc_geom_bond_type
C21   H16   S    
C3    H12   S    
C6    C7    A    
O4    Zn2   S    
C25   Cl4   S    
C1    C8    S    
C9    C10   A    
C4    O4    A    
C12   C23   S    
C10   H4    S    
C3    C5    A    
C12   H18   S    
C32   C33   T    
C2    C34   A    
C28   C30   S    
C17   C18   A    
C30   H10   S    
C7    C8    A    
O1    Zn1   S    
C13   C14   A    
C1    O2    A    
C20   N1    A    
C13   H5    S    
O7    Zn1   S    
C4    O3    A    
C22   O8    A    
C9    H2    S    
O6    Zn2   S    
N2    Zn1   S    
C21   N2    A    
O5    Zn1   S    
C23   C29   S    
C29   Cl6   S    
C18   N2    A    
C26   H17   S    
C30   Cl5   S    
C24   Cl3   S    
C2    C3    A    
C22   C27   S    
C27   C31   T    
O3    Zn1   S    
C5    C6    A    
C7    C34   A    
C22   O7    A    
C26   H9    S    
C24   Cl1   S    
C16   O6    A    
C10   C11   A    
C13   C19   A    
N1    Zn2   S    
C29   C30   S    
C24   C28   S    
C28   C32   S    
C14   H15   S    
C20   C21   A    
O2    Zn2   S    
C12   H1    S    
C20   H14   S    
C18   C19   A    
C29   H11   S    
C23   C26   S    
C2    Cl2   S    
C6    C11   A    
C15   C17   A    
O8    Zn2   S    
C12   C24   S    
C14   C15   A    
C5    H13   S    
C16   O5    A    
C15   H6    S    
C19   N1    A    
C25   C26   S    
C4    C33   S    
C25   H8    S    
C11   C16   S    
C34   H3    S    
C17   H7    S    
C23   C31   S    
C8    C9    A    
C25   C28   S    
C1    O1    A    
