data_mof_unit_24403.cif
_audit_creation_date              2012-10-26T20:22:10-0400
_audit_creation_method            fapswitch 2.2
_symmetry_space_group_name_H-M    P1
_symmetry_Int_Tables_number       1
_space_group_crystal_system       triclinic
_cell_length_a                    10.999068
_cell_length_b                    9.521989
_cell_length_c                    10.627692
_cell_angle_alpha                 89.808495
_cell_angle_beta                  90.279276
_cell_angle_gamma                 89.917026
_cell_volume                      1113.04948073

loop_
_atom_site_label
_atom_site_type_symbol
_atom_type_description
_atom_site_fract_x
_atom_site_fract_y
_atom_site_fract_z
_atom_type_partial_charge
C1    C     C_R   0.872711 0.500421 0.508288 -0.075164
C2    C     C_3   0.400232 0.433204 0.041664 -0.117128
C3    C     C_3   0.399618 0.565737 0.957137 -0.111028
C4    C     C_3   0.600040 0.434188 0.042764 -0.115785
C5    C     C_3   0.499903 0.498952 0.877637 0.041414
C6    C     C_3   0.499770 0.500990 0.122295 0.036811
C7    C     C_R   0.443006 0.074786 0.406309 0.043963
C8    C     C_R   0.555405 0.925215 0.594617 0.021558
C9    C     C_R   0.555899 0.073914 0.594351 0.008785
C10   C     C_R   0.443478 0.926060 0.406034 0.046776
C11   C     C_R   0.065097 0.375905 0.539814 -0.001840
C12   C     C_R   0.128985 0.502310 0.516162 -0.073925
C13   C     C_R   0.937045 0.629107 0.500987 0.013527
C14   C     C_R   0.938252 0.373439 0.527288 0.009389
C15   C     C_R   0.063802 0.629774 0.499482 0.002891
C16   C     C_2   0.128990 0.246319 0.583245 0.644326
C17   C     C_2   0.874891 0.766949 0.503833 0.637556
C18   C     C_2   0.875762 0.236505 0.537512 0.638309
C19   C     C_2   0.124786 0.767483 0.480680 0.647978
C20   C     C_R   0.262477 0.500469 0.505751 0.560363
C21   C     C_R   0.738142 0.499965 0.502170 0.554293
C22   C     C_R   0.499826 0.500304 0.259183 0.555153
C23   C     C_R   0.500024 0.499685 0.740798 0.562228
C24   C     C_3   0.499146 0.633657 0.040046 -0.111171
C25   C     C_3   0.500508 0.366279 0.959859 -0.105558
C26   C     C_3   0.599428 0.566728 0.958253 -0.121402
Cu1   Cu    Cu3+1 0.500000 0.640660 0.500000 1.022467
Cu2   Cu    Cu3+1 0.500000 0.359340 0.500000 1.007735
H1    H     H_    0.396795 0.130906 0.331442 0.117923
H2    H     H_    0.318806 0.378666 0.078988 0.134309
H3    H     H_    0.238111 0.155773 0.713351 0.349623
H4    H     H_    0.812082 0.924339 0.611660 0.344866
H5    H     H_    0.785525 0.083251 0.445952 0.350955
H6    H     H_    0.170989 0.921104 0.359034 0.350589
H7    H     H_    0.599799 0.869044 0.670572 0.132659
H8    H     H_    0.601264 0.129321 0.669742 0.143167
H9    H     H_    0.398134 0.870541 0.330698 0.118176
H10   H     H_    0.317682 0.619399 0.918842 0.147416
H11   H     H_    0.681977 0.380480 0.081001 0.147005
H12   H     H_    0.498542 0.743206 0.075507 0.133917
H13   H     H_    0.501055 0.256750 0.924340 0.132866
H14   H     H_    0.680836 0.621248 0.920849 0.143073
N1    N     N_R   0.500000 0.852070 0.500000 -0.217083
N2    N     N_R   0.500000 0.147930 0.500000 -0.229516
O1    O     O_R   0.319640 0.618740 0.499990 -0.481017
O2    O     O_R   0.197579 0.249222 0.694349 -0.669943
O3    O     O_2   0.842244 0.823292 0.405799 -0.476811
O4    O     O_R   0.855755 0.831398 0.619863 -0.667381
O5    O     O_2   0.857339 0.184727 0.641042 -0.523269
O6    O     O_R   0.836258 0.169426 0.427960 -0.636218
O7    O     O_2   0.167066 0.830309 0.571000 -0.451945
O8    O     O_R   0.129708 0.826051 0.360096 -0.665610
O9    O     O_R   0.680360 0.381260 0.500010 -0.477977
O10   O     O_R   0.680360 0.618740 0.500010 -0.480393
O11   O     O_R   0.319640 0.381260 0.499990 -0.481432
O12   O     O_R   0.499970 0.618770 0.316850 -0.510204
O13   O     O_R   0.500030 0.381230 0.683150 -0.505918
O14   O     O_R   0.500030 0.618770 0.683150 -0.512492
O15   O     O_R   0.499970 0.381230 0.316850 -0.513479
O16   O     O_2   0.122198 0.138407 0.521628 -0.468382

loop_
_geom_bond_atom_site_label_1
_geom_bond_atom_site_label_2
_ccdc_geom_bond_type
C23   O14   A    
C4    C26   S    
C11   C12   A    
C4    H11   S    
C1    C21   S    
C7    H1    S    
Cu1   N1    S    
C7    C10   A    
C11   C16   S    
C14   C18   S    
H6    O8    S    
C20   O1    A    
C5    C23   S    
C12   C15   A    
C13   C17   S    
C2    H2    S    
C17   O4    S    
C6    C24   S    
Cu1   O1    S    
C2    C3    S    
H5    O6    S    
Cu1   O10   S    
C7    N2    A    
Cu2   O9    S    
C15   C19   S    
H4    O4    S    
C12   C20   S    
C3    C24   S    
C2    C6    S    
C10   H9    S    
C5    C25   S    
C21   O9    A    
C8    N1    A    
C24   H12   S    
Cu2   O11   S    
C24   C26   S    
C4    C25   S    
C2    C25   S    
C13   C15   A    
C26   H14   S    
C21   O10   A    
C11   C14   A    
C20   O11   A    
C25   H13   S    
C5    C26   S    
C6    C22   S    
C9    H8    S    
C19   O7    D    
Cu1   Cu2   S    
H3    O2    S    
C1    C13   A    
C18   O6    S    
Cu2   N2    S    
C4    C6    S    
C16   O16   D    
Cu2   O15   S    
C16   O2    S    
C22   O15   A    
C23   O13   A    
Cu1   O12   S    
C9    N2    A    
C22   O12   A    
C1    C14   A    
C10   N1    A    
Cu2   O13   S    
C19   O8    S    
Cu1   O14   S    
C17   O3    D    
C18   O5    D    
C3    H10   S    
C8    C9    A    
C3    C5    S    
C8    H7    S    
