data_mof_unit_13635.cif
_audit_creation_date              2012-10-26T21:20:06-0400
_audit_creation_method            fapswitch 2.2
_symmetry_space_group_name_H-M    P1
_symmetry_Int_Tables_number       1
_space_group_crystal_system       triclinic
_cell_length_a                    13.047593
_cell_length_b                    10.81954
_cell_length_c                    9.593672
_cell_angle_alpha                 90.853876
_cell_angle_beta                  96.908045
_cell_angle_gamma                 91.788847
_cell_volume                      1343.60404446

loop_
_atom_site_label
_atom_site_type_symbol
_atom_type_description
_atom_site_fract_x
_atom_site_fract_y
_atom_site_fract_z
_atom_type_partial_charge
C1    C     C_R   0.499732 0.262301 0.499312 0.547450
C2    C     C_R   0.699062 0.497222 0.526666 0.537054
C3    C     C_R   0.811929 0.498788 0.541704 -0.024091
C4    C     C_R   0.188071 0.501211 0.458296 -0.024088
C5    C     C_R   0.029182 0.405308 0.347134 -0.112390
C6    C     C_R   0.970818 0.594686 0.652867 -0.112393
C7    C     C_R   0.134414 0.427025 0.352083 -0.137861
C8    C     C_R   0.865586 0.572972 0.647918 -0.137860
C9    C     C_R   0.134789 0.560251 0.559081 0.007134
C10   C     C_R   0.865211 0.439745 0.440920 0.007134
C11   C     C_R   0.026754 0.539166 0.553769 0.039094
C12   C     C_R   0.500268 0.737699 0.500688 0.547450
C13   C     C_R   0.973246 0.460830 0.446232 0.039097
C14   C     C_R   0.518440 0.062874 0.378482 -0.128439
C15   C     C_R   0.481560 0.937126 0.621518 -0.128440
C16   C     C_R   0.518821 0.935023 0.379314 -0.128639
C17   C     C_R   0.481179 0.064977 0.620686 -0.128639
C18   C     C_2   0.806708 0.354823 0.334021 0.234946
C19   C     C_2   0.193290 0.645166 0.665987 0.234945
C20   C     C_2   0.400287 0.295953 0.114751 0.261395
C21   C     C_2   0.599713 0.704047 0.885248 0.261395
C22   C     C_R   0.500444 0.871673 0.500897 0.027269
C23   C     C_R   0.499556 0.128327 0.499103 0.027268
C24   C     C_R   0.453391 0.404379 0.061941 0.136298
C25   C     C_R   0.546609 0.595620 0.938059 0.136296
C26   C     C_R   0.454564 0.405106 0.914644 0.003109
C27   C     C_R   0.545436 0.594894 0.085355 0.003104
C28   C     C_R   0.300938 0.502778 0.473334 0.537056
Cu1   Cu    Cu3+1 0.500000 0.500020 0.640660 1.022933
Cu2   Cu    Cu3+1 0.500000 0.499980 0.359340 1.022931
H1    H     H_    0.825431 0.619640 0.724310 0.199212
H2    H     H_    0.582839 0.669968 0.150224 0.107322
H3    H     H_    0.753222 0.285331 0.366866 0.103152
H4    H     H_    0.246772 0.714668 0.633146 0.103148
H5    H     H_    0.414519 0.204360 0.075081 0.053559
H6    H     H_    0.585479 0.795639 0.924915 0.053560
H7    H     H_    0.174569 0.380356 0.275690 0.199211
H8    H     H_    0.993493 0.342306 0.265994 0.180358
H9    H     H_    0.006508 0.657685 0.734010 0.180349
H10   H     H_    0.533845 0.110205 0.284162 0.124014
H11   H     H_    0.466155 0.889795 0.715838 0.124012
H12   H     H_    0.534105 0.886067 0.285072 0.123004
H13   H     H_    0.465894 0.113933 0.714927 0.123004
H14   H     H_    0.417161 0.330032 0.849776 0.107322
N1    N     N_R   0.500030 0.500030 0.852080 -0.227507
N2    N     N_R   0.499970 0.499970 0.147920 -0.227508
O1    O     O_R   0.499990 0.319660 0.618740 -0.526794
O2    O     O_2   0.187802 0.632494 0.791148 -0.501270
O3    O     O_2   0.334373 0.307153 0.193084 -0.492123
O4    O     O_2   0.665628 0.692847 0.806919 -0.492125
O5    O     O_R   0.500010 0.680340 0.381260 -0.526794
O6    O     O_R   0.499990 0.319630 0.381170 -0.483846
O7    O     O_R   0.500010 0.680370 0.618830 -0.483847
O8    O     O_R   0.349000 0.499990 0.599490 -0.498697
O9    O     O_R   0.651000 0.500010 0.400510 -0.498702
O10   O     O_R   0.348990 0.499960 0.361920 -0.445627
O11   O     O_R   0.651010 0.500040 0.638080 -0.445628
O12   O     O_2   0.812204 0.367478 0.208858 -0.501276

loop_
_geom_bond_atom_site_label_1
_geom_bond_atom_site_label_2
_ccdc_geom_bond_type
C14   C23   A    
C6    C8    A    
Cu2   O5    S    
C17   H13   S    
C15   C17   A    
Cu1   Cu2   S    
C12   C22   S    
C25   C27   A    
C11   C13   A    
Cu2   O9    S    
C5    C13   A    
C12   O7    A    
C4    C9    A    
C24   N2    A    
C2    C3    S    
C7    H7    S    
C2    O11   A    
C26   H14   S    
C10   C13   A    
C8    H1    S    
C21   H6    S    
C17   C23   A    
C5    H8    S    
C9    C11   A    
C20   O3    D    
C21   C25   S    
Cu1   O1    S    
C4    C7    A    
C27   N2    A    
C21   O4    D    
C1    O6    A    
C24   C26   A    
C1    C23   S    
C2    O9    A    
C28   O10   A    
C10   C18   S    
C18   H3    S    
C14   C16   A    
Cu1   O8    S    
C25   N1    A    
C14   H10   S    
C16   H12   S    
C12   O5    A    
C15   H11   S    
C5    C7    A    
C3    C8    A    
Cu1   N1    S    
C6    C11   A    
C3    C10   A    
C28   O8    A    
C6    H9    S    
C1    O1    A    
C16   C22   A    
C26   N1    A    
C4    C28   S    
C27   H2    S    
C19   O2    D    
C20   H5    S    
Cu2   O10   S    
Cu2   N2    S    
C15   C22   A    
C18   O12   D    
C20   C24   S    
C9    C19   S    
Cu1   O11   S    
Cu2   O6    S    
Cu1   O7    S    
C19   H4    S    
