data_mof_unit_5101.cif
_audit_creation_date              2012-12-10T19:03:39-0500
_audit_creation_method            fapswitch 2.2
_symmetry_space_group_name_H-M    P1
_symmetry_Int_Tables_number       1
_space_group_crystal_system       triclinic
_cell_length_a                    15.887701
_cell_length_b                    10.829412
_cell_length_c                    9.549768
_cell_angle_alpha                 89.624269
_cell_angle_beta                  90.119228
_cell_angle_gamma                 90.23646
_cell_volume                      1643.02738774

loop_
_atom_site_label
_atom_site_type_symbol
_atom_type_description
_atom_site_fract_x
_atom_site_fract_y
_atom_site_fract_z
_atom_type_partial_charge
C1    C     C_R   0.501566 0.262385 0.500487 0.789791
C2    C     C_3   0.952132 0.408543 0.622092 -0.025534
C3    C     C_3   0.917029 0.495849 0.502507 0.149079
C4    C     C_3   0.951352 0.629271 0.522346 -0.396708
C5    C     C_3   0.048655 0.628948 0.528240 -0.345081
C6    C     C_1   0.824678 0.498095 0.501289 -0.026656
C7    C     C_1   0.175155 0.498935 0.499165 -0.097221
C8    C     C_1   0.250654 0.499577 0.499544 -0.181535
C9    C     C_R   0.500449 0.062790 0.626726 0.110703
C10   C     C_R   0.509625 0.129401 0.501911 -0.113647
C11   C     C_R   0.529616 0.065693 0.378700 -0.184564
C12   C     C_R   0.340249 0.499976 0.499912 0.823540
C13   C     C_R   0.529052 0.936975 0.378150 -0.216539
C14   C     C_R   0.508007 0.871023 0.500359 -0.087296
C15   C     C_R   0.498656 0.935480 0.625322 0.086781
C16   C     C_3   0.429427 0.928956 0.731064 -0.499063
C17   C     C_3   0.432580 0.069353 0.734629 -0.225675
C18   C     C_R   0.566871 0.547415 0.073582 0.311370
C19   C     C_R   0.437794 0.443100 0.074574 -0.057716
C20   C     C_R   0.437645 0.443441 0.925823 -0.065009
C21   C     C_R   0.567415 0.546243 0.925962 0.321924
C22   C     C_3   0.601378 0.675330 0.917511 -0.344215
C23   C     C_R   0.501014 0.737723 0.499728 0.787924
C24   C     C_3   0.598640 0.677584 0.077881 -0.352759
C25   C     C_R   0.659716 0.500108 0.500085 0.822223
C26   C     C_3   0.050844 0.410754 0.617307 -0.508262
C27   C     C_3   0.047421 0.448542 0.356609 -0.122345
C28   C     C_3   0.949434 0.451370 0.357761 -0.356995
C29   C     C_1   0.749232 0.499303 0.500515 -0.056902
C30   C     C_3   0.082855 0.497677 0.498775 0.255085
Cu1   Cu    Cu3+1 0.500000 0.499980 0.640670 0.968945
Cu2   Cu    Cu3+1 0.500000 0.500020 0.359330 0.965234
H1    H     H_    0.077848 0.441654 0.719113 0.164171
H2    H     H_    0.930418 0.689037 0.433676 0.209516
H3    H     H_    0.542215 0.114748 0.281740 0.189475
H4    H     H_    0.541737 0.890069 0.281229 0.149615
H5    H     H_    0.369811 0.892361 0.685966 0.192695
H6    H     H_    0.449319 0.882866 0.829951 0.192800
H7    H     H_    0.374240 0.115329 0.696946 0.139187
H8    H     H_    0.386817 0.398318 0.130266 0.146395
H9    H     H_    0.076907 0.316522 0.600778 0.170910
H10   H     H_    0.386536 0.398956 0.870468 0.142385
H11   H     H_    0.555992 0.739906 0.868330 0.139289
H12   H     H_    0.549953 0.741499 0.117403 0.130915
H13   H     H_    0.066848 0.350248 0.346702 0.094252
H14   H     H_    0.924444 0.357703 0.333933 0.161379
H15   H     H_    0.924374 0.513026 0.273822 0.231421
H16   H     H_    0.069697 0.659584 0.633762 0.159346
H17   H     H_    0.074296 0.697067 0.451781 0.214317
H18   H     H_    0.925669 0.671558 0.618929 0.165639
N1    N     N_R   0.500530 0.500930 0.147930 -0.214437
N2    N     N_R   0.500530 0.500890 0.852020 -0.214612
O1    O     O_R   0.500000 0.319640 0.618810 -0.575469
O2    O     O_R   0.500010 0.319680 0.381230 -0.577141
O3    O     O_R   0.379430 0.499990 0.618840 -0.585384
O4    O     O_R   0.379440 0.500030 0.381260 -0.581446
O5    O     O_R   0.499990 0.680320 0.618770 -0.588994
O6    O     O_R   0.500000 0.680360 0.381190 -0.593074
O7    O     O_R   0.620560 0.499970 0.618740 -0.544462
O8    O     O_R   0.620570 0.500010 0.381160 -0.558065
C31   C     C_1   0.922536 0.279675 0.599885 0.306663
N3    N     N_1   0.899493 0.179394 0.582509 -0.280941
C32   C     C_2   0.922849 0.451656 0.765745 0.402719
H19   H     H_    0.947019 0.537562 0.808062 0.085107
O9    O     O_2   0.872887 0.391700 0.836078 -0.484805
C33   C     C_1   0.464694 0.117305 0.868367 0.300189
N4    N     N_1   0.490147 0.154346 0.973729 -0.308238
C34   C     C_2   0.687910 0.685250 0.852877 0.472741
H20   H     H_    0.713205 0.775878 0.827764 0.040682
O10   O     O_2   0.730619 0.593879 0.831097 -0.488011
C35   C     C_2   0.681997 0.691586 0.152702 0.450425
H21   H     H_    0.698544 0.780090 0.197837 0.041972
O11   O     O_2   0.731971 0.606323 0.160324 -0.506131
C36   C     C_2   0.083246 0.515178 0.230060 0.362355
H22   H     H_    0.130165 0.469765 0.166241 0.060850
O12   O     O_2   0.061796 0.620220 0.199956 -0.545076

loop_
_geom_bond_atom_site_label_1
_geom_bond_atom_site_label_2
_ccdc_geom_bond_type
C23   O6    A    
C32   O9    D    
C28   H15   S    
C18   C21   A    
C19   C20   A    
Cu2   O6    S    
Cu1   N2    S    
C3    C6    S    
C7    C8    T    
C28   H14   S    
C17   C33   S    
C36   O12   D    
C18   C24   S    
C3    C28   S    
C15   C16   S    
C17   H7    S    
Cu1   O7    S    
C1    O1    A    
Cu1   Cu2   S    
C34   H20   S    
C25   O8    A    
C27   C36   S    
C9    C10   A    
C2    C31   S    
C16   H5    S    
C27   H13   S    
C33   N4    T    
C7    C30   S    
C21   C22   S    
C27   C30   S    
C5    H17   S    
Cu2   O2    S    
C18   N1    A    
C25   C29   S    
C5    H16   S    
C4    H2    S    
C36   H22   S    
C13   H4    S    
C10   C11   A    
C35   O11   D    
C16   C17   S    
C4    H18   S    
C14   C23   S    
C1    O2    A    
Cu2   N1    S    
C26   H1    S    
C22   H11   S    
C8    C12   S    
C2    C26   S    
Cu1   O1    S    
C22   C34   S    
C12   O4    A    
C9    C17   S    
C26   C30   S    
C24   H12   S    
C22   C24   S    
Cu2   O8    S    
C3    C4    S    
C2    C32   S    
C5    C30   S    
C23   O5    A    
C1    C10   S    
C4    C5    S    
C20   H10   S    
Cu1   O5    S    
C11   H3    S    
C2    C3    S    
C9    C15   A    
C35   H21   S    
C20   N2    A    
C11   C13   A    
C31   N3    T    
C12   O3    A    
C19   H8    S    
C32   H19   S    
C19   N1    A    
C6    C29   T    
C24   C35   S    
C34   O10   D    
C27   C28   S    
C14   C15   A    
C25   O7    A    
Cu1   O3    S    
C13   C14   A    
Cu2   O4    S    
C21   N2    A    
C26   H9    S    
C16   H6    S    
