data_mof_unit_41428.cif
_audit_creation_date              2012-12-10T19:47:24-0500
_audit_creation_method            fapswitch 2.2
_symmetry_space_group_name_H-M    P1
_symmetry_Int_Tables_number       1
_space_group_crystal_system       triclinic
_cell_length_a                    10.903168
_cell_length_b                    10.977121
_cell_length_c                    12.708352
_cell_angle_alpha                 92.89922
_cell_angle_beta                  93.339965
_cell_angle_gamma                 88.714667
_cell_volume                      1516.18745305

loop_
_atom_site_label
_atom_site_type_symbol
_atom_type_description
_atom_site_fract_x
_atom_site_fract_y
_atom_site_fract_z
_atom_type_partial_charge
C1    C     C_R   0.261842 0.503972 0.501032 0.838500
C2    C     C_R   0.738205 0.497794 0.500115 0.912082
C3    C     C_R   0.504470 0.870941 0.495909 -0.127409
C4    C     C_R   0.503979 0.127377 0.499063 -0.121314
C5    C     C_R   0.455137 0.932000 0.406591 -0.038027
C6    C     C_R   0.546305 0.065744 0.589810 -0.054818
C7    C     C_R   0.251772 0.685555 0.830472 -0.157631
C8    C     C_R   0.829127 0.315078 0.148612 -0.163998
C9    C     C_R   0.199279 0.605113 0.752828 -0.164955
C10   C     C_R   0.871956 0.391954 0.232672 -0.111265
C11   C     C_R   0.128345 0.649658 0.666703 0.047289
C12   C     C_R   0.870428 0.355137 0.336687 0.097631
C13   C     C_R   0.104185 0.776523 0.663308 0.529478
C14   C     C_R   0.824503 0.239960 0.356812 0.467921
C15   C     C_R   0.156382 0.856910 0.742722 -0.056723
C16   C     C_R   0.782539 0.161987 0.270551 -0.044354
C17   C     C_R   0.231733 0.811001 0.824914 -0.250053
C18   C     C_R   0.785704 0.200070 0.167309 -0.236161
C19   C     C_R   0.938421 0.555268 0.587605 0.480134
C20   C     C_R   0.062624 0.429961 0.425983 0.442732
C21   C     C_R   0.872091 0.494618 0.502383 -0.242149
C22   C     C_R   0.128573 0.500557 0.504738 -0.268746
C23   C     C_R   0.501784 0.261592 0.500332 0.806032
C24   C     C_R   0.500181 0.737939 0.498791 0.795540
C25   C     C_R   0.934483 0.430324 0.422324 -0.115935
C26   C     C_R   0.066237 0.563777 0.586704 -0.116275
C27   C     C_2   0.460059 0.472184 0.030753 -0.172044
C28   C     C_2   0.542762 0.521985 0.969112 -0.172195
C29   C     C_1   0.528360 0.520573 0.852784 0.178192
C30   C     C_1   0.473135 0.476517 0.147149 0.216421
C31   C     C_R   0.711106 0.237370 0.821264 -0.145148
C32   C     C_R   0.192995 0.845908 0.209747 -0.104836
C33   C     C_R   0.685304 0.186342 0.719535 -0.084523
C34   C     C_R   0.258761 0.890979 0.300447 -0.194518
C35   C     C_R   0.572459 0.129715 0.694262 0.130149
C36   C     C_R   0.385908 0.868961 0.314971 0.126065
C37   C     C_R   0.486642 0.123746 0.771972 -0.131687
C38   C     C_R   0.447483 0.808295 0.232730 -0.047097
C39   C     C_R   0.513195 0.173985 0.873562 -0.109098
C40   C     C_R   0.382004 0.766943 0.140383 -0.164655
C41   C     C_R   0.625046 0.231102 0.898012 -0.125695
C42   C     C_R   0.254642 0.783406 0.129767 -0.103732
C43   C     C_R   0.557105 0.938602 0.584200 -0.097231
C44   C     C_R   0.464303 0.058928 0.405673 -0.083752
Cu1   Cu    Cu3+1 0.492140 0.492110 0.395880 1.021622
Cu2   Cu    Cu3+1 0.507860 0.507890 0.604120 1.005697
H1    H     H_    0.644421 0.271012 0.976388 0.136148
H2    H     H_    0.204076 0.750392 0.058651 0.138169
H3    H     H_    0.798091 0.280804 0.841018 0.124617
H4    H     H_    0.094907 0.862916 0.200075 0.137664
H5    H     H_    0.753035 0.190217 0.661180 0.160714
H6    H     H_    0.211897 0.948729 0.356928 0.100982
H7    H     H_    0.400204 0.078294 0.754135 0.132993
H8    H     H_    0.545878 0.794148 0.239130 0.165123
H9    H     H_    0.447387 0.167950 0.933519 0.156332
H10   H     H_    0.430235 0.723670 0.076352 0.135480
H11   H     H_    0.272578 0.872054 0.886218 0.161697
H12   H     H_    0.755811 0.139845 0.101056 0.164091
H13   H     H_    0.306678 0.650707 0.896178 0.148869
H14   H     H_    0.832611 0.343680 0.068609 0.152709
H15   H     H_    0.212849 0.507832 0.760215 0.177982
H16   H     H_    0.909341 0.479313 0.216713 0.165185
N1    N     N_1   0.480320 0.480250 0.239400 -0.147497
N2    N     N_1   0.519680 0.519750 0.760600 -0.151985
O1    O     O_R   0.313000 0.493330 0.412070 -0.528708
O2    O     O_R   0.687000 0.506670 0.587930 -0.548294
O3    O     O_R   0.326280 0.506660 0.587930 -0.596216
O4    O     O_R   0.673720 0.493340 0.412070 -0.591266
O5    O     O_R   0.493370 0.312980 0.412070 -0.573989
O6    O     O_R   0.506630 0.687020 0.587930 -0.572293
O7    O     O_R   0.506650 0.326310 0.587930 -0.576120
O8    O     O_R   0.493350 0.673690 0.412070 -0.588799
O9    O     O_3   0.020277 0.819998 0.587904 -0.556866
C45   C     C_3   0.084402 0.848155 0.499882 -0.389992
H17   H     H_    0.145220 0.771380 0.472596 0.161973
H18   H     H_    0.138570 0.931950 0.518296 0.155396
H19   H     H_    0.016749 0.865851 0.433622 0.200948
O10   O     O_3   0.813993 0.210398 0.460847 -0.630637
C46   C     C_3   0.886266 0.106217 0.486007 -0.336188
H20   H     H_    0.950236 0.074517 0.424602 0.134016
H21   H     H_    0.824943 0.030453 0.501168 0.223469
H22   H     H_    0.942364 0.127457 0.559975 0.203064
C47   C     C_1   0.131239 0.986390 0.741590 0.253290
N3    N     N_1   0.111232 0.090332 0.740720 -0.311510
C48   C     C_1   0.743407 0.040145 0.285725 0.249712
N4    N     N_1   0.714474 0.941535 0.298294 -0.315415
O11   O     O_3   0.876633 0.618155 0.666591 -0.534241
C49   C     C_3   0.878084 0.546225 0.755841 -0.221390
H23   H     H_    0.968590 0.549367 0.800232 0.153257
H24   H     H_    0.853844 0.449659 0.734824 0.138223
H25   H     H_    0.808611 0.584319 0.809464 0.198726
O12   O     O_3   0.122816 0.359671 0.350496 -0.548272
C50   C     C_3   0.162140 0.248160 0.393420 -0.270249
H26   H     H_    0.102832 0.216832 0.454495 0.127901
H27   H     H_    0.256664 0.256369 0.429056 0.162937
H28   H     H_    0.162576 0.176489 0.328751 0.184500
C51   C     C_1   0.651598 0.579318 0.017224 0.217526
N5    N     N_1   0.738723 0.625293 0.055767 -0.298905
C52   C     C_1   0.350731 0.415342 0.983168 0.250110
N6    N     N_1   0.263046 0.369802 0.945259 -0.291357
C53   C     C_1   0.625560 0.879413 0.669939 0.321695
N7    N     N_1   0.680183 0.832901 0.738254 -0.223725
C54   C     C_1   0.430525 0.116060 0.306704 0.283687
N8    N     N_1   0.403902 0.160568 0.227680 -0.264730

loop_
_geom_bond_atom_site_label_1
_geom_bond_atom_site_label_2
_ccdc_geom_bond_type
C28   C51   S    
O11   C49   S    
C50   H26   S    
O9    C45   S    
C23   O5    A    
C51   N5    T    
C24   O6    A    
C39   C41   A    
C48   N4    T    
C20   O12   S    
C3    C43   A    
C53   N7    T    
C45   H18   S    
C9    H15   S    
C28   C29   S    
C35   C37   A    
C31   H3    S    
Cu2   O2    S    
C2    O4    A    
C20   C25   A    
C5    C36   S    
C6    C35   S    
C7    C9    A    
C19   C26   A    
C33   C35   A    
C18   H12   S    
C39   H9    S    
C47   N3    T    
C40   H10   S    
C45   H19   S    
C1    O1    A    
C31   C33   A    
C37   H7    S    
C40   C42   A    
C29   N2    T    
C1    C22   S    
C50   H27   S    
C30   N1    T    
C27   C30   S    
C3    C24   S    
C10   H16   S    
C2    C21   S    
C7    H13   S    
C44   C54   S    
C45   H17   S    
Cu1   O5    S    
C23   O7    A    
C4    C6    A    
C46   H21   S    
C4    C23   S    
O10   C46   S    
C15   C47   S    
C4    C44   A    
C11   C26   S    
C2    O2    A    
Cu1   Cu2   S    
Cu1   N1    S    
C8    C18   A    
Cu2   N2    S    
C32   C34   A    
C43   C53   S    
C52   N6    T    
C38   H8    S    
C49   H25   S    
C27   C52   S    
Cu1   O4    S    
C41   H1    S    
C42   H2    S    
C9    C11   A    
C32   H4    S    
Cu2   O7    S    
C10   C12   A    
C16   C18   A    
C5    C44   A    
C13   O9    S    
C50   H28   S    
C6    C43   A    
C13   C15   A    
Cu1   O1    S    
C16   C48   S    
C14   C16   A    
C54   N8    T    
C24   O8    A    
C15   C17   A    
C21   C25   A    
C49   H24   S    
C31   C41   A    
C19   C21   A    
C20   C22   A    
C3    C5    A    
C7    C17   A    
C46   H22   S    
C33   H5    S    
C34   H6    S    
C12   C25   S    
C36   C38   A    
C12   C14   A    
C19   O11   S    
Cu2   O3    S    
C37   C39   A    
C8    H14   S    
C38   C40   A    
C11   C13   A    
O12   C50   S    
C1    O3    A    
C34   C36   A    
C14   O10   S    
Cu2   O6    S    
C46   H20   S    
C49   H23   S    
C8    C10   A    
C22   C26   A    
C27   C28   D    
C32   C42   A    
C17   H11   S    
Cu1   O8    S    
