data_mof_unit_5391.cif
_audit_creation_date              2012-12-10T18:46:21-0500
_audit_creation_method            fapswitch 2.2
_symmetry_space_group_name_H-M    P1
_symmetry_Int_Tables_number       1
_space_group_crystal_system       triclinic
_cell_length_a                    9.872639
_cell_length_b                    10.647979
_cell_length_c                    13.054113
_cell_angle_alpha                 90.162195
_cell_angle_beta                  71.046141
_cell_angle_gamma                 89.82379
_cell_volume                      1297.8739935

loop_
_atom_site_label
_atom_site_type_symbol
_atom_type_description
_atom_site_fract_x
_atom_site_fract_y
_atom_site_fract_z
_atom_type_partial_charge
C1    C     C_R   0.499907 0.739345 0.500180 0.854748
C2    C     C_R   0.381887 0.434002 0.814065 -0.138679
C3    C     C_R   0.510911 0.934942 0.591570 -0.123558
C4    C     C_R   0.423328 0.481770 0.702262 0.839131
C5    C     C_R   0.507978 0.065152 0.591927 0.481366
C6    C     C_R   0.499660 0.127914 0.499150 -0.323398
C7    C     C_R   0.489574 0.064631 0.407023 -0.106677
C8    C     C_R   0.491978 0.934261 0.406718 0.484397
C9    C     C_R   0.500678 0.871691 0.499543 -0.335722
C10   C     C_R   0.960774 0.433602 0.423163 0.531215
C11   C     C_R   0.105230 0.433896 0.423701 -0.181190
C12   C     C_R   0.447241 0.398140 0.976262 0.096780
C13   C     C_R   0.036944 0.565865 0.577473 0.017474
C14   C     C_R   0.893607 0.564789 0.576708 -0.144131
C15   C     C_R   0.500410 0.260511 0.499021 0.858208
C16   C     C_R   0.578858 0.501456 0.295315 0.826750
C17   C     C_R   0.804397 0.474581 0.999685 -0.137562
C18   C     C_R   0.625944 0.486123 0.177476 -0.152353
C19   C     C_R   0.236748 0.423406 0.875145 -0.155270
C20   C     C_R   0.196983 0.391690 0.984206 -0.046805
C21   C     C_R   0.299950 0.384910 0.036014 -0.128562
C22   C     C_2   0.868599 0.588825 0.144568 0.455218
C23   C     C_R   0.487363 0.401790 0.862490 0.090871
C24   C     C_2   0.483112 0.135405 0.309744 0.527673
C25   C     C_2   0.068945 0.640799 0.662356 0.415142
C26   C     C_2   0.517452 0.864345 0.688971 0.551349
C27   C     C_R   0.556039 0.417283 0.024054 0.090720
C28   C     C_R   0.700951 0.427432 0.957650 0.129485
C29   C     C_R   0.739007 0.395612 0.848610 -0.194813
C30   C     C_R   0.632663 0.377830 0.802203 -0.125243
C31   C     C_R   0.523663 0.438964 0.134296 -0.210228
C32   C     C_R   0.766189 0.512682 0.108337 -0.028755
H1    H     H_    0.186988 0.381164 0.363216 0.135850
H2    H     H_    0.836044 0.633731 0.223327 0.098133
H3    H     H_    0.464696 0.211789 0.687955 0.307877
H4    H     H_    0.516307 0.232650 0.298264 0.022161
H5    H     H_    0.525734 0.784477 0.312872 0.319812
H6    H     H_    0.008520 0.325489 0.296359 0.309844
H7    H     H_    0.175595 0.672552 0.652594 0.136721
H8    H     H_    0.483880 0.767094 0.700903 0.026105
H9    H     H_    0.810922 0.617156 0.636839 0.205391
H10   H     H_    0.850418 0.390664 0.798112 0.154845
H11   H     H_    0.912196 0.490034 0.945600 0.178212
H12   H     H_    0.416683 0.423158 0.187892 0.158995
H13   H     H_    0.154383 0.439389 0.838494 0.156706
H14   H     H_    0.261142 0.368099 0.122037 0.121689
H15   H     H_    0.085153 0.378637 0.030291 0.163014
H16   H     H_    0.666749 0.348727 0.718336 0.197499
N1    N     N_R   0.142790 0.500030 0.500030 -0.130279
N2    N     N_R   0.857180 0.499940 0.500010 -0.116386
O1    O     O_R   0.385370 0.683250 0.500010 -0.617174
O2    O     O_3   0.509160 0.128034 0.684644 -0.702371
O3    O     O_2   0.439113 0.086869 0.241827 -0.489708
O4    O     O_3   0.489717 0.871369 0.314090 -0.682006
O5    O     O_3   0.922141 0.367017 0.346365 -0.739032
O6    O     O_2   0.973809 0.670406 0.745434 -0.575786
O7    O     O_2   0.562052 0.913046 0.756503 -0.467301
O8    O     O_R   0.614700 0.683220 0.500010 -0.613934
O9    O     O_R   0.328400 0.499990 0.653620 -0.641953
O10   O     O_R   0.557730 0.499960 0.653620 -0.635434
O11   O     O_R   0.385300 0.316780 0.499990 -0.621667
O12   O     O_R   0.614630 0.316750 0.499990 -0.560691
O13   O     O_R   0.442270 0.500040 0.346380 -0.608512
O14   O     O_R   0.671600 0.500010 0.346380 -0.579766
O15   O     O_2   0.990181 0.607997 0.084342 -0.566172
Zn1   Zn    Zn3+2 0.346870 0.500020 0.500000 0.946491
Zn2   Zn    Zn3+2 0.653130 0.499980 0.500000 0.991244

loop_
_geom_bond_atom_site_label_1
_geom_bond_atom_site_label_2
_ccdc_geom_bond_type
C8    C9    A    
C2    C4    S    
C19   H13   S    
C22   O15   D    
C6    C7    A    
C3    C9    A    
C16   O13   A    
C13   C14   A    
C29   H10   S    
C29   C30   A    
N2    Zn2   S    
C19   C20   A    
C25   O6    D    
C13   C25   S    
C4    O10   A    
C17   H11   S    
C24   O3    D    
O13   Zn1   S    
C7    C8    A    
C5    O2    S    
C16   C18   S    
C24   H4    S    
C1    O8    A    
C25   H7    S    
C10   O5    S    
C1    O1    A    
C12   C23   A    
C26   H8    S    
C14   N2    A    
C22   C32   S    
O12   Zn2   S    
C14   H9    S    
C11   N1    A    
H5    O4    S    
C12   C21   A    
C4    O9    A    
C30   H16   S    
C28   C29   A    
C15   O12   A    
O9    Zn1   S    
C15   O11   A    
C5    C6    A    
C22   H2    S    
C26   O7    D    
C13   N1    A    
C20   H15   S    
C18   C32   A    
C31   H12   S    
C12   C27   A    
C27   C31   A    
C7    C24   S    
C10   N2    A    
O14   Zn2   S    
O8    Zn2   S    
C11   H1    S    
C1    C9    S    
C23   C30   A    
C20   C21   A    
C21   H14   S    
C10   C11   A    
C8    O4    S    
C2    C23   A    
C17   C32   A    
H3    O2    S    
C18   C31   A    
C16   O14   A    
C3    C5    A    
C6    C15   S    
C2    C19   A    
C17   C28   A    
O11   Zn1   S    
C3    C26   S    
H6    O5    S    
O10   Zn2   S    
N1    Zn1   S    
C27   C28   A    
O1    Zn1   S    
