data_mof_unit_33706.cif
_audit_creation_date              2013-03-05T15:53:44-0500
_audit_creation_method            fapswitch 2.2
_symmetry_space_group_name_H-M    P1
_symmetry_Int_Tables_number       1
_space_group_crystal_system       triclinic
_cell_length_a                    14.984544
_cell_length_b                    14.788593
_cell_length_c                    17.072878
_cell_angle_alpha                 109.266186
_cell_angle_beta                  106.144845
_cell_angle_gamma                 108.348835
_cell_volume                      3066.48113118

loop_
_atom_site_label
_atom_site_type_symbol
_atom_site_description
_atom_site_fract_x
_atom_site_fract_y
_atom_site_fract_z
_atom_type_partial_charge
C1    C     C_R   0.086460 0.271299 0.045384 -0.048113
H1    H     H_    0.164559 0.284590 0.079138 0.188807
N1    N     N_R   0.055640 0.348550 0.045600 -0.049045
C2    C     C_R   0.934030 0.522723 0.749739 -0.072022
H2    H     H_    0.855245 0.505788 0.710683 0.088166
N2    N     N_R   0.960830 0.507850 0.823710 -0.050720
C3    C     C_R   0.774069 0.200757 0.810936 -0.107024
H3    H     H_    0.757087 0.134779 0.826605 0.091949
N3    N     N_R   0.811290 0.303400 0.871650 -0.046541
C4    C     C_R   0.254526 0.528487 0.946583 -0.094226
H4    H     H_    0.257190 0.548689 0.892403 0.121968
N4    N     N_R   0.205180 0.552990 0.997660 -0.044612
C5    C     C_R   0.780551 0.297183 0.734872 -0.095669
H5    H     H_    0.771311 0.323520 0.682767 0.145651
N5    N     N_R   0.814810 0.361830 0.823710 -0.052845
C6    C     C_R   0.267964 0.452380 0.039538 0.314780
N6    N     N_R   0.201660 0.494570 0.045600 -0.072910
C7    C     C_R   0.105952 0.607523 0.824449 -0.013305
N7    N     N_R   0.068420 0.560530 0.871650 -0.043665
C8    C     C_R   0.914400 0.192095 0.975878 -0.113990
H6    H     H_    0.834237 0.136633 0.950397 0.083702
N8    N     N_R   0.948050 0.295860 0.997660 -0.043565
C9    C     C_R   0.998714 0.170894 0.997642 0.072187
C10   C     C_R   0.022702 0.584957 0.746846 -0.017793
C11   C     C_R   0.759819 0.194670 0.724893 0.113824
C12   C     C_R   0.296195 0.466641 0.971807 -0.015587
C13   C     C_R   0.271819 0.688485 0.253299 -0.106044
H7    H     H_    0.291877 0.650763 0.295240 0.127673
N9    N     N_R   0.185190 0.638170 0.176290 -0.052133
C14   C     C_R   0.705761 0.501230 0.918769 -0.158665
H8    H     H_    0.683038 0.524046 0.865252 0.103558
N10   N     N_R   0.798340 0.505430 0.954400 -0.042247
C15   C     C_R   0.887953 0.458863 0.185580 -0.127954
H9    H     H_    0.805368 0.428975 0.164850 0.102203
N11   N     N_R   0.931580 0.439470 0.128350 -0.046997
C16   C     C_R   0.077493 0.809792 0.044440 -0.011783
N12   N     N_R   0.051950 0.704140 0.002340 -0.042446
C17   C     C_R   0.906211 0.722759 0.972393 -0.116217
H10   H     H_    0.824773 0.703701 0.945668 0.108314
N13   N     N_R   0.944360 0.651450 0.954400 -0.059201
C18   C     C_R   0.061447 0.544449 0.265481 -0.111577
H11   H     H_    0.138801 0.592272 0.320497 0.113446
N14   N     N_R   0.039170 0.492150 0.176290 -0.045068
C19   C     C_R   0.282206 0.782993 0.176592 -0.123494
H12   H     H_    0.317428 0.831714 0.148613 0.175684
N15   N     N_R   0.188710 0.696600 0.128350 -0.046430
C20   C     C_R   0.698627 0.407144 0.996664 -0.125403
H13   H     H_    0.669190 0.346009 0.016747 0.092805
N16   N     N_R   0.794820 0.447010 0.002340 -0.043760
Ni1   Ni    Ni4+2 0.119330 0.493420 0.109950 0.261078
Ni2   Ni    Ni4+2 0.880670 0.506580 0.890050 0.207799
Ni3   Ni    Ni4+2 0.872590 0.372590 0.000000 0.215898
Ni4   Ni    Ni4+2 0.127410 0.627410 0.000000 0.308206
C21   C     C_R   0.336101 0.780423 0.255517 0.033409
C22   C     C_R   0.641269 0.440376 0.944204 0.093655
C23   C     C_R   0.967080 0.525179 0.272684 0.058945
C24   C     C_R   0.988094 0.824437 0.029468 -0.017632
C25   C     C_R   0.404531 0.476242 0.886356 0.142677
C26   C     C_R   0.360287 0.429113 0.933636 0.074255
C27   C     C_R   0.385049 0.350592 0.948201 -0.061383
H14   H     H_    0.347089 0.307046 0.978188 0.166086
C28   C     C_R   0.470164 0.339717 0.936909 -0.199130
H15   H     H_    0.495123 0.287666 0.959008 0.132959
C29   C     C_R   0.531290 0.410004 0.913127 0.024298
C30   C     C_R   0.489809 0.467340 0.876579 0.166714
C31   C     C_3   0.539244 0.580906 0.892210 -0.525188
C32   C     C_3   0.445252 0.590093 0.902235 -0.470661
H16   H     H_    0.611485 0.633698 0.957016 0.207460
H17   H     H_    0.545549 0.585747 0.830204 0.196642
H18   H     H_    0.463552 0.647828 0.972521 0.218461
H19   H     H_    0.397317 0.599593 0.845647 0.195025
C33   C     C_R   0.950773 0.557173 0.356043 0.120536
C34   C     C_R   0.020472 0.621524 0.675995 0.104090
C35   C     C_R   0.109202 0.715421 0.606697 -0.128006
C36   C     C_R   0.106061 0.705309 0.684414 -0.221344
C37   C     C_R   0.930574 0.563364 0.593320 -0.224648
C38   C     C_R   0.931959 0.574631 0.516522 0.163696
C39   C     C_R   0.024585 0.645193 0.521355 0.158265
C40   C     C_R   0.033256 0.637008 0.440340 -0.248368
C41   C     C_R   0.854539 0.497935 0.352907 -0.146254
C42   C     C_R   0.845176 0.506975 0.432912 -0.185730
H20   H     H_    0.106309 0.686043 0.443172 0.133502
H21   H     H_    0.788299 0.437382 0.289297 0.125670
H22   H     H_    0.179022 0.774509 0.612705 0.162246
H23   H     H_    0.772814 0.454449 0.428833 0.142835
H24   H     H_    0.171102 0.762315 0.749435 0.131498
H25   H     H_    0.861778 0.500570 0.584667 0.138263
C43   C     C_R   0.720861 0.096283 0.639220 0.070617
C44   C     C_R   0.444764 0.852505 0.322613 0.110944
C45   C     C_R   0.596137 0.023449 0.394076 -0.125058
C46   C     C_R   0.502165 0.945879 0.320101 -0.180811
C47   C     C_R   0.487768 0.833213 0.395692 -0.177643
C48   C     C_R   0.574822 0.915013 0.475126 0.088351
C49   C     C_R   0.629765 0.012240 0.474330 0.062747
C50   C     C_R   0.711039 0.099295 0.555799 0.224155
C51   C     C_R   0.678065 0.996597 0.638186 -0.295115
C52   C     C_R   0.605982 0.905017 0.556922 -0.058922
H26   H     H_    0.693499 0.990169 0.701323 0.129801
H27   H     H_    0.635854 0.096372 0.391054 0.176310
H28   H     H_    0.472832 0.961947 0.263362 0.137955
H29   H     H_    0.448800 0.757155 0.393123 0.173503
C53   C     C_R   0.069309 0.035784 0.949408 0.118825
C54   C     C_R   0.990035 0.060254 0.963888 0.072207
C55   C     C_R   0.892175 0.971150 0.928768 -0.195505
H30   H     H_    0.828668 0.981885 0.941651 0.125524
C56   C     C_R   0.871187 0.867356 0.868339 -0.169373
H31   H     H_    0.793601 0.802440 0.836579 0.121793
C57   C     C_R   0.948161 0.848837 0.844339 0.025916
C58   C     C_R   0.048237 0.932684 0.891622 0.011909
C59   C     C_3   0.131950 0.968462 0.862193 -0.429220
C60   C     C_3   0.155710 0.083699 0.925068 0.105694
H32   H     H_    0.192977 0.943622 0.886015 0.171630
C61   C     C_2   0.180665 0.899869 0.084773 0.467573
H33   H     H_    0.201049 0.974169 0.142406 0.041905
O1    O     O_2   0.240403 0.895692 0.049294 -0.548466
Br1   Br    Br    0.813152 0.214133 0.551277 -0.586733
C62   C     C_2   0.559260 0.805813 0.565135 0.516961
H34   H     H_    0.609305 0.785594 0.608507 0.012294
O2    O     O_2   0.465371 0.750946 0.530501 -0.593051
C63   C     C_2   0.092357 0.936945 0.761185 0.713181
H35   H     H_    0.009588 0.898440 0.717438 0.012389
O3    O     O_2   0.153994 0.957183 0.728070 -0.570356
C64   C     C_2   0.261552 0.140719 0.004440 0.560291
H36   H     H_    0.329810 0.152054 0.990911 0.023152
O4    O     O_2   0.271948 0.172421 0.083659 -0.566552
Br2   Br    Br    0.129129 0.168484 0.862342 -0.577752
Br3   Br    Br    0.352253 0.442004 0.140651 -0.573757
C65   C     C_2   0.215555 0.684340 0.860040 0.451358
H37   H     H_    0.251121 0.690651 0.813674 0.004389
O5    O     O_2   0.269472 0.737099 0.942406 -0.542549

loop_
_geom_bond_atom_site_label_1
_geom_bond_atom_site_label_2
_geom_bond_distance
_ccdc_geom_bond_type
C31   H16   1.112336 S    
C43   C51   1.402199 A    
C48   C49   1.420985 A    
C13   N9    1.328329 A    
C34   C36   1.407189 A    
C18   H11   1.079810 S    
C65   H37   1.082337 S    
C55   C56   1.410674 A    
C13   C21   1.378058 A    
C64   H36   1.084712 S    
C20   N16   1.335734 A    
C38   C39   1.410596 A    
C19   H12   1.074152 S    
N2    N7    1.389454 A    
C7    C10   1.396374 A    
N8    Ni3   1.835974 S    
C16   N12   1.354159 A    
C7    N7    1.350632 A    
N12   N13   1.389455 A    
C62   O2    1.220395 D    
C17   H10   1.079696 S    
C2    C10   1.382583 A    
C10   C34   1.475573 S    
C64   O4    1.221357 D    
C31   H17   1.111802 S    
C56   H31   1.081869 S    
C57   C58   1.390497 A    
C27   C28   1.391093 A    
C1    H1    1.070352 S    
C59   C60   1.543233 S    
C28   C29   1.403622 A    
C36   H24   1.075322 S    
C7    C65   1.473729 S    
C9    C54   1.492748 S    
C19   N15   1.345507 A    
C6    N6    1.338648 A    
C23   C33   1.459738 S    
C51   H26   1.080395 S    
N4    N6    1.371514 A    
N5    Ni2   1.813133 S    
C46   H28   1.081169 S    
C44   C46   1.400082 A    
N11   N14   1.389454 A    
C12   C26   1.449153 S    
N4    Ni4   1.837185 S    
N12   Ni4   1.835974 S    
N7    Ni4   1.871762 S    
C15   C23   1.379851 A    
C31   C32   1.506859 S    
C43   C50   1.407664 A    
C26   C27   1.399446 A    
C5    H5    1.075344 S    
C22   C29   1.445520 S    
C18   N14   1.343854 A    
C5    C11   1.388329 A    
C53   C60   1.505620 S    
C49   C50   1.401552 A    
N3    Ni3   1.871292 S    
C41   H21   1.079648 S    
C16   C61   1.464504 S    
C55   H30   1.080570 S    
N1    Ni1   1.812208 S    
C63   O3    1.220757 D    
C45   C49   1.406159 A    
N9    Ni1   1.813131 S    
C6    C12   1.391906 A    
C35   C36   1.395129 A    
C60   C64   1.507123 S    
C14   N10   1.322832 A    
C3    H3    1.068706 S    
C37   C38   1.380012 A    
C21   C44   1.471003 S    
C2    N2    1.327189 A    
C16   C24   1.391238 A    
C59   C63   1.506523 S    
C39   C40   1.394283 A    
C2    H2    1.080236 S    
C25   C26   1.398161 A    
C11   C43   1.477559 S    
C27   H14   1.072031 S    
C1    N1    1.359706 A    
N10   Ni2   1.866051 S    
C28   H15   1.081296 S    
C17   C24   1.386571 A    
C25   C30   1.374102 A    
C20   H13   1.080351 S    
C8    C9    1.377604 A    
C38   C42   1.391316 A    
C50   Br1   1.935862 S    
N16   Ni3   1.837184 S    
C51   C52   1.389749 A    
C60   Br2   1.959836 S    
C15   H9    1.077433 S    
C44   C47   1.398885 A    
C37   H25   1.081174 S    
C4    N4    1.325629 A    
C47   H29   1.071317 S    
C8    N8    1.333906 A    
C1    C9    1.405011 A    
C5    N5    1.333813 A    
N2    Ni2   1.866113 S    
C34   C37   1.399530 A    
C48   C52   1.416742 A    
C45   H27   1.081464 S    
C13   H7    1.078768 S    
C63   H35   1.086208 S    
C20   C22   1.382289 A    
C61   H33   1.084850 S    
C3    N3    1.340453 A    
C18   C23   1.400700 A    
C35   H22   1.083617 S    
C41   C42   1.378824 A    
N1    N8    1.389454 A    
C65   O5    1.219098 D    
N6    Ni1   1.866049 S    
C40   H20   1.083567 S    
N14   Ni1   1.866116 S    
C33   C40   1.401251 A    
N13   Ni2   1.812207 S    
C14   C22   1.369699 A    
C3    C11   1.392065 A    
N9    N15   1.371632 A    
C32   H18   1.112481 S    
C29   C30   1.400002 A    
N3    N5    1.371633 A    
C33   C41   1.407313 A    
C58   C59   1.487951 S    
C17   N13   1.340394 A    
N11   Ni3   1.871759 S    
C4    C12   1.371765 A    
C45   C46   1.389855 A    
C14   H8    1.080455 S    
C56   C57   1.400343 A    
N15   Ni4   1.871289 S    
C47   C48   1.394345 A    
C15   N11   1.323878 A    
C32   H19   1.111857 S    
C52   C62   1.485189 S    
C53   C54   1.406445 A    
C6    Br3   1.919146 S    
C59   H32   1.113498 S    
N10   N16   1.371513 A    
C4    H4    1.068578 S    
C19   C21   1.384658 A    
C25   C32   1.496859 S    
C8    H6    1.076331 S    
C30   C31   1.500530 S    
C35   C39   1.397912 A    
C54   C55   1.420999 A    
C53   C58   1.388774 A    
C62   H34   1.085621 S    
C42   H23   1.084430 S    
C61   O1    1.218057 D    
