data_mof_unit_24635.cif
_audit_creation_date              2012-12-10T17:31:08-0500
_audit_creation_method            fapswitch 2.2
_symmetry_space_group_name_H-M    P1
_symmetry_Int_Tables_number       1
_space_group_crystal_system       triclinic
_cell_length_a                    12.106622
_cell_length_b                    12.807074
_cell_length_c                    15.184491
_cell_angle_alpha                 87.136657
_cell_angle_beta                  115.749172
_cell_angle_gamma                 94.596069
_cell_volume                      2113.46433503

loop_
_atom_site_label
_atom_site_type_symbol
_atom_type_description
_atom_site_fract_x
_atom_site_fract_y
_atom_site_fract_z
_atom_type_partial_charge
C1    C     C_R   0.476443 0.299748 0.498177 0.893491
C2    C     C_R   0.523595 0.700264 0.501062 0.881801
C3    C     C_R   0.535300 0.710219 0.027671 -0.218544
C4    C     C_R   0.336211 0.503738 0.873503 -0.223298
C5    C     C_R   0.615654 0.733532 0.984950 -0.236533
C6    C     C_R   0.253655 0.483536 0.914037 -0.241069
C7    C     C_R   0.540542 0.811881 0.503055 -0.084185
C8    C     C_R   0.459923 0.188238 0.492287 -0.087084
C9    C     C_R   0.338569 0.033381 0.412005 0.193882
C10   C     C_R   0.665150 0.968448 0.575416 0.186922
C11   C     C_R   0.350243 0.140960 0.425169 -0.267956
C12   C     C_R   0.654068 0.860808 0.562178 -0.256034
C13   C     C_R   0.561933 0.131347 0.544627 -0.290138
C14   C     C_R   0.438122 0.868306 0.451233 -0.296625
C15   C     C_R   0.558054 0.025490 0.528361 0.114915
C16   C     C_R   0.443873 0.975236 0.463210 0.113250
C17   C     C_R   0.105680 0.611574 0.564574 -0.359038
C18   C     C_R   0.890165 0.393483 0.430260 -0.369346
C19   C     C_R   0.202345 0.599756 0.539737 -0.009683
C20   C     C_R   0.793901 0.404798 0.455040 -0.009920
C21   C     C_R   0.100363 0.449092 0.446977 0.248890
C22   C     C_R   0.902014 0.547351 0.558114 0.258196
C23   C     C_R   0.576676 0.498170 0.680809 0.851106
C24   C     C_R   0.424652 0.510749 0.319072 0.858619
C25   C     C_R   0.997372 0.460296 0.468821 0.069002
C26   C     C_R   0.002249 0.540362 0.531849 0.063610
C27   C     C_R   0.626153 0.529669 0.782285 -0.099859
C28   C     C_R   0.375209 0.526169 0.212464 -0.098645
C29   C     C_R   0.708861 0.683595 0.882105 -0.213382
C30   C     C_R   0.214453 0.472133 0.056135 -0.208255
C31   C     C_R   0.706296 0.619727 0.809729 -0.229011
C32   C     C_R   0.258423 0.478896 0.156285 -0.238980
C33   C     C_R   0.558264 0.496987 0.834568 0.105518
C34   C     C_R   0.443107 0.582616 0.166495 0.080666
C35   C     C_R   0.542312 0.571514 0.893484 0.073055
C36   C     C_R   0.396802 0.575679 0.062233 0.058006
C37   C     C_R   0.624120 0.662443 0.921573 0.132328
C38   C     C_R   0.286922 0.512012 0.010346 0.145392
C39   C     C_R   0.449231 0.559293 0.926282 0.067594
C40   C     C_R   0.463423 0.614872 0.008747 0.072169
H1    H     H_    0.710884 0.355269 0.419433 0.166682
H2    H     H_    0.282860 0.652800 0.571817 0.168664
H3    H     H_    0.114526 0.676422 0.610538 0.170859
H4    H     H_    0.876942 0.333564 0.378370 0.171628
H5    H     H_    0.204427 0.439637 0.190867 0.154311
H6    H     H_    0.759065 0.645448 0.769588 0.156494
H7    H     H_    0.522186 0.771161 0.067865 0.143193
H8    H     H_    0.307866 0.481378 0.798814 0.157024
H9    H     H_    0.353460 0.826464 0.403507 0.172875
H10   H     H_    0.645185 0.172236 0.595741 0.170001
N1    N     N_R   0.799120 0.480200 0.517090 -0.116609
N2    N     N_R   0.200880 0.519800 0.482910 -0.120183
O1    O     O_R   0.580150 0.341050 0.504560 -0.627653
O2    O     O_R   0.419850 0.658950 0.495440 -0.628495
O3    O     O_R   0.388090 0.353760 0.493600 -0.619035
O4    O     O_R   0.611910 0.646240 0.506400 -0.644650
O5    O     O_R   0.650890 0.490020 0.640860 -0.610378
O6    O     O_R   0.349110 0.509980 0.359140 -0.621349
O7    O     O_R   0.458830 0.502730 0.629890 -0.605415
O8    O     O_R   0.541170 0.497270 0.370110 -0.608872
Zn1   Zn    Zn3+2 0.628240 0.491510 0.507320 0.912036
Zn2   Zn    Zn3+2 0.371760 0.508490 0.492680 0.919276
H11   H     H_    0.671044 0.807014 0.001485 0.145803
H12   H     H_    0.168019 0.438607 0.872753 0.151962
C41   C     C_3   0.568336 0.637558 0.230629 -0.382312
C42   C     C_3   0.675073 0.574628 0.239594 -0.786458
H13   H     H_    0.661922 0.492201 0.261142 0.261639
H14   H     H_    0.682557 0.574786 0.169393 0.253843
H15   H     H_    0.762677 0.609614 0.296114 0.239214
H16   H     H_    0.579772 0.718589 0.207978 0.176848
H17   H     H_    0.577999 0.653161 0.304609 0.215715
C43   C     C_3   0.519214 0.380398 0.833907 -0.397796
C44   C     C_3   0.571772 0.332038 0.936929 -0.858578
H18   H     H_    0.550936 0.245905 0.932485 0.244077
H19   H     H_    0.673109 0.347924 0.973604 0.256294
H20   H     H_    0.530651 0.363674 0.981764 0.267821
H21   H     H_    0.418763 0.363752 0.796948 0.205090
H22   H     H_    0.555195 0.336894 0.791344 0.187688
H23   H     H_    0.769878 0.753927 0.901316 0.140628
H24   H     H_    0.127939 0.427953 0.015610 0.142291
H25   H     H_    0.732811 0.814389 0.600477 0.139642
H26   H     H_    0.275540 0.188846 0.380646 0.154289
C45   C     C_3   0.214150 0.985126 0.342006 -0.434668
C46   C     C_3   0.145707 0.930543 0.397390 -0.861388
H27   H     H_    0.198172 0.866703 0.445892 0.260318
H28   H     H_    0.129945 0.987975 0.442545 0.260473
H29   H     H_    0.055219 0.896277 0.344372 0.248075
H30   H     H_    0.155742 0.046534 0.293729 0.199768
H31   H     H_    0.223929 0.930134 0.291980 0.197255
C47   C     C_3   0.791409 0.018330 0.639824 -0.430164
C48   C     C_3   0.848162 0.079507 0.578832 -0.858986
H32   H     H_    0.858587 0.026151 0.527828 0.258985
H33   H     H_    0.790610 0.143708 0.535812 0.261148
H34   H     H_    0.940440 0.114375 0.627925 0.248097
H35   H     H_    0.786880 0.069350 0.694978 0.194623
H36   H     H_    0.855083 0.957346 0.682633 0.201891
C49   C     C_3   0.906098 0.627001 0.629763 -0.424658
C50   C     C_3   0.994396 0.598647 0.734471 -0.907416
H37   H     H_    0.965154 0.520732 0.755628 0.264711
H38   H     H_    0.089689 0.596816 0.742592 0.271579
H39   H     H_    0.993490 0.657845 0.785106 0.251164
H40   H     H_    0.930410 0.706911 0.609069 0.185236
H41   H     H_    0.814803 0.629032 0.628901 0.252254
C51   C     C_3   0.102121 0.357875 0.388453 -0.404727
C52   C     C_3   0.113481 0.254189 0.446004 -0.875106
H42   H     H_    0.096298 0.187734 0.396632 0.242769
H43   H     H_    0.206448 0.251054 0.507407 0.282317
H44   H     H_    0.046077 0.243117 0.477422 0.257054
H45   H     H_    0.017617 0.353736 0.318394 0.172099
H46   H     H_    0.179093 0.369912 0.367426 0.238364

loop_
_geom_bond_atom_site_label_1
_geom_bond_atom_site_label_2
_ccdc_geom_bond_type
O6    Zn2   S    
C42   H14   S    
C8    C13   A    
C5    C37   A    
C1    C8    S    
C44   H18   S    
C2    C7    S    
N1    Zn1   S    
C46   H29   S    
C49   C50   S    
C47   H35   S    
C27   C33   A    
C23   O7    A    
C52   H43   S    
C30   C38   A    
C17   C26   A    
C35   C37   A    
C9    C16   A    
C46   H28   S    
C20   N1    A    
C10   C15   A    
C51   H45   S    
C42   H15   S    
C15   C16   A    
O3    Zn2   S    
C5    H11   S    
C32   H5    S    
C6    H12   S    
C1    O1    A    
C43   H22   S    
C33   C43   S    
C17   C19   A    
C21   C51   S    
O1    Zn1   S    
C19   N2    A    
C7    C14   A    
C31   H6    S    
C6    C38   A    
C23   C27   S    
C18   C20   A    
C49   H40   S    
C19   H2    S    
C30   H24   S    
C45   H30   S    
C28   C34   A    
C22   C49   S    
C44   H19   S    
C18   C25   A    
C34   C41   S    
C51   C52   S    
C20   H1    S    
C11   H26   S    
C7    C12   A    
C45   H31   S    
C52   H44   S    
C27   C31   A    
C36   C40   A    
C46   H27   S    
C4    C6    A    
C2    O2    A    
C48   H32   S    
O2    Zn2   S    
C25   C26   A    
C41   H17   S    
O8    Zn1   S    
C35   C39   A    
C17   H3    S    
C43   H21   S    
C18   H4    S    
C48   H33   S    
C45   C46   S    
C29   H23   S    
C4    C39   A    
C28   C32   A    
C24   O8    A    
O5    Zn1   S    
C9    C11   A    
C49   H41   S    
C10   C12   A    
C9    C45   S    
C3    C40   A    
C50   H37   S    
C50   H38   S    
C13   C15   A    
C44   H20   S    
C14   C16   A    
C39   C40   A    
C51   H46   S    
C4    H8    S    
C23   O5    A    
C21   C25   A    
O7    Zn2   S    
C24   C28   S    
C43   C44   S    
C3    C5    A    
C47   H36   S    
C50   H39   S    
C52   H42   S    
C36   C38   A    
C1    O3    A    
C29   C31   A    
N2    Zn2   S    
C48   H34   S    
C30   C32   A    
C47   C48   S    
C8    C11   A    
C3    H7    S    
C33   C35   A    
C12   H25   S    
C42   H13   S    
C34   C36   A    
C13   H10   S    
C14   H9    S    
C10   C47   S    
C24   O6    A    
C41   C42   S    
C22   C26   A    
C29   C37   A    
O4    Zn1   S    
C2    O4    A    
C21   N2    A    
C41   H16   S    
C22   N1    A    
