data_mof_unit_37707.cif
_audit_creation_date              2012-12-10T20:32:47-0500
_audit_creation_method            fapswitch 2.2
_symmetry_space_group_name_H-M    P1
_symmetry_Int_Tables_number       1
_space_group_crystal_system       triclinic
_cell_length_a                    11.468432
_cell_length_b                    10.628922
_cell_length_c                    10.094034
_cell_angle_alpha                 89.938582
_cell_angle_beta                  89.55366
_cell_angle_gamma                 91.306783
_cell_volume                      1230.0748596

loop_
_atom_site_label
_atom_site_type_symbol
_atom_type_description
_atom_site_fract_x
_atom_site_fract_y
_atom_site_fract_z
_atom_type_partial_charge
C1    C     C_R   0.507744 0.260878 0.500462 0.924158
C2    C     C_R   0.600459 0.495256 0.067853 0.346923
C3    C     C_R   0.598991 0.523123 0.929944 0.347349
C4    C     C_R   0.282804 0.503030 0.500200 0.946667
C5    C     C_R   0.397211 0.494922 0.929513 -0.053902
C6    C     C_3   0.306067 0.390950 0.933511 0.159522
C7    C     C_3   0.289546 0.416783 0.082283 0.549438
C8    C     C_R   0.508017 0.739535 0.499210 0.857383
C9    C     C_R   0.717350 0.500880 0.499633 0.874614
C10   C     C_1   0.162102 0.507348 0.499978 0.038702
C11   C     C_1   0.059564 0.508955 0.500027 0.136487
C12   C     C_R   0.536802 0.130812 0.502964 -0.161695
C13   C     C_1   0.940647 0.507439 0.499568 0.102344
C14   C     C_1   0.838106 0.504440 0.499164 -0.024002
C15   C     C_R   0.534327 0.063843 0.621315 0.119867
C16   C     C_3   0.609429 0.876529 0.254902 -0.732457
C17   C     C_3   0.521420 0.115623 0.862681 -0.718209
C18   C     C_R   0.573708 0.069861 0.387624 -0.165885
C19   C     C_R   0.574074 0.938653 0.383192 0.110027
C20   C     C_R   0.535629 0.871676 0.498273 -0.103041
C21   C     C_R   0.530330 0.935850 0.617969 0.093422
C22   C     C_3   0.448492 0.924931 0.733441 -0.403594
C23   C     C_3   0.456166 0.068040 0.740461 -0.089578
C24   C     C_R   0.397085 0.502187 0.070985 -0.059512
H1    H     H_    0.594576 0.122794 0.299178 0.232736
H2    H     H_    0.673779 0.802359 0.274507 0.263941
H3    H     H_    0.608174 0.071748 0.871530 0.261194
H4    H     H_    0.534539 0.219264 0.857852 0.251810
H5    H     H_    0.468946 0.090175 0.951348 0.259732
H6    H     H_    0.884070 0.533208 0.123050 0.435920
H7    H     H_    0.757721 0.756843 0.721278 0.371035
H8    H     H_    0.126391 0.275862 0.664364 0.379471
H9    H     H_    0.350245 0.300829 0.914244 0.122625
H10   H     H_    0.360607 0.888530 0.704617 0.198100
H11   H     H_    0.487919 0.875326 0.818654 0.245239
H12   H     H_    0.371860 0.114530 0.722373 0.229570
H13   H     H_    0.035864 0.359063 0.154905 0.415788
H14   H     H_    0.424562 0.122921 0.174054 0.371621
H15   H     H_    0.531653 0.835585 0.204639 0.250146
H16   H     H_    0.651265 0.945085 0.185136 0.241815
N1    N     N_R   0.499240 0.499140 0.142800 -0.155646
N2    N     N_R   0.499240 0.499180 0.857150 -0.181656
O1    O     O_R   0.500010 0.316790 0.614690 -0.629224
O2    O     O_2   0.101330 0.571264 0.025025 -0.197806
O3    O     O_3   0.069888 0.417729 0.220920 -0.514962
O4    O     O_2   0.264625 0.277671 0.312359 -0.261256
O5    O     O_2   0.215485 0.176272 0.103801 -0.279803
O6    O     O_3   0.433620 0.214035 0.154942 -0.608233
O7    O     O_2   0.694241 0.317562 0.223679 -0.275960
O8    O     O_2   0.784069 0.352178 0.009144 -0.259060
O9    O     O_3   0.821526 0.521267 0.190173 -0.507342
O10   O     O_2   0.770940 0.690103 0.981347 -0.290727
O11   O     O_2   0.813044 0.529781 0.816141 -0.226795
O12   O     O_R   0.500000 0.316760 0.385350 -0.517695
O13   O     O_3   0.683227 0.717053 0.751530 -0.554262
O14   O     O_2   0.075275 0.340333 0.902963 -0.223086
O15   O     O_2   0.156083 0.524473 0.783702 -0.252800
O16   O     O_3   0.204626 0.298884 0.698852 -0.586137
O17   O     O_R   0.334450 0.500030 0.614670 -0.556220
O18   O     O_R   0.334440 0.500000 0.385330 -0.547596
O19   O     O_R   0.500000 0.683240 0.614650 -0.568172
O20   O     O_R   0.499990 0.683210 0.385310 -0.628151
O21   O     O_R   0.665560 0.500000 0.614670 -0.557682
O22   O     O_R   0.665550 0.499970 0.385330 -0.543171
O23   O     O_2   0.206198 0.615366 0.223868 -0.289996
S1    S     S_3+6 0.165196 0.509930 0.135807 0.109585
S2    S     S_3+6 0.298206 0.268562 0.168850 0.040082
S3    S     S_3+6 0.726240 0.416964 0.123707 0.103742
S4    S     S_3+6 0.720434 0.614449 0.869017 0.080147
S5    S     S_3+6 0.179906 0.393087 0.829439 0.093045
Zn1   Zn    Zn3+2 0.500010 0.500020 0.653130 1.059044
Zn2   Zn    Zn3+2 0.499990 0.499980 0.346870 1.102021

loop_
_geom_bond_atom_site_label_1
_geom_bond_atom_site_label_2
_ccdc_geom_bond_type
C1    C12   S    
C9    C14   S    
C6    H9    S    
C3    N2    A    
C6    C7    S    
C24   N1    A    
O7    S3    D    
C13   C14   T    
O15   S5    D    
C9    O22   A    
C17   H5    S    
O2    S1    D    
C19   C20   A    
C17   C23   S    
C12   C15   A    
H8    O16   S    
C8    O19   A    
C1    O12   A    
O11   S4    D    
C4    O18   A    
C15   C23   S    
C2    C3    A    
O20   Zn2   S    
O4    S2    D    
O13   S4    S    
C21   C22   S    
C7    S1    S    
C22   H11   S    
C11   C13   S    
O19   Zn1   S    
C8    C20   S    
C5    C24   A    
C16   H16   S    
N1    Zn2   S    
C12   C18   A    
C4    O17   A    
O5    S2    D    
N2    Zn1   S    
C3    S4    S    
H6    O9    S    
O21   Zn1   S    
H14   O6    S    
C23   H12   S    
C2    S3    S    
O9    S3    S    
O22   Zn2   S    
O6    S2    S    
C16   H2    S    
C5    C6    S    
C22   H10   S    
C18   H1    S    
C10   C11   T    
O18   Zn2   S    
C16   H15   S    
H13   O3    S    
C7    C24   S    
C17   H3    S    
C15   C21   A    
O14   S5    D    
O12   Zn2   S    
C20   C21   A    
C7    S2    S    
O23   S1    D    
O17   Zn1   S    
C5    N2    A    
C6    S5    S    
C22   C23   S    
C18   C19   A    
O1    Zn1   S    
O10   S4    D    
C2    N1    A    
H7    O13   S    
C9    O21   A    
C17   H4    S    
O8    S3    D    
C1    O1    A    
O16   S5    S    
C4    C10   S    
C8    O20   A    
O3    S1    S    
C16   C19   S    
