data_mof_unit_35415.cif
_audit_creation_date              2012-12-10T17:32:37-0500
_audit_creation_method            fapswitch 2.2
_symmetry_space_group_name_H-M    P1
_symmetry_Int_Tables_number       1
_space_group_crystal_system       triclinic
_cell_length_a                    12.060404
_cell_length_b                    12.991323
_cell_length_c                    14.115639
_cell_angle_alpha                 89.770655
_cell_angle_beta                  88.333385
_cell_angle_gamma                 91.771649
_cell_volume                      2209.62790441

loop_
_atom_site_label
_atom_site_type_symbol
_atom_type_description
_atom_site_fract_x
_atom_site_fract_y
_atom_site_fract_z
_atom_type_partial_charge
C1    C     C_R   0.520263 0.700108 0.496893 0.897599
C2    C     C_R   0.140678 0.485028 0.444359 0.598035
C3    C     C_R   0.975987 0.523695 0.539853 -0.280381
C4    C     C_R   0.023197 0.477366 0.458596 -0.225333
C5    C     C_R   0.501411 0.499573 0.670654 0.890278
C6    C     C_R   0.498434 0.499869 0.329352 0.891658
C7    C     C_1   0.503213 0.498267 0.772063 -0.215088
C8    C     C_1   0.495712 0.499314 0.227956 -0.228816
C9    C     C_1   0.501903 0.497680 0.857421 -0.018442
C10   C     C_1   0.495752 0.498679 0.142636 -0.026287
C11   C     C_1   0.499543 0.497647 0.957358 0.009829
C12   C     C_R   0.479956 0.300420 0.507933 0.898589
C13   C     C_1   0.497491 0.497992 0.042707 0.003068
C14   C     C_R   0.469657 0.189998 0.520560 -0.188137
C15   C     C_R   0.530551 0.811222 0.498197 -0.200502
C16   C     C_R   0.647995 0.961520 0.518950 0.503385
C17   C     C_R   0.350187 0.038114 0.511923 0.504161
C18   C     C_R   0.634077 0.856043 0.515576 -0.293760
C19   C     C_R   0.364374 0.144185 0.517575 -0.316812
C20   C     C_R   0.437752 0.872506 0.485778 -0.052631
C21   C     C_R   0.562872 0.130247 0.535118 -0.074951
C22   C     C_1   0.663784 0.177388 0.571814 0.299728
C23   C     C_R   0.446080 0.977699 0.506575 -0.043210
C24   C     C_1   0.337945 0.830118 0.443472 0.283538
C25   C     C_3   0.794292 0.019748 0.425021 0.065505
C26   C     C_3   0.861272 0.928581 0.389079 -0.366812
C27   C     C_3   0.921956 0.953849 0.295129 -0.967911
C28   C     C_3   0.165894 0.038312 0.464205 0.062766
C29   C     C_3   0.084755 0.100272 0.525790 -0.395783
C30   C     C_3   0.049128 0.197219 0.475145 -0.860138
C31   C     C_3   0.204992 0.554371 0.303014 0.146343
C32   C     C_3   0.099698 0.593464 0.257899 -0.408065
C33   C     C_3   0.125814 0.687635 0.195229 -0.959705
C34   C     C_R   0.553388 0.023660 0.521222 -0.071858
C35   C     C_3   0.818084 0.477352 0.707429 0.167118
C36   C     C_3   0.797604 0.525120 0.804992 -0.316429
C37   C     C_3   0.790158 0.443102 0.882864 -0.973290
C38   C     C_3   0.936904 0.354269 0.239460 0.085010
C39   C     C_3   0.876692 0.248558 0.242059 -0.381325
C40   C     C_3   0.795823 0.237364 0.161394 -0.939514
C41   C     C_3   0.001792 0.733897 0.651516 0.124321
C42   C     C_3   0.945001 0.794536 0.730610 -0.338421
C43   C     C_3   0.940754 0.908543 0.705304 -0.936746
C44   C     C_R   0.952732 0.427404 0.392552 0.446715
C45   C     C_R   0.047531 0.573872 0.604460 0.407207
C46   C     C_R   0.836272 0.432133 0.407743 -0.251224
C47   C     C_R   0.162671 0.564909 0.593563 -0.191295
C48   C     C_R   0.858526 0.519531 0.553377 0.577132
H1    H     H_    0.292600 0.191713 0.519633 0.192307
H2    H     H_    0.967402 0.885520 0.270228 0.272047
H3    H     H_    0.982811 0.018644 0.304051 0.253476
H4    H     H_    0.117891 0.975864 0.429041 0.165812
H5    H     H_    0.204284 0.085237 0.404679 0.140758
H6    H     H_    0.010031 0.051383 0.544121 0.232492
H7    H     H_    0.123304 0.123267 0.593397 0.243589
H8    H     H_    0.120228 0.253101 0.466729 0.281425
H9    H     H_    0.982083 0.233964 0.517246 0.261902
H10   H     H_    0.018307 0.177962 0.403964 0.266861
H11   H     H_    0.264895 0.537439 0.244398 0.170708
H12   H     H_    0.706373 0.809473 0.523069 0.187676
H13   H     H_    0.244241 0.616422 0.345669 0.152889
H14   H     H_    0.062835 0.532181 0.213323 0.241349
H15   H     H_    0.038194 0.615425 0.313621 0.212227
H16   H     H_    0.161015 0.751773 0.237775 0.276985
H17   H     H_    0.048373 0.713522 0.163153 0.266958
H18   H     H_    0.185919 0.668401 0.137333 0.268827
H19   H     H_    0.901384 0.442295 0.707507 0.127827
H20   H     H_    0.755411 0.414445 0.695926 0.150867
H21   H     H_    0.866487 0.580629 0.820497 0.245919
H22   H     H_    0.719707 0.568306 0.805300 0.228075
H23   H     H_    0.216509 0.597917 0.646144 0.182034
H24   H     H_    0.721026 0.386947 0.869827 0.271979
H25   H     H_    0.774540 0.480207 0.952511 0.269176
H26   H     H_    0.869166 0.401603 0.885521 0.265793
H27   H     H_    0.994979 0.355549 0.176888 0.164046
H28   H     H_    0.879879 0.418463 0.226920 0.115506
H29   H     H_    0.939034 0.187644 0.235516 0.224985
H30   H     H_    0.830457 0.236559 0.310522 0.212116
H31   H     H_    0.730611 0.295675 0.168217 0.268302
H32   H     H_    0.755316 0.159431 0.164218 0.262012
H33   H     H_    0.840503 0.247368 0.091868 0.267295
H34   H     H_    0.778875 0.395909 0.360168 0.176116
H35   H     H_    0.952951 0.741699 0.586020 0.140670
H36   H     H_    0.087207 0.767100 0.638258 0.148965
H37   H     H_    0.858939 0.763191 0.742914 0.236849
H38   H     H_    0.991030 0.785981 0.797136 0.223939
H39   H     H_    0.026126 0.942180 0.695189 0.270416
H40   H     H_    0.897855 0.950275 0.763509 0.270588
H41   H     H_    0.894352 0.918602 0.639329 0.294399
H42   H     H_    0.849244 0.089497 0.425463 0.179446
H43   H     H_    0.727329 0.036975 0.374718 0.124473
H44   H     H_    0.922689 0.907702 0.442517 0.221512
H45   H     H_    0.804752 0.860847 0.378331 0.217982
H46   H     H_    0.861859 0.974928 0.240674 0.270643
N1    N     N_R   0.207800 0.519340 0.515940 -0.172340
N2    N     N_R   0.792200 0.480660 0.484060 -0.149246
N3    N     N_1   0.743940 0.215002 0.601172 -0.234885
N4    N     N_1   0.257847 0.797497 0.410073 -0.261676
O1    O     O_R   0.421690 0.658830 0.504250 -0.620866
O2    O     O_3   0.244679 0.991494 0.521862 -0.647868
O3    O     O_3   0.186709 0.461966 0.356366 -0.588098
O4    O     O_3   0.809886 0.554331 0.636587 -0.605179
O5    O     O_3   0.001373 0.367973 0.321040 -0.604011
O6    O     O_3   0.006454 0.629799 0.679879 -0.632257
O7    O     O_R   0.578310 0.341170 0.495750 -0.622607
O8    O     O_R   0.609320 0.646410 0.494030 -0.599591
O9    O     O_R   0.390680 0.353590 0.505970 -0.600677
O10   O     O_R   0.406170 0.506210 0.631400 -0.606500
O11   O     O_R   0.593830 0.493790 0.368600 -0.607097
O12   O     O_R   0.593790 0.493790 0.621170 -0.573843
O13   O     O_R   0.406210 0.506210 0.378830 -0.587406
O14   O     O_3   0.755203 0.002222 0.519548 -0.664897
Zn1   Zn    Zn3+2 0.374720 0.508290 0.506830 0.959836
Zn2   Zn    Zn3+2 0.625280 0.491710 0.493170 0.959880

loop_
_geom_bond_atom_site_label_1
_geom_bond_atom_site_label_2
_ccdc_geom_bond_type
C15   C18   A    
C37   H26   S    
C11   C13   T    
C6    O13   A    
C31   H13   S    
C35   C36   S    
C35   O4    S    
C1    O1    A    
C33   H17   S    
C38   H28   S    
C26   C27   S    
C38   O5    S    
O8    Zn2   S    
C24   N4    T    
C43   H40   S    
C31   O3    S    
C14   C21   A    
C36   C37   S    
C12   O7    A    
C29   H6    S    
C26   H44   S    
C41   H35   S    
C30   H9    S    
C3    C48   A    
C41   C42   S    
C31   H11   S    
O9    Zn1   S    
C25   O14   S    
C16   C34   A    
C46   H34   S    
C20   C24   S    
C27   H3    S    
C40   H32   S    
C1    C15   S    
O12   Zn2   S    
C27   H2    S    
C1    O8    A    
C28   O2    S    
C26   H45   S    
C22   N3    T    
C21   C22   S    
N2    Zn2   S    
C14   C19   A    
C44   O5    S    
C36   H22   S    
C33   H18   S    
C38   H27   S    
C45   C47   A    
C15   C20   A    
C25   H43   S    
C39   H30   S    
O7    Zn2   S    
C39   C40   S    
C5    C7    S    
C6    C8    S    
C21   C34   A    
C4    C44   A    
C2    O3    S    
C25   C26   S    
C41   H36   S    
C30   H8    S    
C3    C45   A    
O10   Zn1   S    
C2    C4    A    
C29   C30   S    
C45   O6    S    
C19   H1    S    
C31   C32   S    
C20   C23   A    
C35   H19   S    
C23   C34   A    
C48   O4    S    
C25   H42   S    
C40   H31   S    
O13   Zn1   S    
C42   H37   S    
C17   C23   A    
C9    C11   S    
C47   H23   S    
O11   Zn2   S    
C42   H38   S    
C18   H12   S    
C12   C14   S    
C6    O11   A    
C42   C43   S    
C3    C4    A    
C39   H29   S    
C36   H21   S    
C16   O14   S    
C7    C9    T    
C37   H25   S    
C28   C29   S    
C48   N2    A    
C40   H33   S    
C16   C18   A    
C32   H15   S    
C10   C13   S    
C2    N1    A    
O1    Zn1   S    
C12   O9    A    
C28   H5    S    
C29   H7    S    
C41   O6    S    
C43   H39   S    
C32   C33   S    
C32   H14   S    
C28   H4    S    
C38   C39   S    
C35   H20   S    
N1    Zn1   S    
C33   H16   S    
C30   H10   S    
C17   C19   A    
C43   H41   S    
C17   O2    S    
C46   N2    A    
C8    C10   T    
C5    O12   A    
C37   H24   S    
C47   N1    A    
C27   H46   S    
C44   C46   A    
C5    O10   A    
