data_mof_unit_29834.cif
_audit_creation_date              2013-03-05T16:07:31-0500
_audit_creation_method            fapswitch 2.2
_symmetry_space_group_name_H-M    P1
_symmetry_Int_Tables_number       1
_space_group_crystal_system       triclinic
_cell_length_a                    10.984402
_cell_length_b                    10.749253
_cell_length_c                    9.939856
_cell_angle_alpha                 91.577245
_cell_angle_beta                  94.053653
_cell_angle_gamma                 91.738618
_cell_volume                      1169.64644923

loop_
_atom_site_label
_atom_site_type_symbol
_atom_site_description
_atom_site_fract_x
_atom_site_fract_y
_atom_site_fract_z
_atom_type_partial_charge
O1    O     O_R   0.499990 0.319660 0.618740 -0.595189
O2    O     O_R   0.500010 0.680340 0.381260 -0.595190
O3    O     O_R   0.499990 0.319630 0.381170 -0.524892
O4    O     O_R   0.500010 0.680370 0.618830 -0.524899
C1    C     C_R   0.499201 0.263456 0.498737 0.782974
C2    C     C_R   0.500799 0.736544 0.501263 0.782964
O5    O     O_R   0.319650 0.500020 0.618780 -0.480463
O6    O     O_R   0.680350 0.499980 0.381220 -0.480462
O7    O     O_R   0.319640 0.500000 0.381210 -0.574106
O8    O     O_R   0.680360 0.500000 0.618790 -0.574127
C3    C     C_R   0.263031 0.503562 0.496384 0.799052
C4    C     C_R   0.736969 0.496438 0.503615 0.799045
Cu1   Cu    Cu3+1 0.500000 0.500020 0.640660 1.086830
Cu2   Cu    Cu3+1 0.500000 0.499980 0.359340 1.086839
C5    C     C_R   0.149760 0.574939 0.076916 0.320650
C6    C     C_R   0.850229 0.425061 0.923077 0.320646
C7    C     C_R   0.111883 0.563138 0.204523 -0.242061
C8    C     C_R   0.888114 0.436863 0.795474 -0.242064
H1    H     H_    0.104364 0.646486 0.267112 0.212335
H2    H     H_    0.895638 0.353514 0.732887 0.212339
C9    C     C_R   0.086705 0.445741 0.254558 -0.045378
C10   C     C_R   0.913291 0.554260 0.745440 -0.045396
C11   C     C_R   0.087748 0.338450 0.172350 0.441535
C12   C     C_R   0.912235 0.661552 0.827643 0.441523
C13   C     C_R   0.122870 0.349662 0.041631 -0.209419
C14   C     C_R   0.877109 0.650339 0.958361 -0.209424
H3    H     H_    0.127326 0.266353 0.978683 0.249041
H4    H     H_    0.872648 0.733649 0.021308 0.249041
C15   C     C_R   0.157364 0.466858 0.994560 0.185003
C16   C     C_R   0.842621 0.533142 0.005433 0.184993
C17   C     C_R   0.926853 0.429644 0.405301 -0.099593
C18   C     C_R   0.073147 0.570356 0.594699 -0.099588
H5    H     H_    0.871868 0.374349 0.330897 0.228829
H6    H     H_    0.128131 0.625651 0.669104 0.228830
C19   C     C_R   0.872260 0.492193 0.508268 -0.114208
C20   C     C_R   0.127739 0.507808 0.491732 -0.114215
C21   C     C_R   0.948400 0.555481 0.608632 0.082443
C22   C     C_R   0.051599 0.444520 0.391368 0.082442
C23   C     C_R   0.551859 0.063127 0.395471 -0.072087
C24   C     C_R   0.448139 0.936873 0.604526 -0.072082
H7    H     H_    0.594736 0.111174 0.316061 0.210830
H8    H     H_    0.405259 0.888826 0.683931 0.210841
C25   C     C_R   0.553457 0.934450 0.397467 -0.102454
C26   C     C_R   0.446543 0.065549 0.602531 -0.102455
H9    H     H_    0.596160 0.884620 0.318056 0.182584
H10   H     H_    0.403839 0.115380 0.681941 0.182588
C27   C     C_R   0.501788 0.871122 0.502203 -0.041226
C28   C     C_R   0.498212 0.128878 0.497796 -0.041228
C29   C     C_R   0.473896 0.393637 0.065799 0.440518
C30   C     C_R   0.526098 0.606364 0.934201 0.440522
C31   C     C_R   0.476340 0.394478 0.920755 -0.036048
C32   C     C_R   0.523661 0.605522 0.079245 -0.036048
H11   H     H_    0.454789 0.308702 0.863593 0.191152
H12   H     H_    0.545208 0.691298 0.136406 0.191145
N1    N     N_R   0.500030 0.500030 0.852070 -0.221487
N2    N     N_R   0.499970 0.499970 0.147930 -0.221475
N3    N     N_R   0.203900 0.474397 0.865897 0.104301
O9    O     O_R   0.269854 0.571708 0.839879 -0.339139
O10   O     O_R   0.196113 0.377962 0.783156 -0.377651
N4    N     N_R   0.796091 0.525600 0.134099 0.104301
O11   O     O_R   0.730144 0.428286 0.160122 -0.339146
O12   O     O_R   0.803883 0.622034 0.216842 -0.377652
Cl1   Cl    Cl    0.183256 0.728357 0.028122 -0.465908
Cl2   Cl    Cl    0.816729 0.271642 0.971867 -0.465930
Cl3   Cl    Cl    0.052465 0.189924 0.232213 -0.457220
Cl4   Cl    Cl    0.947513 0.810079 0.767779 -0.457220
N5    N     N_R   0.442483 0.277376 0.122511 0.129587
O13   O     O_R   0.492347 0.176433 0.080579 -0.312553
O14   O     O_R   0.343492 0.267049 0.186006 -0.336549
N6    N     N_R   0.557476 0.722632 0.877487 0.129603
O15   O     O_R   0.507569 0.823548 0.919404 -0.312545
O16   O     O_R   0.656480 0.733003 0.814030 -0.336550

loop_
_geom_bond_atom_site_label_1
_geom_bond_atom_site_label_2
_geom_bond_distance
_ccdc_geom_bond_type
C24   C27   1.397030 A    
C30   C32   1.444129 A    
O7    Cu2   2.008262 S    
C17   H5    1.075127 S    
C5    C15   1.410692 A    
N6    O15   1.301668 A    
C6    Cl2   1.767108 S    
C14   H4    1.082581 S    
C13   H3    1.082579 S    
C29   N2    1.396660 A    
O7    C3    1.341046 A    
C23   C28   1.397038 A    
Cu2   N2    2.101359 S    
C30   N1    1.396658 A    
C17   C22   1.391808 A    
C12   Cl4   1.760839 S    
C7    C9    1.396106 A    
O6    C4    1.328668 A    
C11   Cl3   1.760840 S    
C20   C22   1.402735 A    
C30   N6    1.427824 S    
C23   H7    1.082505 S    
C26   C28   1.402996 A    
C8    C10   1.396107 A    
Cu1   Cu2   2.796269 S    
C4    C19   1.485666 S    
O5    C3    1.328670 A    
C25   H9    1.083656 S    
C12   C14   1.388633 A    
N3    O9    1.296649 A    
O2    C2    1.321527 A    
O3    Cu2   1.956656 S    
O8    C4    1.341046 A    
N4    O11   1.296649 A    
O1    C1    1.321527 A    
C18   C20   1.390150 A    
C10   C12   1.395771 A    
O4    C2    1.330514 A    
C3    C20   1.485668 S    
C19   C21   1.402732 A    
C32   H12   1.080690 S    
C14   C16   1.406427 A    
C31   N1    1.367841 A    
C9    C11   1.395772 A    
C13   C15   1.406423 A    
O2    Cu2   1.944967 S    
C1    C28   1.446092 S    
C17   C19   1.390145 A    
N3    O10   1.302313 A    
O1    Cu1   1.944967 S    
C2    C27   1.446092 S    
C31   H11   1.080694 S    
C6    C16   1.410695 A    
N5    O13   1.301736 A    
O3    C1    1.330513 A    
C24   C26   1.384486 A    
C11   C13   1.388633 A    
C16   N4    1.413878 S    
C23   C25   1.384487 A    
C8    H2    1.085186 S    
C6    C8    1.370501 A    
N5    O14   1.298672 A    
O4    Cu1   1.956657 S    
C5    C7    1.370502 A    
C5    Cl1   1.767103 S    
C7    H1    1.085183 S    
O6    Cu2   1.977597 S    
O5    Cu1   1.977598 S    
C29   N5    1.427845 S    
C29   C31   1.444130 A    
C18   C21   1.391809 A    
C10   C21   1.439766 S    
C25   C27   1.403001 A    
N6    O16   1.298624 A    
C26   H10   1.083654 S    
N4    O12   1.302315 A    
C9    C22   1.439769 S    
C32   N2    1.367839 A    
C15   N3    1.413878 S    
C24   H8    1.082495 S    
Cu1   N1    2.101359 S    
O8    Cu1   2.008261 S    
C18   H6    1.075128 S    
