data_mof_unit_52542.cif
_audit_creation_date              2012-12-11T14:07:39-0500
_audit_creation_method            fapswitch 2.2
_symmetry_space_group_name_H-M    P1
_symmetry_Int_Tables_number       1
_space_group_crystal_system       triclinic
_cell_length_a                    19.684781
_cell_length_b                    16.976818
_cell_length_c                    15.434997
_cell_angle_alpha                 89.922825
_cell_angle_beta                  53.572754
_cell_angle_gamma                 90.345851
_cell_volume                      4150.14819716

loop_
_atom_site_label
_atom_site_type_symbol
_atom_type_description
_atom_site_fract_x
_atom_site_fract_y
_atom_site_fract_z
_atom_type_partial_charge
C1    C     C_R   0.373604 0.197259 0.997353 -0.121267
C2    C     C_R   0.711614 0.854926 0.979726 0.168229
C3    C     C_R   0.149312 0.684058 0.076465 0.155570
C4    C     C_R   0.211611 0.354924 0.979732 0.168239
C5    C     C_R   0.610247 0.814976 0.698138 -0.041776
C6    C     C_R   0.687827 0.143363 0.676701 -0.067129
C7    C     C_R   0.110268 0.314970 0.698134 -0.041831
C8    C     C_R   0.187826 0.643364 0.676700 -0.067132
C9    C     C_3   0.250130 0.143591 0.517934 -0.516461
C10   C     C_3   0.382959 0.768258 0.462286 -0.498850
C11   C     C_3   0.750330 0.643729 0.517886 -0.516428
C12   C     C_R   0.338638 0.826623 0.052946 -0.100560
C13   C     C_3   0.882960 0.268256 0.462284 -0.498840
C14   C     C_3   0.193346 0.188813 0.622171 0.094482
C15   C     C_3   0.316291 0.733900 0.575035 0.060345
C16   C     C_3   0.693526 0.688943 0.622123 0.094366
C17   C     C_3   0.816293 0.233898 0.575033 0.060352
C18   C     C_3   0.296179 0.269265 0.409982 -0.396808
C19   C     C_3   0.348638 0.674558 0.368674 -0.421172
C20   C     C_3   0.796088 0.769363 0.409902 -0.396849
C21   C     C_3   0.848635 0.174558 0.368674 -0.421167
C22   C     C_3   0.667602 0.694674 0.452331 -0.396518
C23   C     C_R   0.873606 0.697260 0.997349 -0.121288
C24   C     C_3   0.755970 0.293749 0.459303 -0.404226
C25   C     C_3   0.167634 0.194830 0.452198 -0.396533
C26   C     C_3   0.255972 0.793749 0.459300 -0.404222
C27   C     C_3   0.257215 0.186433 0.423752 0.379253
C28   C     C_3   0.348045 0.762704 0.394615 0.385111
C29   C     C_3   0.757241 0.686457 0.423755 0.379274
C30   C     C_3   0.848043 0.262704 0.394616 0.385101
C31   C     C_3   0.662094 0.766568 0.600755 0.357186
C32   C     C_3   0.749062 0.184286 0.573688 0.373954
C33   C     C_3   0.162093 0.266547 0.600758 0.357079
C34   C     C_R   0.838631 0.326632 0.052960 -0.100598
C35   C     C_3   0.249061 0.684287 0.573688 0.373959
C36   C     C_3   0.737408 0.818055 0.510406 -0.382130
C37   C     C_3   0.793580 0.127452 0.474373 -0.388669
C38   C     C_3   0.237528 0.317966 0.510492 -0.382107
C39   C     C_3   0.293582 0.627452 0.474373 -0.388666
C40   C     C_R   0.402157 0.799463 0.205746 -0.162911
C41   C     C_R   0.352042 0.173926 0.220160 -0.144684
C42   C     C_R   0.902157 0.299464 0.205747 -0.162915
C43   C     C_R   0.852048 0.673930 0.220161 -0.144674
C44   C     C_3   0.610436 0.741368 0.558545 -0.475473
C45   C     C_R   0.669856 0.918079 0.049998 -0.151948
C46   C     C_3   0.696766 0.242257 0.557689 -0.478041
C47   C     C_3   0.110482 0.241529 0.558411 -0.475423
C48   C     C_3   0.196767 0.742257 0.557686 -0.478047
C49   C     C_2   0.189438 0.741176 0.103185 -0.207825
C50   C     C_2   0.285111 0.315962 0.959330 -0.200062
C51   C     C_2   0.689439 0.241177 0.103184 -0.207819
C52   C     C_2   0.785115 0.815963 0.959320 -0.200050
C53   C     C_2   0.709260 0.313611 0.058411 -0.203695
C54   C     C_2   0.809782 0.747033 0.907327 -0.212517
C55   C     C_2   0.209263 0.813608 0.058405 -0.203693
C56   C     C_R   0.633431 0.104903 0.105762 -0.155521
C57   C     C_2   0.309775 0.247031 0.907340 -0.212469
C58   C     C_R   0.328370 0.913569 0.954146 -0.159120
C59   C     C_R   0.365185 0.111383 0.897211 -0.164142
C60   C     C_R   0.828369 0.413572 0.954149 -0.159101
C61   C     C_R   0.865187 0.611383 0.897208 -0.164144
C62   C     C_R   0.361176 0.079303 0.314218 -0.140637
C63   C     C_R   0.410991 0.890949 0.300747 -0.149158
C64   C     C_R   0.861195 0.579320 0.314225 -0.140642
C65   C     C_R   0.910987 0.390950 0.300749 -0.149141
C66   C     C_R   0.346241 0.187439 0.934704 0.153984
C67   C     C_R   0.169855 0.418078 0.050002 -0.151931
C68   C     C_R   0.285744 0.853081 0.029109 0.145509
C69   C     C_R   0.846245 0.687440 0.934697 0.154011
C70   C     C_R   0.785738 0.353088 0.029119 0.145526
C71   C     C_R   0.396239 0.812174 0.298042 0.024673
C72   C     C_R   0.314323 0.142981 0.322879 0.014732
C73   C     C_R   0.896236 0.312175 0.298044 0.024674
C74   C     C_R   0.814347 0.643001 0.322886 0.014724
C75   C     C_R   0.621023 0.200442 0.016013 -0.143262
C76   C     C_R   0.661514 0.824145 0.952070 -0.154027
C77   C     C_R   0.121022 0.700442 0.016014 -0.143260
C78   C     C_R   0.133430 0.604903 0.105763 -0.155522
C79   C     C_R   0.161512 0.324143 0.952075 -0.154125
C80   C     C_R   0.594215 0.799798 0.796503 0.209588
C81   C     C_R   0.645718 0.177009 0.778945 0.213360
C82   C     C_R   0.094220 0.299795 0.796507 0.209585
C83   C     C_R   0.145718 0.677010 0.778945 0.213361
C84   C     C_R   0.639869 0.079566 0.685257 -0.184483
C85   C     C_R   0.592675 0.893172 0.696823 -0.207938
C86   C     C_R   0.139868 0.579568 0.685256 -0.184473
C87   C     C_R   0.092696 0.393168 0.696811 -0.207877
C88   C     C_3   0.302680 0.248801 0.641184 -0.951422
C89   C     C_R   0.649314 0.184058 0.076463 0.155568
C90   C     C_3   0.391257 0.618681 0.586726 -0.918197
C91   C     C_3   0.802790 0.749287 0.641006 -0.951256
C92   C     C_3   0.891258 0.118676 0.586720 -0.918218
C93   C     C_3   0.489031 0.693102 0.866383 -0.971592
C94   C     C_3   0.575982 0.302435 0.857112 -0.996077
C95   C     C_3   0.988993 0.193129 0.866423 -0.971597
C96   C     C_3   0.075981 0.802436 0.857111 -0.996082
H1    H     H_    0.380691 0.252130 0.026522 0.083401
H2    H     H_    0.783490 0.286668 0.625117 0.091490
H3    H     H_    0.434801 0.689977 0.952914 0.246942
H4    H     H_    0.694524 0.267713 0.817604 0.154592
H5    H     H_    0.590900 0.364818 0.861435 0.249682
H6    H     H_    0.530466 0.279198 0.939996 0.251806
H7    H     H_    0.545914 0.300209 0.814918 0.263101
H8    H     H_    0.057054 0.225104 0.924596 0.159821
H9    H     H_    0.969452 0.227749 0.823538 0.260134
H10   H     H_    0.003314 0.132118 0.835067 0.246275
H11   H     H_    0.934745 0.190084 0.952948 0.246955
H12   H     H_    0.194523 0.767713 0.817607 0.154593
H13   H     H_    0.136529 0.150844 0.673878 0.099290
H14   H     H_    0.090900 0.864819 0.861434 0.249678
H15   H     H_    0.030466 0.779199 0.939996 0.251808
H16   H     H_    0.045914 0.800210 0.814917 0.263100
H17   H     H_    0.283487 0.786670 0.625117 0.091495
H18   H     H_    0.358988 0.264118 0.394110 0.160162
H19   H     H_    0.414244 0.651595 0.319149 0.154946
H20   H     H_    0.858932 0.764343 0.393960 0.160184
H21   H     H_    0.914241 0.151594 0.319147 0.154948
H22   H     H_    0.773174 0.847224 0.535952 0.168380
H23   H     H_    0.831746 0.082061 0.478132 0.168581
H24   H     H_    0.273289 0.346993 0.536142 0.168404
H25   H     H_    0.328361 0.778826 0.105499 0.083327
H26   H     H_    0.331747 0.582062 0.478135 0.168581
H27   H     H_    0.671235 0.725888 0.386235 0.157870
H28   H     H_    0.733138 0.294661 0.408310 0.167792
H29   H     H_    0.171386 0.226120 0.386064 0.157838
H30   H     H_    0.233140 0.794659 0.408305 0.167791
H31   H     H_    0.639589 0.635349 0.461611 0.161456
H32   H     H_    0.753406 0.355293 0.486041 0.159916
H33   H     H_    0.139533 0.135562 0.461422 0.161474
H34   H     H_    0.253407 0.855293 0.486036 0.159915
H35   H     H_    0.555301 0.704270 0.619570 0.166211
H36   H     H_    0.880694 0.752131 0.026516 0.083404
H37   H     H_    0.656906 0.281102 0.628310 0.186159
H38   H     H_    0.055261 0.204491 0.619381 0.166154
H39   H     H_    0.156906 0.781102 0.628307 0.186156
H40   H     H_    0.585010 0.793946 0.543828 0.166233
H41   H     H_    0.653168 0.209259 0.546937 0.176532
H42   H     H_    0.085186 0.294188 0.543646 0.166216
H43   H     H_    0.153170 0.709258 0.546933 0.176529
H44   H     H_    0.306325 0.301421 0.340306 0.145535
H45   H     H_    0.322498 0.666295 0.322173 0.152048
H46   H     H_    0.806126 0.801455 0.340250 0.145507
H47   H     H_    0.828348 0.278842 0.105524 0.083319
H48   H     H_    0.822493 0.166297 0.322175 0.152050
H49   H     H_    0.401465 0.743321 0.173390 0.087897
H50   H     H_    0.333212 0.225516 0.198668 0.088127
H51   H     H_    0.901466 0.243321 0.173390 0.087902
H52   H     H_    0.833210 0.725507 0.198660 0.088132
H53   H     H_    0.713272 0.867185 0.488024 0.145299
H54   H     H_    0.746529 0.094887 0.470286 0.141715
H55   H     H_    0.213525 0.367201 0.488081 0.145324
H56   H     H_    0.246532 0.594886 0.470285 0.141710
H57   H     H_    0.216640 0.717971 0.141621 0.122299
H58   H     H_    0.223548 0.083169 0.528776 0.138598
H59   H     H_    0.306710 0.336019 0.005876 0.123005
H60   H     H_    0.716644 0.217971 0.141617 0.122299
H61   H     H_    0.806712 0.836018 0.005870 0.123005
H62   H     H_    0.680663 0.337833 0.022331 0.124389
H63   H     H_    0.790448 0.727750 0.858207 0.131095
H64   H     H_    0.180667 0.837830 0.022324 0.124390
H65   H     H_    0.290435 0.227746 0.858229 0.131129
H66   H     H_    0.306768 0.947558 0.915637 0.097684
H67   H     H_    0.361571 0.086094 0.835737 0.091365
H68   H     H_    0.806768 0.447559 0.915637 0.097673
H69   H     H_    0.396673 0.829826 0.471798 0.130532
H70   H     H_    0.861575 0.586093 0.835733 0.091358
H71   H     H_    0.352262 0.041398 0.376372 0.094144
H72   H     H_    0.415800 0.921388 0.358292 0.083617
H73   H     H_    0.852301 0.541433 0.376383 0.094140
H74   H     H_    0.915793 0.421390 0.358296 0.083610
H75   H     H_    0.609197 0.257875 0.998886 0.110882
H76   H     H_    0.673835 0.775096 0.900576 0.104534
H77   H     H_    0.109195 0.757875 0.998888 0.110881
H78   H     H_    0.173830 0.275092 0.900584 0.104550
H79   H     H_    0.649288 0.042781 0.622331 0.108323
H80   H     H_    0.723832 0.583258 0.528796 0.138548
H81   H     H_    0.588239 0.922313 0.638050 0.102265
H82   H     H_    0.149285 0.542784 0.622330 0.108314
H83   H     H_    0.088281 0.422306 0.638019 0.102245
H84   H     H_    0.690966 0.951624 0.089458 0.093658
H85   H     H_    0.637845 0.077109 0.165315 0.086488
H86   H     H_    0.190963 0.451623 0.089463 0.093651
H87   H     H_    0.137844 0.577109 0.165316 0.086487
H88   H     H_    0.313690 0.137108 0.499482 0.175116
H89   H     H_    0.443673 0.736212 0.421098 0.177988
H90   H     H_    0.813940 0.637380 0.499326 0.175114
H91   H     H_    0.896675 0.329824 0.471796 0.130531
H92   H     H_    0.943674 0.236209 0.421095 0.177995
H93   H     H_    0.236435 0.143254 0.707879 0.161901
H94   H     H_    0.335272 0.231225 0.677057 0.236860
H95   H     H_    0.279995 0.309728 0.668180 0.254955
H96   H     H_    0.349673 0.246135 0.552621 0.255881
H97   H     H_    0.388064 0.733895 0.634477 0.164781
H98   H     H_    0.424416 0.604289 0.622979 0.241987
H99   H     H_    0.438267 0.617378 0.497888 0.245437
H100  H     H_    0.341671 0.572983 0.615000 0.253480
H101  H     H_    0.736867 0.643591 0.707638 0.161844
H102  H     H_    0.636783 0.650896 0.673890 0.099313
H103  H     H_    0.835419 0.731918 0.676902 0.236928
H104  H     H_    0.779953 0.810182 0.667964 0.254971
H105  H     H_    0.849788 0.746602 0.552443 0.255860
H106  H     H_    0.888068 0.233890 0.634471 0.164780
H107  H     H_    0.924418 0.104282 0.622972 0.241979
H108  H     H_    0.938267 0.117373 0.497882 0.245436
H109  H     H_    0.841671 0.072979 0.614995 0.253488
H110  H     H_    0.557068 0.725105 0.924579 0.159808
H111  H     H_    0.469429 0.727762 0.823590 0.260138
H112  H     H_    0.503402 0.632123 0.834909 0.246288
N1    N     N_R   0.408680 0.130160 0.995800 -0.041678
N2    N     N_R   0.403730 0.078230 0.935950 -0.037683
N3    N     N_R   0.903730 0.421770 0.935950 -0.037800
N4    N     N_R   0.903730 0.578230 0.935950 -0.037685
N5    N     N_R   0.426630 0.075970 0.212960 -0.035565
N6    N     N_R   0.426630 0.924030 0.212960 -0.032498
N7    N     N_R   0.926630 0.575970 0.212960 -0.035560
N8    N     N_R   0.926630 0.424030 0.212960 -0.032498
N9    N     N_R   0.591320 0.134600 0.004200 -0.046491
N10   N     N_R   0.591320 0.865400 0.004200 -0.050606
N11   N     N_R   0.091320 0.634600 0.004200 -0.046492
N12   N     N_R   0.408680 0.869840 0.995800 -0.039565
N13   N     N_R   0.091320 0.365400 0.004200 -0.050595
N14   N     N_R   0.578320 0.867660 0.846880 -0.069408
N15   N     N_R   0.578320 0.132340 0.846880 -0.049894
N16   N     N_R   0.078320 0.367660 0.846880 -0.069414
N17   N     N_R   0.078320 0.632340 0.846880 -0.049894
N18   N     N_R   0.573370 0.074390 0.787040 -0.043483
N19   N     N_R   0.573370 0.925610 0.787040 -0.040067
N20   N     N_R   0.073370 0.574390 0.787040 -0.043485
N21   N     N_R   0.073370 0.425610 0.787040 -0.040063
N22   N     N_R   0.596270 0.927870 0.064040 -0.037344
N23   N     N_R   0.908680 0.630160 0.995800 -0.041680
N24   N     N_R   0.596270 0.072130 0.064040 -0.038598
N25   N     N_R   0.096270 0.427870 0.064040 -0.037342
N26   N     N_R   0.096270 0.572130 0.064040 -0.038600
N27   N     N_2   0.231674 0.196375 0.679321 -0.108801
N28   N     N_2   0.353285 0.695608 0.622793 -0.113093
N29   N     N_2   0.731916 0.696673 0.679179 -0.108878
N30   N     N_2   0.853288 0.195604 0.622788 -0.113092
N31   N     N_2   0.562190 0.727071 0.854222 -0.119920
N32   N     N_2   0.652970 0.257015 0.799078 -0.129029
N33   N     N_2   0.062166 0.227077 0.854245 -0.119867
N34   N     N_R   0.908680 0.369840 0.995800 -0.039553
N35   N     N_2   0.152970 0.757015 0.799079 -0.129027
N36   N     N_R   0.421680 0.867580 0.153120 -0.034645
N37   N     N_R   0.421680 0.132420 0.153120 -0.036604
N38   N     N_R   0.921680 0.367580 0.153120 -0.034646
N39   N     N_R   0.921680 0.632420 0.153120 -0.036604
N40   N     N_R   0.403730 0.921770 0.935950 -0.037805
Ni1   Ni    Ni4+2 0.500000 0.131190 0.000000 0.204885
Ni2   Ni    Ni4+2 0.500000 0.868810 0.000000 0.204237
Ni3   Ni    Ni4+2 0.000000 0.631190 0.000000 0.204883
Ni4   Ni    Ni4+2 0.000000 0.368810 0.000000 0.204236
Ni5   Ni    Ni4+2 0.488650 0.000000 0.862740 0.204013
Ni6   Ni    Ni4+2 0.988650 0.500000 0.862740 0.204017
Ni7   Ni    Ni4+2 0.511350 0.000000 0.137260 0.206002
Ni8   Ni    Ni4+2 0.011350 0.500000 0.137260 0.206001

loop_
_geom_bond_atom_site_label_1
_geom_bond_atom_site_label_2
_ccdc_geom_bond_type
C44   H40   S    
C14   H13   S    
C6    C32   S    
N7    N39   A    
N3    N34   A    
C13   H91   S    
C22   C29   S    
N12   Ni2   S    
C34   N34   A    
C8    C83   A    
C86   N20   A    
C23   C69   A    
C48   H39   S    
C79   H78   S    
C86   H82   S    
C57   C66   S    
C56   C89   A    
C84   N18   A    
C18   H18   S    
C14   C33   S    
N21   Ni6   S    
C3    C49   S    
N15   N18   A    
C16   H102  S    
C22   H27   S    
N19   Ni5   S    
N38   Ni4   S    
C18   H44   S    
C16   C31   S    
C88   H94   S    
C12   C68   A    
C92   N30   S    
C11   H80   S    
C39   H26   S    
N36   Ni2   S    
C40   H49   S    
C34   H47   S    
C19   C39   S    
C80   N31   S    
C49   H57   S    
C40   C71   A    
C41   N37   A    
C61   H70   S    
C10   C15   S    
N9    N24   A    
C36   H53   S    
C82   N16   A    
C56   H85   S    
C75   N9    A    
C61   C69   A    
H8    N33   S    
C11   H90   S    
C83   N35   S    
C24   H28   S    
N17   N20   A    
C65   C73   A    
C56   N24   A    
C21   C37   S    
N6    N36   A    
C78   H87   S    
C26   H30   S    
C64   H73   S    
C76   H76   S    
C25   H29   S    
N10   N22   A    
C21   H21   S    
C43   H52   S    
C95   H9    S    
N25   Ni8   S    
C54   H63   S    
H101  N29   S    
N18   Ni5   S    
C7    C87   A    
C41   H50   S    
C94   H5    S    
C76   N10   A    
C37   H23   S    
C15   N28   S    
C64   N7    A    
C15   H17   S    
C79   N13   A    
H110  N31   S    
C85   N19   A    
C19   H19   S    
C84   H79   S    
C36   H22   S    
C17   H2    S    
C34   C70   A    
H97   N28   S    
C92   H108  S    
C59   N2    A    
C26   C48   S    
C38   H24   S    
C17   N30   S    
N15   Ni1   S    
C43   C74   A    
C62   H71   S    
N12   N40   A    
C25   H33   S    
N17   Ni3   S    
C6    C81   A    
N11   Ni3   S    
C7    C33   S    
N11   N26   A    
N24   Ni7   S    
N9    Ni1   S    
C42   H51   S    
C15   C35   S    
C14   N27   S    
C60   N3    A    
C52   C54   D    
C55   C68   S    
C93   H111  S    
C20   C29   S    
C2    C45   A    
C81   N15   A    
C96   H15   S    
C22   C44   S    
C51   H60   S    
C6    C84   A    
C31   C44   S    
C12   H25   S    
C1    N1    A    
C20   H46   S    
C13   C30   S    
C90   H99   S    
C59   H67   S    
C65   N8    A    
N22   Ni7   S    
C43   N39   A    
C20   H20   S    
N4    N23   A    
N16   Ni4   S    
N40   Ni5   S    
C77   N11   A    
C29   C74   S    
C10   H89   S    
C49   C55   D    
C96   H14   S    
C39   H56   S    
C82   N33   S    
C4    C50   S    
C44   H35   S    
C8    C35   S    
C1    C66   A    
C92   H109  S    
C35   C39   S    
C9    C14   S    
C96   N35   S    
H106  N30   S    
C2    C52   S    
C95   H10   S    
C96   H16   S    
C11   C16   S    
C88   H95   S    
C90   H98   S    
N13   Ni4   S    
C60   C70   A    
C50   H59   S    
C78   N26   A    
C91   N29   S    
N1    N2    A    
C53   H62   S    
C90   N28   S    
C40   N36   A    
C32   C37   S    
C5    C80   A    
N5    N37   A    
C19   C28   S    
H12   N35   S    
C91   H105  S    
C92   H107  S    
C95   H11   S    
C4    C79   A    
C46   H41   S    
N20   Ni6   S    
C91   H104  S    
N14   Ni2   S    
C30   C73   S    
C94   N32   S    
C55   H64   S    
C63   C71   A    
C16   N29   S    
C95   N33   S    
C47   H38   S    
C75   H75   S    
C33   C47   S    
C62   N5    A    
N5    Ni7   S    
C28   C71   S    
C67   N25   A    
C45   N22   A    
N10   Ni2   S    
N2    Ni5   S    
C1    H1    S    
C58   H66   S    
N26   Ni8   S    
C38   H55   S    
C2    C76   A    
C9    C27   S    
C80   N14   A    
C24   H32   S    
C83   N17   A    
C10   C28   S    
C52   H61   S    
C88   H96   S    
C88   N27   S    
C93   H3    S    
C25   C47   S    
C42   N38   A    
C42   C73   A    
C77   H77   S    
C48   H43   S    
N13   N25   A    
N6    Ni7   S    
C50   C57   D    
N37   Ni1   S    
C18   C27   S    
C21   H48   S    
C53   C70   S    
C26   H34   S    
N23   Ni3   S    
C9    H58   S    
C4    C67   A    
C63   H72   S    
N39   Ni3   S    
C25   C27   S    
C21   C30   S    
C65   H74   S    
C26   C28   S    
C33   C38   S    
C81   N32   S    
C13   C17   S    
C94   H7    S    
C62   C72   A    
N34   Ni4   S    
C58   N40   A    
C18   C38   S    
C5    C85   A    
C59   C66   A    
C37   H54   S    
C87   N21   A    
N16   N21   A    
C51   C89   S    
C46   H37   S    
C3    C78   A    
C91   H103  S    
C58   C68   A    
C22   H31   S    
C54   C69   S    
N14   N19   A    
C93   N31   S    
C10   H69   S    
C47   H42   S    
N7    Ni8   S    
C60   H68   S    
C57   H65   S    
C12   N12   A    
C23   H36   S    
H4    N32   S    
C8    C86   A    
C11   C29   S    
C45   H84   S    
C63   N6    A    
N4    Ni6   S    
H93   N27   S    
C85   H81   S    
C24   C30   S    
C35   C48   S    
C75   C89   A    
C87   H83   S    
N8    Ni8   S    
C20   C36   S    
C7    C82   A    
C90   H100  S    
C94   H6    S    
C19   H45   S    
C13   H92   S    
N1    Ni1   S    
C9    H88   S    
C17   C32   S    
C64   C74   A    
C31   C36   S    
N3    Ni6   S    
C51   C53   D    
C93   H112  S    
N8    N38   A    
C61   N4    A    
C23   N23   A    
C27   C72   S    
C41   C72   A    
C67   H86   S    
C32   C46   S    
C24   C46   S    
C5    C31   S    
C3    C77   A    
