data_mof_unit_26158.cif
_audit_creation_date              2012-12-10T18:33:48-0500
_audit_creation_method            fapswitch 2.2
_symmetry_space_group_name_H-M    P1
_symmetry_Int_Tables_number       1
_space_group_crystal_system       triclinic
_cell_length_a                    10.489073
_cell_length_b                    14.990847
_cell_length_c                    15.307233
_cell_angle_alpha                 80.61363
_cell_angle_beta                  89.792228
_cell_angle_gamma                 104.974713
_cell_volume                      2291.3936964

loop_
_atom_site_label
_atom_site_type_symbol
_atom_type_description
_atom_site_fract_x
_atom_site_fract_y
_atom_site_fract_z
_atom_type_partial_charge
C1    C     C_R   0.476125 0.440245 0.662341 0.938255
C2    C     C_R   0.469167 0.495112 0.043594 0.115012
C3    C     C_R   0.379141 0.408779 0.078854 -0.153990
C4    C     C_R   0.607758 0.595526 0.919085 -0.152678
C5    C     C_R   0.319716 0.346669 0.023953 -0.120547
C6    C     C_R   0.664898 0.659116 0.973232 -0.131721
C7    C     C_R   0.694816 0.838035 0.641578 -0.108424
C8    C     C_R   0.305225 0.161836 0.358531 -0.104782
C9    C     C_R   0.667098 0.751930 0.612712 -0.041473
C10   C     C_R   0.332523 0.247838 0.387579 -0.031730
C11   C     C_R   0.510734 0.794112 0.514387 0.007407
C12   C     C_R   0.522939 0.559641 0.337513 1.009423
C13   C     C_R   0.489959 0.206191 0.485243 0.031126
C14   C     C_R   0.547441 0.886918 0.529892 0.018792
C15   C     C_R   0.454280 0.113554 0.469229 -0.002968
C16   C     C_R   0.742436 0.500759 0.501100 0.959380
C17   C     C_R   0.257289 0.498592 0.500419 0.901423
C18   C     C_R   0.632397 0.906416 0.600473 0.097240
C19   C     C_R   0.368644 0.093807 0.399081 0.063231
C20   C     C_R   0.495571 0.958312 0.481651 0.030535
C21   C     C_R   0.507274 0.042476 0.516864 0.048870
C22   C     C_R   0.572582 0.052556 0.597891 -0.178331
C23   C     C_R   0.529257 0.440677 0.818619 -0.120327
C24   C     C_R   0.430271 0.948342 0.400567 -0.075314
C25   C     C_R   0.646137 0.990733 0.631518 -0.236569
C26   C     C_R   0.355040 0.009555 0.367952 -0.203739
C27   C     C_3   0.929928 0.428700 0.562531 -0.146669
C28   C     C_3   0.069410 0.570105 0.440295 -0.132851
C29   C     C_3   0.046271 0.508833 0.581977 -0.143496
C30   C     C_3   0.953240 0.489947 0.420866 -0.151179
C31   C     C_3   0.121273 0.496910 0.500704 -0.011582
C32   C     C_3   0.878205 0.501918 0.502043 0.022880
C33   C     C_3   0.007680 0.416735 0.481307 -0.182153
C34   C     C_R   0.463912 0.560503 0.181837 -0.124587
C35   C     C_3   0.991764 0.582055 0.521530 -0.108997
C36   C     C_R   0.446524 0.399857 0.755995 -0.249415
C37   C     C_R   0.550210 0.599669 0.243498 -0.281901
C38   C     C_R   0.290371 0.307563 0.875770 0.480307
C39   C     C_R   0.693748 0.700279 0.121039 0.464592
C40   C     C_R   0.325407 0.332354 0.784618 -0.154850
C41   C     C_R   0.667626 0.670684 0.213039 -0.189639
C42   C     C_2   0.784332 0.851108 0.715897 0.884641
C43   C     C_2   0.215671 0.148731 0.284243 0.883853
C44   C     C_2   0.549054 0.115444 0.658487 0.936305
C45   C     C_R   0.472199 0.438003 0.902804 -0.025696
C46   C     C_2   0.453138 0.885293 0.340002 0.884168
C47   C     C_2   0.317367 0.531878 0.201129 0.910670
C48   C     C_2   0.676467 0.469691 0.802179 0.928955
C49   C     C_2   0.767798 0.710480 0.274578 0.998943
C50   C     C_2   0.229920 0.290549 0.721835 0.962718
C51   C     C_3   0.209882 0.151403 0.921459 -0.245756
C52   C     C_3   0.755435 0.855059 0.064332 -0.198941
C53   C     C_R   0.516813 0.565733 0.095919 -0.013655
C54   C     C_R   0.360205 0.363433 0.934427 0.010703
C55   C     C_R   0.625197 0.642659 0.062968 0.013396
C56   C     C_R   0.518934 0.508965 0.954842 0.128757
H1    H     H_    0.088783 0.515932 0.647607 0.171496
H2    H     H_    0.981103 0.649324 0.537906 0.174829
H3    H     H_    0.241764 0.285629 0.052027 0.196207
H4    H     H_    0.741864 0.720421 0.944519 0.194721
H5    H     H_    0.350516 0.389097 0.148614 0.148720
H6    H     H_    0.636712 0.614343 0.849307 0.145605
H7    H     H_    0.703510 0.004917 0.688448 0.198399
H8    H     H_    0.295944 0.994847 0.311834 0.220148
H9    H     H_    0.813348 0.884044 0.838236 0.344835
H10   H     H_    0.187331 0.116877 0.161460 0.349099
H11   H     H_    0.743434 0.170709 0.673915 0.297803
H12   H     H_    0.910791 0.482737 0.355234 0.170628
H13   H     H_    0.581923 0.828518 0.285951 0.351382
H14   H     H_    0.163435 0.484992 0.290772 0.341720
H15   H     H_    0.855613 0.489341 0.855220 0.361306
H16   H     H_    0.895210 0.824743 0.307271 0.358056
H17   H     H_    0.045191 0.270075 0.678054 0.333194
H18   H     H_    0.284556 0.150894 0.972944 0.164656
H19   H     H_    0.246143 0.134254 0.859455 0.199377
H20   H     H_    0.119685 0.095369 0.946674 0.202501
H21   H     H_    0.841478 0.915306 0.040761 0.201313
H22   H     H_    0.705684 0.872305 0.121302 0.194944
H23   H     H_    0.570893 0.231728 0.525459 0.124864
H24   H     H_    0.687339 0.847000 0.008892 0.150783
H25   H     H_    0.430119 0.768931 0.473762 0.132259
H26   H     H_    0.285589 0.301406 0.358650 0.169361
H27   H     H_    0.713492 0.698159 0.641923 0.171090
H28   H     H_    0.868301 0.371530 0.612478 0.183850
H29   H     H_    0.130793 0.627345 0.390293 0.184873
H30   H     H_    0.018331 0.349466 0.464928 0.175250
N1    N     N_R   0.574200 0.731700 0.552740 -0.113759
N2    N     N_R   0.425800 0.268300 0.447260 -0.106322
O1    O     O_R   0.462600 0.383110 0.605620 -0.567209
O2    O     O_R   0.744075 0.878977 0.791973 -0.816719
O3    O     O_2   0.108666 0.166642 0.288031 -0.603677
O4    O     O_R   0.256329 0.121513 0.207912 -0.808463
O5    O     O_2   0.436096 0.116862 0.676159 -0.521888
O6    O     O_R   0.653471 0.172109 0.697047 -0.761675
O7    O     O_2   0.362656 0.846410 0.297873 -0.619907
O8    O     O_R   0.579289 0.872561 0.329193 -0.770063
O9    O     O_2   0.243192 0.536763 0.140031 -0.587828
O10   O     O_R   0.263556 0.502690 0.287889 -0.825907
O11   O     O_2   0.726427 0.489826 0.726870 -0.652711
O12   O     O_R   0.537400 0.616890 0.394380 -0.601584
O13   O     O_R   0.758269 0.469551 0.874193 -0.767968
O14   O     O_2   0.801277 0.658612 0.334984 -0.663582
O15   O     O_R   0.828002 0.806713 0.261489 -0.750314
O16   O     O_2   0.260910 0.243321 0.671598 -0.558862
O17   O     O_R   0.101998 0.302205 0.723209 -0.777909
O18   O     O_3   0.176825 0.237822 0.905516 -0.589540
O19   O     O_3   0.801336 0.774448 0.089593 -0.587347
O20   O     O_R   0.510210 0.531900 0.639510 -0.609946
O21   O     O_R   0.489790 0.468100 0.360490 -0.594818
O22   O     O_R   0.662240 0.425610 0.483080 -0.644467
O23   O     O_R   0.337760 0.574390 0.516920 -0.636394
O24   O     O_R   0.709860 0.574400 0.516970 -0.583707
O25   O     O_R   0.290140 0.425600 0.483030 -0.598735
O26   O     O_2   0.891021 0.832697 0.712329 -0.603668
Zn1   Zn    Zn3+2 0.468210 0.400660 0.477370 1.011103
Zn2   Zn    Zn3+2 0.531790 0.599340 0.522630 0.992974

loop_
_geom_bond_atom_site_label_1
_geom_bond_atom_site_label_2
_ccdc_geom_bond_type
C30   C32   S    
C13   H23   S    
C50   O16   D    
C23   C45   A    
C27   C29   S    
C34   C37   A    
C14   C18   A    
O12   Zn2   S    
C8    C43   S    
C6    C55   A    
H13   O8    S    
O1    Zn1   S    
C17   O25   A    
C39   C41   A    
C11   H25   S    
C39   O19   S    
C10   N2    A    
C47   O10   S    
C35   H2    S    
C27   H28   S    
C51   H19   S    
C11   C14   A    
C4    H6    S    
C25   H7    S    
C7    C42   S    
C12   C37   S    
C19   C26   A    
C26   H8    S    
C44   O5    D    
C42   O26   D    
C22   C44   S    
C46   O7    D    
C20   C24   A    
C45   C56   A    
C11   N1    A    
C22   C25   A    
H11   O6    S    
C51   H18   S    
O23   Zn2   S    
C3    H5    S    
H15   O13   S    
C21   C22   A    
C4    C56   A    
C18   C25   A    
C52   H22   S    
C17   O23   A    
C41   C49   S    
C12   O21   A    
C53   C55   A    
H9    O2    S    
C39   C55   A    
C8    C19   A    
C5    H3    S    
C16   O22   A    
C32   C35   S    
C6    H4    S    
C5    C54   A    
C36   C40   A    
C51   H20   S    
C52   O19   S    
C4    C6    A    
C49   O14   D    
H10   O4    S    
C10   H26   S    
C27   C33   S    
C42   O2    S    
C38   O18   S    
C15   C19   A    
C33   H30   S    
C14   C20   A    
C50   O17   S    
H17   O17   S    
C38   C54   A    
C7    C18   A    
C31   C33   S    
N1    Zn2   S    
C9    H27   S    
C29   H1    S    
C45   C54   A    
C13   C15   A    
C17   C31   S    
C52   H21   S    
O24   Zn2   S    
C16   O24   A    
C7    C9    A    
C48   O11   D    
C1    O1    A    
C23   C48   S    
C30   C33   S    
C27   C32   S    
C28   C31   S    
C24   C26   A    
C3    C5    A    
C2    C53   A    
C49   O15   S    
H16   O15   S    
C16   C32   S    
C29   C35   S    
C43   O4    S    
C47   O9    D    
C24   C46   S    
O20   Zn2   S    
N2    Zn1   S    
C28   C30   S    
C2    C3    A    
C29   C31   S    
C2    C56   A    
C9    N1    A    
C38   C40   A    
C51   O18   S    
C40   C50   S    
C48   O13   S    
C13   N2    A    
C37   C41   A    
C43   O3    D    
C12   O12   A    
C44   O6    S    
O21   Zn1   S    
C1    O20   A    
C15   C21   A    
C46   O8    S    
C20   C21   A    
C34   C53   A    
C8    C10   A    
C23   C36   A    
C28   H29   S    
C34   C47   S    
C52   H24   S    
C28   C35   S    
O22   Zn1   S    
C30   H12   S    
H14   O10   S    
C1    C36   S    
O25   Zn1   S    
