data_mof_unit_8407.cif
_audit_creation_date              2012-10-26T19:21:08-0400
_audit_creation_method            fapswitch 2.2
_symmetry_space_group_name_H-M    P1
_symmetry_Int_Tables_number       1
_space_group_crystal_system       triclinic
_cell_length_a                    9.813453
_cell_length_b                    11.004129
_cell_length_c                    13.457712
_cell_angle_alpha                 93.903794
_cell_angle_beta                  82.436607
_cell_angle_gamma                 110.886956
_cell_volume                      1345.6129325

loop_
_atom_site_label
_atom_site_type_symbol
_atom_type_description
_atom_site_fract_x
_atom_site_fract_y
_atom_site_fract_z
_atom_type_partial_charge
C1    C     C_R   0.554855 0.745406 0.509608 0.542840
C2    C     C_R   0.382571 0.505191 0.799083 -0.007005
C3    C     C_2   0.579394 0.883209 0.525637 -0.140888
C4    C     C_R   0.425503 0.498133 0.690317 0.536952
C5    C     C_2   0.466797 0.925939 0.531212 -0.148211
C6    C     C_2   0.412162 0.114745 0.498864 -0.108505
C7    C     C_2   0.488476 0.063700 0.549109 -0.031429
C8    C     C_2   0.918762 0.487643 0.492092 -0.026541
C9    C     C_2   0.074873 0.508421 0.507535 0.013080
C10   C     C_R   0.442573 0.254335 0.497125 0.562868
C11   C     C_R   0.577914 0.520104 0.310144 0.552044
C12   C     C_R   0.445309 0.526380 0.970960 0.021140
C13   C     C_R   0.809154 0.601022 0.059266 -0.142722
C14   C     C_R   0.622493 0.548015 0.202735 0.008652
C15   C     C_R   0.234794 0.439275 0.834677 -0.140684
C16   C     C_R   0.192954 0.413131 0.935650 -0.151437
C17   C     C_R   0.297771 0.450608 0.002356 -0.125692
C18   C     C_3   0.093815 0.352223 0.379413 -0.225636
C19   C     C_3   0.401060 0.613654 0.187711 -0.376194
C20   C     C_3   0.678531 0.742183 0.760789 -0.359589
C21   C     C_3   0.592802 0.141387 0.623266 -0.350625
C22   C     C_R   0.487866 0.559456 0.868639 0.035467
C23   C     C_R   0.554325 0.561058 0.037671 0.038715
C24   C     C_R   0.703398 0.599575 0.998085 0.023928
C25   C     C_R   0.743991 0.645953 0.900693 -0.124228
C26   C     C_R   0.635773 0.641764 0.840926 0.006846
C27   C     C_R   0.520802 0.561820 0.142470 -0.014761
C28   C     C_R   0.766601 0.566458 0.159659 -0.153382
Cu1   Cu    Cu3+1 0.362000 0.479240 0.482530 0.912046
Cu2   Cu    Cu3+1 0.638000 0.520760 0.517470 0.906419
H1    H     H_    0.847996 0.561515 0.204780 0.125611
H2    H     H_    0.152370 0.399756 0.783463 0.132821
H3    H     H_    0.080043 0.356482 0.961380 0.115216
H4    H     H_    0.178138 0.312751 0.343722 0.164507
H5    H     H_    0.998994 0.269886 0.413030 0.092625
H6    H     H_    0.060316 0.397465 0.320011 0.076080
H7    H     H_    0.442590 0.688463 0.246873 0.149810
H8    H     H_    0.367681 0.663169 0.131114 0.119218
H9    H     H_    0.302213 0.534627 0.220301 0.145184
H10   H     H_    0.262810 0.414742 0.077557 0.111866
H11   H     H_    0.731271 0.840233 0.794415 0.104154
H12   H     H_    0.358004 0.860112 0.517147 0.139704
H13   H     H_    0.758863 0.724045 0.701338 0.158435
H14   H     H_    0.581933 0.745346 0.728072 0.133810
H15   H     H_    0.615788 0.076019 0.672805 0.111832
H16   H     H_    0.698780 0.202606 0.582852 0.151047
H17   H     H_    0.543093 0.203184 0.672825 0.151744
H18   H     H_    0.329279 0.052005 0.453544 0.079175
H19   H     H_    0.689397 0.949430 0.536051 0.105737
H20   H     H_    0.124112 0.578487 0.565008 0.123541
H21   H     H_    0.864485 0.417481 0.436464 0.155441
H22   H     H_    0.898361 0.619488 0.595693 0.189444
H23   H     H_    0.858901 0.696116 0.874830 0.102504
H24   H     H_    0.923506 0.626418 0.029096 0.110270
N1    N     N_2   0.845330 0.551960 0.543750 -0.363347
N2    N     N_2   0.154690 0.448120 0.456210 -0.236537
O1    O     O_R   0.426290 0.668220 0.490680 -0.501847
O2    O     O_R   0.659360 0.703290 0.520190 -0.500253
O3    O     O_R   0.326580 0.473880 0.629020 -0.504908
O4    O     O_R   0.559660 0.508940 0.658530 -0.488875
O5    O     O_R   0.340640 0.296710 0.479810 -0.495413
O6    O     O_R   0.573710 0.331780 0.509320 -0.491560
O7    O     O_R   0.440340 0.491060 0.341470 -0.503815
O8    O     O_R   0.673420 0.526120 0.370980 -0.496688

loop_
_geom_bond_atom_site_label_1
_geom_bond_atom_site_label_2
_ccdc_geom_bond_type
C12   C17   A    
C6    C10   S    
C2    C4    S    
C5    H12   S    
Cu1   O7    S    
C13   C28   A    
C2    C22   A    
C6    C7    D    
C19   H8    S    
Cu2   O8    S    
C14   C27   A    
C19   C27   S    
C18   H5    S    
Cu2   N1    S    
C11   O7    A    
C12   C23   A    
H22   N1    S    
C18   N2    S    
C23   C24   A    
C14   C28   A    
C4    O4    A    
C20   H11   S    
C3    H19   S    
C3    C5    D    
C15   H2    S    
C9    N2    D    
C10   O6    A    
C1    O2    A    
C2    C15   A    
C18   H4    S    
C8    H21   S    
Cu1   Cu2   S    
C6    H18   S    
C19   H9    S    
C8    N1    D    
Cu2   O4    S    
Cu1   N2    S    
Cu1   O1    S    
C21   H16   S    
C21   H15   S    
C23   C27   A    
Cu2   O6    S    
C16   H3    S    
C11   C14   S    
Cu1   O5    S    
C10   O5    A    
C15   C16   A    
Cu2   O2    S    
C20   H13   S    
C12   C22   A    
C24   C25   A    
C4    O3    A    
C13   H24   S    
C22   C26   A    
C1    C3    S    
C5    C7    S    
C21   H17   S    
C16   C17   A    
C19   H7    S    
C20   H14   S    
C25   C26   A    
C7    C21   S    
C18   H6    S    
C11   O8    A    
C28   H1    S    
C9    H20   S    
Cu1   O3    S    
C13   C24   A    
C25   H23   S    
C8    C9    S    
C20   C26   S    
C17   H10   S    
C1    O1    A    
