data_mof_unit_5033.cif
_audit_creation_date              2012-12-10T18:49:57-0500
_audit_creation_method            fapswitch 2.2
_symmetry_space_group_name_H-M    P1
_symmetry_Int_Tables_number       1
_space_group_crystal_system       triclinic
_cell_length_a                    10.613678
_cell_length_b                    9.952261
_cell_length_c                    10.838324
_cell_angle_alpha                 89.055631
_cell_angle_beta                  94.607334
_cell_angle_gamma                 89.341342
_cell_volume                      1140.90430908

loop_
_atom_site_label
_atom_site_type_symbol
_atom_type_description
_atom_site_fract_x
_atom_site_fract_y
_atom_site_fract_z
_atom_type_partial_charge
C1    C     C_R   0.259113 0.500410 0.496358 0.978473
C2    C     C_3   0.595563 0.395739 0.945749 0.370030
C3    C     C_R   0.062091 0.378166 0.458857 -0.118146
C4    C     C_R   0.058241 0.621648 0.461323 -0.143853
C5    C     C_R   0.932482 0.377112 0.439997 0.298438
C6    C     C_R   0.929228 0.621737 0.438127 0.313652
C7    C     C_R   0.865468 0.499256 0.447912 -0.244915
C8    C     C_R   0.124229 0.500131 0.477543 -0.128384
C9    C     C_R   0.588959 0.069349 0.571176 0.352784
C10   C     C_R   0.591926 0.926863 0.567669 0.332476
C11   C     C_R   0.407617 0.931492 0.432185 -0.041344
C12   C     C_R   0.415451 0.074744 0.422625 -0.042748
C13   C     C_R   0.495208 0.501688 0.258009 0.910694
C14   C     C_R   0.736336 0.499713 0.480385 0.944348
C15   C     C_R   0.499887 0.499902 0.742672 0.969404
C16   C     C_3   0.504388 0.653426 0.071927 0.143837
C17   C     C_3   0.367340 0.441500 0.062709 0.025120
C18   C     C_3   0.531330 0.652021 0.932466 0.123092
C19   C     C_3   0.356151 0.463970 0.918150 0.145405
C20   C     C_3   0.607104 0.423402 0.085488 -0.551386
C21   C     C_3   0.490926 0.506260 0.121923 -0.174604
C22   C     C_3   0.495287 0.502611 0.879760 -0.339112
H1    H     H_    0.584381 0.699490 0.127791 0.184661
H2    H     H_    0.379333 0.332254 0.084201 0.158391
H3    H     H_    0.694639 0.480241 0.111917 0.216797
H4    H     H_    0.618520 0.326839 0.138598 0.270696
H5    H     H_    0.113580 0.283675 0.457393 0.197595
H6    H     H_    0.106291 0.716364 0.464205 0.214629
N1    N     N_R   0.499970 0.857200 0.499970 -0.179473
N2    N     N_R   0.499970 0.142800 0.499970 -0.187340
O1    O     O_R   0.316750 0.614620 0.499990 -0.662222
O2    O     O_R   0.316750 0.385380 0.499990 -0.629946
O3    O     O_R   0.499970 0.614670 0.314790 -0.633009
O4    O     O_R   0.499970 0.385330 0.314790 -0.654973
O5    O     O_R   0.683220 0.614710 0.500010 -0.572864
O6    O     O_R   0.683220 0.385290 0.500010 -0.563029
O7    O     O_R   0.500010 0.614660 0.685200 -0.582645
O8    O     O_R   0.500010 0.385340 0.685200 -0.537284
Zn1   Zn    Zn3+2 0.499980 0.653120 0.500000 1.035246
Zn2   Zn    Zn3+2 0.499980 0.346880 0.500000 1.050892
C23   C     C_2   0.295160 0.864431 0.374637 0.583618
H7    H     H_    0.301930 0.764318 0.340552 0.130261
O9    O     O_2   0.192053 0.921157 0.364908 -0.515669
C24   C     C_2   0.341855 0.148684 0.320271 0.571342
H8    H     H_    0.307432 0.249170 0.330915 0.098865
O10   O     O_2   0.322296 0.098039 0.218781 -0.500699
Br1   Br    Br    0.363227 0.772379 0.107314 -0.261762
Br2   Br    Br    0.212248 0.479802 0.144368 -0.395333
Br3   Br    Br    0.452883 0.814367 0.844456 -0.255820
Br4   Br    Br    0.227119 0.600703 0.862886 -0.229117
C25   C     C_2   0.669620 0.682805 0.919064 0.486168
H9    H     H_    0.712762 0.648728 0.838479 0.136586
O11   O     O_2   0.731193 0.755672 0.990112 -0.457680
C26   C     C_2   0.298851 0.338292 0.858448 0.529503
H10   H     H_    0.281870 0.249424 0.913861 0.132637
O12   O     O_2   0.265817 0.335497 0.748076 -0.521825
Br5   Br    Br    0.766644 0.395572 0.889193 -0.338863
Br6   Br    Br    0.552035 0.205289 0.926144 -0.328027
Br7   Br    Br    0.857116 0.210192 0.387930 -0.313738
Br8   Br    Br    0.850511 0.787073 0.375279 -0.283437
Br9   Br    Br    0.718278 0.158716 0.670014 -0.211914
Br10  Br    Br    0.728875 0.835365 0.660083 -0.304480

loop_
_geom_bond_atom_site_label_1
_geom_bond_atom_site_label_2
_ccdc_geom_bond_type
C2    C22   S    
O5    Zn1   S    
C11   C12   A    
C2    Br6   S    
C15   O8    A    
C13   O3    A    
C6    C7    A    
C1    C8    S    
C23   H7    S    
C19   Br4   S    
C17   Br2   S    
C1    O1    A    
C4    C8    A    
N1    Zn1   S    
C3    H5    S    
C2    Br5   S    
C13   C21   S    
C13   O4    A    
O7    Zn1   S    
O3    Zn1   S    
C24   H8    S    
O8    Zn2   S    
C23   O9    D    
C10   N1    A    
C10   Br10  S    
C20   H4    S    
C9    N2    A    
C9    Br9   S    
O4    Zn2   S    
C19   C26   S    
C4    C6    A    
C4    H6    S    
O1    Zn1   S    
C18   C25   S    
C11   C23   S    
C16   H1    S    
C7    C14   S    
C14   O6    A    
C26   O12   D    
C3    C8    A    
C17   H2    S    
C20   H3    S    
C5    Br7   S    
C15   C22   S    
C2    C20   S    
C25   H9    S    
C17   C19   S    
C6    Br8   S    
O6    Zn2   S    
O2    Zn2   S    
C20   C21   S    
C11   N1    A    
C16   C18   S    
C19   C22   S    
C9    C10   A    
C12   C24   S    
C14   O5    A    
C5    C7    A    
N2    Zn2   S    
C26   H10   S    
C15   O7    A    
C16   Br1   S    
C12   N2    A    
C18   C22   S    
C16   C21   S    
C1    O2    A    
C17   C21   S    
C25   O11   D    
C18   Br3   S    
C24   O10   D    
C3    C5    A    
