data_mof_unit_39937.cif
_audit_creation_date              2012-12-11T15:14:41-0500
_audit_creation_method            fapswitch 2.2
_symmetry_space_group_name_H-M    P1
_symmetry_Int_Tables_number       1
_space_group_crystal_system       triclinic
_cell_length_a                    22.286454
_cell_length_b                    7.231221
_cell_length_c                    19.244459
_cell_angle_alpha                 90.000277
_cell_angle_beta                  99.087252
_cell_angle_gamma                 89.997167
_cell_volume                      3062.47798911

loop_
_atom_site_label
_atom_site_type_symbol
_atom_type_description
_atom_site_fract_x
_atom_site_fract_y
_atom_site_fract_z
_atom_type_partial_charge
O1    O     O_R   0.448470 0.506130 0.415700 -0.532774
O2    O     O_R   0.551530 0.006130 0.584300 -0.532777
O3    O     O_R   0.436320 0.174490 0.555800 -0.533522
O4    O     O_R   0.563680 0.674490 0.444200 -0.533510
C1    C     C_R   0.421186 0.344394 0.575196 0.703339
C2    C     C_R   0.578815 0.844388 0.424804 0.703358
O5    O     O_R   0.441350 0.176340 0.414480 -0.534072
O6    O     O_R   0.558650 0.676340 0.585520 -0.534054
O7    O     O_R   0.556600 0.007100 0.441970 -0.532536
O8    O     O_R   0.443400 0.507100 0.558030 -0.532537
C3    C     C_R   0.427226 0.344695 0.389035 0.673215
C4    C     C_R   0.572775 0.844688 0.610965 0.673237
O9    O     O_3   0.537810 0.339550 0.509190 -0.371941
O10   O     O_3   0.462190 0.839550 0.490810 -0.371962
V1    V     V_3+5 0.492990 0.064280 0.498300 1.431071
V2    V     V_3+5 0.507010 0.564280 0.501700 1.431132
C5    C     C_R   0.866797 0.983095 0.695435 -0.159233
C6    C     C_R   0.133154 0.482269 0.304599 -0.159162
H1    H     H_    0.954071 0.010434 0.759732 0.116701
H2    H     H_    0.045878 0.509589 0.240302 0.117155
H3    H     H_    0.784258 0.981453 0.580182 0.126047
H4    H     H_    0.215673 0.480248 0.419872 0.125963
H5    H     H_    0.885011 0.012885 0.647648 0.116528
H6    H     H_    0.114916 0.511656 0.352404 0.116609
C7    C     C_R   0.884644 0.942554 0.821840 -0.036342
C8    C     C_R   0.115352 0.442488 0.178159 -0.036475
C9    C     C_R   0.590058 0.813411 0.739835 -0.160069
C10   C     C_R   0.409970 0.313895 0.260149 -0.160181
C11   C     C_R   0.626849 0.810077 0.805255 -0.120635
C12   C     C_R   0.373189 0.310748 0.194720 -0.120527
C13   C     C_R   0.689122 0.842033 0.811310 -0.155753
C14   C     C_R   0.310904 0.342507 0.188673 -0.155614
C15   C     C_R   0.716588 0.879007 0.751346 0.077069
C16   C     C_R   0.283417 0.379092 0.248653 0.077002
C17   C     C_R   0.678232 0.884206 0.684085 0.068316
C18   C     C_R   0.321758 0.384045 0.315925 0.068345
C19   C     C_R   0.780724 0.910666 0.755903 0.073405
C20   C     C_R   0.219271 0.410585 0.244100 0.073425
C21   C     C_R   0.804509 0.948650 0.693076 0.137161
C22   C     C_R   0.195457 0.448074 0.306949 0.137127
C23   C     C_R   0.766124 0.952914 0.628132 -0.197827
C24   C     C_R   0.233827 0.452083 0.371905 -0.197899
C25   C     C_R   0.704136 0.920853 0.623579 -0.190634
C26   C     C_R   0.295829 0.420246 0.376450 -0.190617
C27   C     C_R   0.822338 0.906889 0.820335 -0.213350
C28   C     C_R   0.177675 0.407101 0.179653 -0.213237
C29   C     C_R   0.906311 0.981290 0.759206 -0.162385
C30   C     C_R   0.093653 0.480695 0.240817 -0.162224
C31   C     C_R   0.614684 0.850678 0.678874 -0.078092
C32   C     C_R   0.385318 0.350736 0.321127 -0.078030
H7    H     H_    0.807891 0.879190 0.870168 0.095033
H8    H     H_    0.192144 0.379806 0.129803 0.095138
H9    H     H_    0.541874 0.786319 0.736680 0.106173
H10   H     H_    0.458165 0.286997 0.263295 0.106064
H11   H     H_    0.714473 0.836635 0.863759 0.109373
H12   H     H_    0.285562 0.337257 0.136217 0.109567
H13   H     H_    0.606910 0.781477 0.851907 0.119146
H14   H     H_    0.393145 0.282464 0.148055 0.119233
H15   H     H_    0.676531 0.925418 0.571985 0.111750
H16   H     H_    0.323423 0.424610 0.428053 0.111618
C33   C     C_3   0.776544 0.827406 0.312525 -0.224650
C34   C     C_3   0.223836 0.322758 0.688143 -0.224167
C35   C     C_3   0.794949 0.010890 0.279457 -0.180433
C36   C     C_3   0.204232 0.506888 0.719696 -0.182206
H17   H     H_    0.831960 0.104873 0.303217 0.158647
H18   H     H_    0.166541 0.597570 0.695235 0.155845
H19   H     H_    0.798287 0.767690 0.363464 0.133272
H20   H     H_    0.202423 0.259229 0.637777 0.133080
H21   H     H_    0.707663 0.203291 0.269573 0.144121
H22   H     H_    0.290158 0.704458 0.727668 0.145502
C37   C     C_1   0.875175 0.940292 0.121081 -0.161151
C38   C     C_1   0.124821 0.440273 0.878917 -0.161075
C39   C     C_1   0.624868 0.854161 0.379243 -0.184062
C40   C     C_1   0.375133 0.354181 0.620757 -0.184090
C41   C     C_3   0.772785 0.733226 0.240062 0.674474
C42   C     C_3   0.228383 0.232594 0.761415 0.674001
C43   C     C_3   0.791106 0.913872 0.207494 0.064580
C44   C     C_3   0.208882 0.413865 0.792492 0.065116
C45   C     C_3   0.705004 0.784434 0.221116 -0.213847
C46   C     C_3   0.295806 0.288448 0.779720 -0.215239
C47   C     C_3   0.709050 0.881799 0.293043 0.068405
C48   C     C_3   0.290951 0.381810 0.706958 0.067549
C49   C     C_3   0.723580 0.968015 0.188277 -0.209041
C50   C     C_3   0.276030 0.472655 0.811042 -0.206129
C51   C     C_3   0.726882 0.065162 0.260765 -0.065732
C52   C     C_3   0.271920 0.565808 0.737719 -0.064530
C53   C     C_1   0.837174 0.929297 0.159838 0.028767
C54   C     C_1   0.162820 0.429277 0.840155 0.029079
C55   C     C_1   0.662958 0.865519 0.340618 -0.021479
C56   C     C_1   0.337043 0.365539 0.659383 -0.021533
H23   H     H_    0.701932 0.026601 0.137099 0.139590
H24   H     H_    0.297355 0.535063 0.861660 0.140568
H25   H     H_    0.668294 0.689436 0.197356 0.128592
H26   H     H_    0.333203 0.196735 0.804191 0.129097
O11   O     O_R   0.056650 0.288730 0.942060 -0.530244
O12   O     O_R   0.943350 0.788730 0.057940 -0.530245
O13   O     O_R   0.058660 0.616870 0.085540 -0.536397
O14   O     O_R   0.941340 0.116870 0.914460 -0.536457
C57   C     C_R   0.072813 0.448764 0.111022 0.682422
C58   C     C_R   0.927187 0.948772 0.888978 0.682156
O15   O     O_R   0.063700 0.618520 0.944220 -0.532364
O16   O     O_R   0.936300 0.118520 0.055780 -0.532431
O17   O     O_R   0.948460 0.787610 0.915680 -0.533572
O18   O     O_R   0.051540 0.287610 0.084320 -0.533499
C59   C     C_R   0.078899 0.450008 0.924663 0.705092
C60   C     C_R   0.921100 0.950014 0.075336 0.705143
O19   O     O_3   0.962230 0.453430 0.990860 -0.372940
O20   O     O_3   0.037770 0.953430 0.009140 -0.372808
V3    V     V_3+5 0.007010 0.728750 0.001700 1.449396
V4    V     V_3+5 0.992990 0.228750 0.998300 1.449230
F1    F     F_    0.796684 0.561120 0.229145 -0.697452
F2    F     F_    0.205705 0.059836 0.773879 -0.697278

loop_
_geom_bond_atom_site_label_1
_geom_bond_atom_site_label_2
_ccdc_geom_bond_type
C20   C22   A    
C35   H17   S    
O14   V4    S    
C19   C27   A    
C9    C11   A    
O1    C3    A    
C46   C50   S    
O2    C4    A    
C2    O7    A    
C4    C31   S    
C18   C32   A    
C21   C23   A    
C33   C41   S    
O5    C3    A    
C5    H5    S    
C6    H6    S    
C37   C60   S    
C42   C44   S    
C45   H25   S    
H1    C29   S    
C43   C49   S    
O15   V3    S    
C28   H8    S    
O20   V3    S    
C5    C21   A    
C1    C40   S    
C33   C35   S    
C6    C22   A    
C34   C36   S    
O11   C59   A    
C38   C54   T    
C10   C32   A    
C17   C31   A    
C13   C15   A    
C12   C14   A    
C17   C25   A    
C7    C29   A    
C8    C30   A    
C8    C57   S    
C47   C55   S    
O5    V1    S    
C57   O18   A    
C34   C48   S    
O6    V2    S    
C35   C51   S    
C42   F2    S    
C23   C25   A    
C34   C42   S    
C24   C26   A    
C36   C52   S    
O13   C57   A    
O15   C59   A    
C42   C46   S    
C46   C48   S    
C45   C47   S    
C10   H10   S    
C48   C52   S    
C58   O17   A    
C15   C19   A    
C14   C16   A    
O4    V2    S    
O13   V3    S    
C33   H19   S    
C7    C58   S    
O6    C4    A    
O1    V2    S    
O2    V1    S    
C41   C43   S    
H2    C30   S    
H3    C23   S    
O4    C2    A    
C49   C51   S    
C11   H13   S    
O14   C58   A    
O19   V4    S    
C37   C53   T    
O16   V4    S    
C46   H26   S    
H22   C52   S    
C7    C27   A    
H21   C51   S    
O18   V4    S    
C2    C39   S    
C35   C43   S    
C44   C54   S    
O12   C60   A    
C16   C20   A    
C36   C44   S    
C5    C29   A    
C50   C52   S    
O3    C1    A    
O11   V4    S    
C6    C30   A    
C9    H9    S    
C25   H15   S    
C49   H23   S    
O12   V3    S    
C41   F1    S    
C48   C56   S    
C34   H20   S    
O17   V3    S    
C40   C56   T    
C10   C12   A    
O7    V1    S    
C39   C55   T    
C1    O8    A    
C11   C13   A    
C3    C32   S    
C33   C47   S    
C45   C49   S    
H4    C24   S    
C26   H16   S    
C12   H14   S    
C22   C24   A    
C15   C17   A    
O16   C60   A    
C16   C18   A    
C20   C28   A    
C18   C26   A    
C8    C28   A    
C44   C50   S    
C38   C59   S    
C43   C53   S    
C19   C21   A    
O9    V2    S    
C27   H7    S    
O10   V1    S    
O3    V1    S    
O8    V2    S    
C50   H24   S    
C13   H11   S    
C41   C45   S    
C14   H12   S    
C47   C51   S    
C9    C31   A    
C36   H18   S    
