data_mof_unit_48813.cif
_audit_creation_date              2012-10-26T20:12:16-0400
_audit_creation_method            fapswitch 2.2
_symmetry_space_group_name_H-M    P1
_symmetry_Int_Tables_number       1
_space_group_crystal_system       triclinic
_cell_length_a                    13.013825
_cell_length_b                    15.110563
_cell_length_c                    13.974266
_cell_angle_alpha                 90.669874
_cell_angle_beta                  96.385389
_cell_angle_gamma                 92.557248
_cell_volume                      2727.83549252

loop_
_atom_site_label
_atom_site_type_symbol
_atom_type_description
_atom_site_fract_x
_atom_site_fract_y
_atom_site_fract_z
_atom_type_partial_charge
C1    C     C_R   0.499396 0.329687 0.499592 0.559549
C2    C     C_R   0.515456 0.950222 0.499266 0.013740
C3    C     C_R   0.586949 0.529280 0.115817 0.238588
C4    C     C_R   0.467950 0.425391 0.889359 0.233436
C5    C     C_R   0.583133 0.535740 0.216407 0.332945
C6    C     C_R   0.459140 0.428681 0.787658 0.331518
C7    C     C_R   0.415791 0.465628 0.198830 0.375733
C8    C     C_R   0.540823 0.572156 0.796607 0.372140
C9    C     C_R   0.409274 0.473558 0.097922 0.258527
C10   C     C_R   0.531311 0.578095 0.895972 0.257137
C11   C     C_R   0.497694 0.502151 0.054030 -0.074937
C12   C     C_R   0.500843 0.669434 0.500566 0.651329
C13   C     C_R   0.498417 0.502363 0.945319 -0.077997
C14   C     C_R   0.300901 0.498273 0.482007 0.617669
C15   C     C_R   0.699190 0.501032 0.518166 0.631915
C16   C     C_R   0.812159 0.505918 0.528687 0.031615
C17   C     C_R   0.188191 0.490616 0.472391 0.006753
C18   C     C_R   0.026938 0.415261 0.405634 0.242812
C19   C     C_R   0.975015 0.575264 0.600454 0.253437
C20   C     C_R   0.135894 0.424109 0.412988 0.186545
C21   C     C_R   0.866309 0.565630 0.595577 0.175846
C22   C     C_R   0.135169 0.543172 0.531811 0.185310
C23   C     C_R   0.502582 0.232316 0.499488 -0.052550
C24   C     C_R   0.863790 0.457157 0.464551 0.193733
C25   C     C_R   0.027654 0.529381 0.533037 -0.023009
C26   C     C_R   0.972403 0.466981 0.466874 -0.037337
C27   C     C_R   0.551709 0.097013 0.582085 0.198323
C28   C     C_R   0.418863 0.903023 0.483506 0.252701
C29   C     C_R   0.549790 0.189494 0.581248 0.219312
C30   C     C_R   0.414968 0.810467 0.479028 0.191578
C31   C     C_3   0.523183 0.040635 0.727899 0.012086
C32   C     C_3   0.578779 0.022628 0.826769 -0.337241
C33   C     C_3   0.283458 0.960267 0.549513 0.001995
C34   C     C_R   0.505794 0.765410 0.501898 -0.006250
C35   C     C_3   0.174403 0.991585 0.525035 -0.332442
C36   C     C_3   0.693595 0.259899 0.659370 0.026322
C37   C     C_3   0.733674 0.317924 0.746450 -0.357948
C38   C     C_3   0.294100 0.761507 0.357798 0.019667
C39   C     C_3   0.191703 0.709231 0.334076 -0.328683
C40   C     C_3   0.744179 0.489494 0.079396 0.019129
C41   C     C_3   0.837300 0.518591 0.028823 -0.340190
C42   C     C_3   0.513754 0.287567 0.935355 0.010513
C43   C     C_3   0.483125 0.207483 0.992505 -0.342801
C44   C     C_R   0.462805 0.181556 0.416645 0.172236
C45   C     C_R   0.602235 0.811018 0.521613 0.231336
C46   C     C_R   0.476304 0.089880 0.413979 0.287031
C47   C     C_R   0.608276 0.904232 0.516891 0.236216
C48   C     C_R   0.516663 0.047625 0.497997 -0.008418
Cu1   Cu    Cu3+1 0.500000 0.499990 0.596430 1.018280
Cu2   Cu    Cu3+1 0.500000 0.500010 0.403570 1.019204
H1    H     H_    0.811283 0.424963 0.335607 0.366241
H2    H     H_    0.994403 0.625038 0.730489 0.329948
H3    H     H_    0.472938 0.981294 0.704028 0.118829
H4    H     H_    0.474127 0.098538 0.735298 0.153416
H5    H     H_    0.629676 0.080994 0.852608 0.157529
H6    H     H_    0.521277 0.009725 0.878590 0.102835
H7    H     H_    0.626531 0.963827 0.823025 0.195825
H8    H     H_    0.328844 0.012431 0.594794 0.103687
H9    H     H_    0.278318 0.898022 0.591219 0.171268
H10   H     H_    0.126618 0.940657 0.479995 0.181079
H11   H     H_    0.138377 0.002922 0.592265 0.114636
H12   H     H_    0.214426 0.582724 0.648050 0.357314
H13   H     H_    0.176785 0.054546 0.484911 0.171345
H14   H     H_    0.705232 0.297944 0.593245 0.142228
H15   H     H_    0.739639 0.199449 0.660744 0.168649
H16   H     H_    0.816450 0.337597 0.743286 0.109273
H17   H     H_    0.688647 0.378609 0.747306 0.180476
H18   H     H_    0.726078 0.281000 0.813760 0.136294
H19   H     H_    0.353926 0.728722 0.320520 0.138308
H20   H     H_    0.284473 0.829458 0.329227 0.186622
H21   H     H_    0.167444 0.710855 0.255406 0.105792
H22   H     H_    0.131009 0.738385 0.372945 0.184851
H23   H     H_    0.364066 0.388750 0.289838 0.379846
H24   H     H_    0.200281 0.639318 0.355386 0.177986
H25   H     H_    0.358474 0.259189 0.366484 0.346174
H26   H     H_    0.751222 0.801891 0.557138 0.382796
H27   H     H_    0.426449 0.077368 0.276777 0.375020
H28   H     H_    0.700375 0.008273 0.503427 0.341772
H29   H     H_    0.706846 0.429440 0.040934 0.100284
H30   H     H_    0.771940 0.472443 0.154907 0.163725
H31   H     H_    0.877511 0.577887 0.066022 0.183624
H32   H     H_    0.892152 0.464290 0.029890 0.107594
H33   H     H_    0.811848 0.534945 0.952801 0.174244
H34   H     H_    0.631738 0.616713 0.709034 0.391067
H35   H     H_    0.588715 0.316535 0.970948 0.095542
H36   H     H_    0.524300 0.264595 0.861231 0.194111
H37   H     H_    0.410260 0.174976 0.957106 0.174154
H38   H     H_    0.545207 0.159169 0.996216 0.091260
H39   H     H_    0.471485 0.228384 0.066874 0.194157
H40   H     H_    0.635842 0.615782 0.318803 0.365016
H41   H     H_    0.365557 0.383506 0.681468 0.353869
H42   H     H_    0.312034 0.479670 0.982140 0.329735
H43   H     H_    0.522908 0.661724 0.001388 0.330269
H44   H     H_    0.849743 0.674096 0.667717 0.356246
H45   H     H_    0.154696 0.307684 0.358263 0.342981
H46   H     H_    0.011347 0.350175 0.283856 0.340173
N1    N     N_R   0.500000 0.500020 0.258690 -0.316409
N2    N     N_R   0.500000 0.499980 0.741310 -0.322867
O1    O     O_R   0.500010 0.371450 0.581430 -0.457396
O2    O     O_3   0.189222 0.610101 0.586136 -0.591661
O3    O     O_3   0.334078 0.422504 0.234688 -0.576075
O4    O     O_3   0.591330 0.642072 0.757351 -0.596531
O5    O     O_3   0.315216 0.450830 0.045556 -0.601454
O6    O     O_3   0.557022 0.658922 0.941633 -0.600726
O7    O     O_3   0.810605 0.617161 0.651665 -0.690584
O8    O     O_3   0.193583 0.365572 0.367278 -0.697796
O9    O     O_3   0.973743 0.354623 0.341513 -0.671473
O10   O     O_3   0.030836 0.627223 0.671888 -0.655899
O11   O     O_3   0.597399 0.055815 0.662839 -0.522274
O12   O     O_R   0.499990 0.628550 0.418570 -0.544026
O13   O     O_3   0.328283 0.947248 0.463373 -0.515219
O14   O     O_3   0.587907 0.237064 0.663779 -0.516054
O15   O     O_3   0.321031 0.763618 0.458620 -0.518218
O16   O     O_3   0.406300 0.218903 0.339551 -0.689077
O17   O     O_3   0.689162 0.761947 0.541360 -0.664699
O18   O     O_3   0.446915 0.038795 0.331755 -0.655390
O19   O     O_3   0.705076 0.947300 0.527944 -0.673053
O20   O     O_3   0.675398 0.559172 0.077543 -0.493354
O21   O     O_3   0.435285 0.349301 0.933450 -0.494341
O22   O     O_3   0.664889 0.580391 0.269402 -0.652054
O23   O     O_R   0.500010 0.371460 0.418560 -0.501494
O24   O     O_3   0.406626 0.358739 0.737603 -0.639386
O25   O     O_R   0.499990 0.628540 0.581440 -0.453392
O26   O     O_R   0.349000 0.499980 0.568210 -0.538003
O27   O     O_R   0.651000 0.500020 0.431790 -0.462677
O28   O     O_R   0.349000 0.499990 0.405340 -0.466620
O29   O     O_R   0.651000 0.500010 0.594660 -0.508976
O30   O     O_3   0.805873 0.399920 0.400277 -0.627316

loop_
_geom_bond_atom_site_label_1
_geom_bond_atom_site_label_2
_ccdc_geom_bond_type
C27   C48   A    
C40   O20   S    
C38   H20   S    
H44   O7    S    
C33   H8    S    
C27   C29   A    
H34   O4    S    
C29   O14   S    
C18   C26   A    
C1    O1    A    
C12   O12   A    
C43   H39   S    
H1    O30   S    
C23   C29   A    
C36   C37   S    
C19   C21   A    
C24   C26   A    
C38   C39   S    
C42   O21   S    
C15   C16   S    
Cu1   O25   S    
C37   H18   S    
Cu2   O12   S    
H26   O17   S    
C39   H24   S    
C4    C13   A    
C8    N2    A    
C18   O9    S    
H42   O5    S    
Cu1   N2    S    
C3    O20   S    
C22   C25   A    
C36   O14   S    
C39   H22   S    
C40   H30   S    
C4    O21   S    
Cu2   O28   S    
H27   O18   S    
C32   H5    S    
Cu2   O27   S    
C19   O10   S    
H23   O3    S    
C33   H9    S    
C38   H19   S    
C44   O16   S    
C16   C24   A    
C15   O29   A    
C14   C17   S    
Cu2   O23   S    
C32   H7    S    
H43   O6    S    
C44   C46   A    
C20   O8    S    
C45   C47   A    
C28   O13   S    
Cu1   O29   S    
C46   C48   A    
C22   O2    S    
C30   C34   A    
C5    O22   S    
C33   O13   S    
H28   O19   S    
C14   O26   A    
C4    C6    A    
C34   C45   A    
C38   O15   S    
C36   H15   S    
C2    C48   S    
C25   C26   A    
Cu1   O26   S    
H41   O24   S    
C23   C44   A    
C35   H10   S    
H40   O22   S    
H45   O8    S    
Cu1   O1    S    
C45   O17   S    
C31   C32   S    
C9    O5    S    
C41   H31   S    
C37   H16   S    
C31   O11   S    
C40   H29   S    
C35   H11   S    
C42   H35   S    
C31   H3    S    
C9    C11   A    
C27   O11   S    
C42   H36   S    
C40   C41   S    
H46   O9    S    
C5    N1    A    
C1    C23   S    
C7    O3    S    
H12   O2    S    
C42   C43   S    
C43   H38   S    
C12   C34   S    
C6    N2    A    
C7    C9    A    
Cu2   N1    S    
C39   H21   S    
C7    N1    A    
H25   O16   S    
C17   C20   A    
C3    C5    A    
C10   C13   A    
C2    C28   A    
C16   C21   A    
C2    C47   A    
C17   C22   A    
C14   O28   A    
C46   O18   S    
C43   H37   S    
C10   O6    S    
C11   C13   S    
C12   O25   A    
C41   H32   S    
C37   H17   S    
C28   C30   A    
C33   C35   S    
C18   C20   A    
C31   H4    S    
C19   C25   A    
C1    O23   A    
C3    C11   A    
C47   O19   S    
H2    O10   S    
C8    C10   A    
Cu1   Cu2   S    
C15   O27   A    
C24   O30   S    
C6    O24   S    
C35   H13   S    
C36   H14   S    
C8    O4    S    
C32   H6    S    
C21   O7    S    
C30   O15   S    
C41   H33   S    
