data_mof_unit_65480.cif
_audit_creation_date              2012-12-10T19:38:04-0500
_audit_creation_method            fapswitch 2.2
_symmetry_space_group_name_H-M    P1
_symmetry_Int_Tables_number       1
_space_group_crystal_system       triclinic
_cell_length_a                    28.072738
_cell_length_b                    26.464472
_cell_length_c                    18.517534
_cell_angle_alpha                 90.001379
_cell_angle_beta                  90.011954
_cell_angle_gamma                 89.999955
_cell_volume                      13757.2347267

loop_
_atom_site_label
_atom_site_type_symbol
_atom_type_description
_atom_site_fract_x
_atom_site_fract_y
_atom_site_fract_z
_atom_type_partial_charge
C1    C     C_R   0.067339 0.432824 0.499986 1.022942
C2    C     C_R   0.000005 0.500004 0.843995 -0.229870
C3    C     C_R   0.499998 0.999993 0.156005 -0.229865
C4    C     C_R   0.500009 0.999992 0.843996 -0.229846
C5    C     C_R   0.993048 0.455420 0.195653 0.545689
C6    C     C_R   0.993032 0.544583 0.804336 0.545723
C7    C     C_R   0.006951 0.544586 0.195665 0.545701
C8    C     C_R   0.006970 0.455423 0.804341 0.545710
C9    C     C_R   0.506957 0.955412 0.195665 0.545723
C10   C     C_R   0.506968 0.044575 0.804347 0.545693
C11   C     C_R   0.493042 0.044577 0.195657 0.545705
C12   C     C_R   0.932650 0.567166 0.499975 1.023372
C13   C     C_R   0.493040 0.955413 0.804333 0.545720
C14   C     C_R   0.994198 0.455565 0.272122 0.102761
C15   C     C_R   0.994175 0.544434 0.727868 0.102597
C16   C     C_R   0.005807 0.544437 0.272134 0.102503
C17   C     C_R   0.005818 0.455567 0.727873 0.102989
C18   C     C_R   0.505813 0.955563 0.272134 0.102505
C19   C     C_R   0.505813 0.044433 0.727879 0.102807
C20   C     C_R   0.494191 0.044434 0.272125 0.102989
C21   C     C_R   0.494179 0.955564 0.727863 0.102573
C22   C     C_R   0.886706 0.365254 0.561439 0.513265
C23   C     C_R   0.932661 0.432822 0.500013 1.022873
C24   C     C_R   0.134582 0.610507 0.438954 0.501808
C25   C     C_R   0.113350 0.634676 0.561549 0.513871
C26   C     C_R   0.865391 0.389544 0.438910 0.502303
C27   C     C_R   0.113258 0.365210 0.438602 0.513183
C28   C     C_R   0.865262 0.610270 0.560995 0.501826
C29   C     C_R   0.886516 0.634567 0.438462 0.513945
C30   C     C_R   0.134662 0.389613 0.561048 0.502300
C31   C     C_R   0.365141 0.889927 0.560955 0.501866
C32   C     C_R   0.613317 0.134722 0.438554 0.513281
C33   C     C_R   0.634630 0.110428 0.561081 0.502312
C34   C     C_R   0.067342 0.567176 0.500026 1.023432
C35   C     C_R   0.386408 0.865517 0.438469 0.514076
C36   C     C_R   0.634727 0.889716 0.439001 0.501845
C37   C     C_R   0.386740 0.134785 0.561406 0.513250
C38   C     C_R   0.365345 0.110398 0.438949 0.502256
C39   C     C_R   0.613458 0.865407 0.561523 0.513969
C40   C     C_R   0.850819 0.329321 0.561242 0.572306
C41   C     C_R   0.170515 0.646504 0.438891 0.566929
C42   C     C_R   0.149269 0.670575 0.561430 0.572175
C43   C     C_R   0.829445 0.353565 0.438811 0.566786
C44   C     C_R   0.149152 0.329285 0.438796 0.572330
C45   C     C_R   0.567349 0.932833 0.500024 1.023470
C46   C     C_R   0.829205 0.646125 0.561015 0.566948
C47   C     C_R   0.850469 0.670322 0.438535 0.572181
C48   C     C_R   0.170618 0.353645 0.561144 0.566775
C49   C     C_R   0.328981 0.854189 0.560944 0.566960
C50   C     C_R   0.649218 0.170639 0.438741 0.572302
C51   C     C_R   0.670590 0.146390 0.561171 0.566786
C52   C     C_R   0.350255 0.829880 0.438510 0.572202
C53   C     C_R   0.670773 0.853847 0.438973 0.566942
C54   C     C_R   0.350849 0.170714 0.561211 0.572332
C55   C     C_R   0.329392 0.146369 0.438853 0.566774
C56   C     C_R   0.432660 0.067176 0.500014 1.022935
C57   C     C_R   0.649493 0.829638 0.561442 0.572184
C58   C     C_R   0.822125 0.323136 0.499880 -0.427794
C59   C     C_R   0.177938 0.676806 0.500066 -0.427380
C60   C     C_R   0.177896 0.323161 0.500117 -0.427784
C61   C     C_R   0.821727 0.676418 0.499851 -0.427389
C62   C     C_R   0.321456 0.823901 0.499788 -0.427387
C63   C     C_R   0.677917 0.176815 0.500100 -0.427789
C64   C     C_R   0.678235 0.823541 0.500128 -0.427391
C65   C     C_R   0.322111 0.176846 0.499886 -0.427781
C66   C     C_R   0.000003 0.500005 0.925755 0.390742
C67   C     C_R   0.432645 0.932842 0.499974 1.023456
C68   C     C_R   0.999999 0.500005 0.074243 0.390726
C69   C     C_R   0.500008 0.999991 0.925756 0.390739
C70   C     C_R   0.500001 0.999991 0.074244 0.390740
C71   C     C_R   0.894524 0.395410 0.500087 -0.521119
C72   C     C_R   0.105492 0.604579 0.500143 -0.521178
C73   C     C_R   0.105481 0.395418 0.499913 -0.521088
C74   C     C_R   0.894423 0.604476 0.499856 -0.521205
C75   C     C_R   0.394354 0.895608 0.499852 -0.521229
C76   C     C_R   0.605489 0.104574 0.499910 -0.521121
C77   C     C_R   0.605567 0.895513 0.500139 -0.521224
C78   C     C_R   0.567341 0.067175 0.499986 1.022851
C79   C     C_R   0.394520 0.104584 0.500089 -0.521062
C80   C     C_R   0.215300 0.714884 0.499922 0.442770
C81   C     C_R   0.784712 0.285123 0.499784 0.444249
C82   C     C_R   0.784294 0.714415 0.500008 0.442835
C83   C     C_R   0.215312 0.285150 0.500212 0.444264
C84   C     C_R   0.715333 0.214825 0.500193 0.444248
C85   C     C_R   0.283954 0.785983 0.499956 0.442868
C86   C     C_R   0.284695 0.214857 0.499793 0.444279
C87   C     C_R   0.715660 0.785535 0.499970 0.442851
C88   C     C_3   0.988251 0.405092 0.308311 -0.470793
C89   C     C_R   0.999997 0.500004 0.156003 -0.229842
C90   C     C_3   0.988153 0.594888 0.691650 -0.471321
C91   C     C_3   0.011800 0.594897 0.308347 -0.471241
C92   C     C_3   0.011784 0.405098 0.691674 -0.471101
C93   C     C_3   0.511813 0.905106 0.308351 -0.471417
C94   C     C_3   0.511757 0.094906 0.691691 -0.470808
C95   C     C_3   0.488227 0.094903 0.308322 -0.471093
C96   C     C_3   0.488151 0.905112 0.691639 -0.471442
F1    F     F_    0.985168 0.411115 0.160437 -0.586823
F2    F     F_    0.129242 0.580665 0.379831 -0.567136
F3    F     F_    0.085833 0.630293 0.621436 -0.595156
F4    F     F_    0.870955 0.419144 0.379591 -0.567561
F5    F     F_    0.085987 0.369847 0.378479 -0.594956
F6    F     F_    0.870657 0.580428 0.620107 -0.567072
F7    F     F_    0.914111 0.630321 0.378637 -0.595188
F8    F     F_    0.129133 0.419264 0.620325 -0.567478
F9    F     F_    0.370584 0.919770 0.620058 -0.567020
F10   F     F_    0.586090 0.130035 0.378391 -0.594755
F11   F     F_    0.629057 0.080834 0.620403 -0.567562
F12   F     F_    0.985123 0.588883 0.839546 -0.586910
F13   F     F_    0.414064 0.869650 0.378691 -0.595116
F14   F     F_    0.629343 0.919567 0.379896 -0.567031
F15   F     F_    0.414004 0.130138 0.621534 -0.594909
F16   F     F_    0.370876 0.080752 0.379667 -0.567534
F17   F     F_    0.585859 0.869652 0.621344 -0.595145
F18   F     F_    0.843596 0.301327 0.621751 -0.536562
F19   F     F_    0.198799 0.650725 0.379691 -0.535649
F20   F     F_    0.155008 0.700191 0.620718 -0.537227
F21   F     F_    0.802497 0.347886 0.378423 -0.536071
F22   F     F_    0.156332 0.301238 0.378325 -0.536584
F23   F     F_    0.014841 0.588890 0.160459 -0.586898
F24   F     F_    0.800862 0.650225 0.620168 -0.535662
F25   F     F_    0.844681 0.699944 0.379267 -0.537213
F26   F     F_    0.197618 0.348028 0.621490 -0.536071
F27   F     F_    0.300592 0.850194 0.620061 -0.535686
F28   F     F_    0.656449 0.198625 0.378228 -0.536559
F29   F     F_    0.697547 0.152059 0.621552 -0.536073
F30   F     F_    0.344425 0.800248 0.379259 -0.537186
F31   F     F_    0.699119 0.849746 0.379823 -0.535664
F32   F     F_    0.343666 0.198756 0.621686 -0.536575
F33   F     F_    0.302398 0.151996 0.378503 -0.536083
F34   F     F_    0.014867 0.411121 0.839554 -0.586834
F35   F     F_    0.655266 0.800003 0.620701 -0.537208
F36   F     F_    0.514853 0.911109 0.160458 -0.586919
F37   F     F_    0.514859 0.088878 0.839563 -0.586822
F38   F     F_    0.485154 0.088880 0.160443 -0.586837
F39   F     F_    0.485133 0.911113 0.839538 -0.586939
F40   F     F_    0.913926 0.369952 0.621606 -0.594760
H1    H     H_    0.000007 0.404608 0.364504 0.252060
H2    H     H_    0.999982 0.404603 0.635502 0.252015
H3    H     H_    0.049652 0.393246 0.694559 0.253230
H4    H     H_    0.989689 0.376215 0.719467 0.271238
H5    H     H_    0.499939 0.904601 0.364482 0.252422
H6    H     H_    0.489795 0.876178 0.280496 0.271316
H7    H     H_    0.549704 0.893323 0.305604 0.252751
H8    H     H_    0.499995 0.095391 0.635500 0.252048
H9    H     H_    0.489617 0.123765 0.719455 0.271262
H10   H     H_    0.549611 0.106798 0.694635 0.253321
H11   H     H_    0.500021 0.095397 0.364499 0.252010
H12   H     H_    0.950397 0.393200 0.305360 0.253326
H13   H     H_    0.510330 0.123783 0.280536 0.271245
H14   H     H_    0.450362 0.106761 0.305427 0.253223
H15   H     H_    0.500055 0.904598 0.635523 0.252492
H16   H     H_    0.510130 0.876162 0.719515 0.271356
H17   H     H_    0.450248 0.893368 0.694343 0.252642
H18   H     H_    0.010393 0.376233 0.280551 0.271278
H19   H     H_    0.000044 0.595399 0.635528 0.252451
H20   H     H_    0.950254 0.606644 0.694376 0.252759
H21   H     H_    0.010144 0.623831 0.719520 0.271382
H22   H     H_    0.999952 0.595399 0.364490 0.252402
H23   H     H_    0.049684 0.606700 0.305561 0.252883
H24   H     H_    0.989759 0.623812 0.280510 0.271362
N1    N     N_R   1.000000 0.500000 0.310560 -0.137208
N2    N     N_R   0.500017 0.956027 0.963912 -0.041466
N3    N     N_R   0.500004 0.956028 0.036085 -0.041457
N4    N     N_R   0.499996 0.043955 0.963915 -0.041389
N5    N     N_R   0.744069 0.292787 0.461945 -0.054421
N6    N     N_R   0.238122 0.727102 0.561977 -0.053846
N7    N     N_R   0.227301 0.738797 0.437885 -0.057618
N8    N     N_R   0.790127 0.241777 0.537829 -0.058578
N9    N     N_R   0.255987 0.292854 0.537954 -0.054428
N10   N     N_R   0.761470 0.726629 0.437953 -0.053818
N11   N     N_R   0.772293 0.738326 0.562045 -0.057762
N12   N     N_R   1.000000 0.500000 0.689440 -0.137200
N13   N     N_R   0.209866 0.241767 0.462262 -0.058595
N14   N     N_R   0.261121 0.773781 0.437903 -0.053787
N15   N     N_R   0.755975 0.207161 0.538034 -0.054406
N16   N     N_R   0.709918 0.258172 0.462150 -0.058591
N17   N     N_R   0.271939 0.762086 0.561996 -0.057865
N18   N     N_R   0.738483 0.773320 0.562025 -0.053836
N19   N     N_R   0.244020 0.207154 0.462051 -0.054434
N20   N     N_R   0.290142 0.258240 0.537744 -0.058606
N21   N     N_R   0.727661 0.761623 0.437933 -0.057763
N22   N     N_R   0.500000 1.000000 0.310560 -0.137210
N23   N     N_R   0.500000 1.000000 0.689440 -0.137199
N24   N     N_R   0.999985 0.543969 0.036087 -0.041449
N25   N     N_R   0.000008 0.456042 0.963911 -0.041386
N26   N     N_R   0.000015 0.456042 0.036084 -0.041390
N27   N     N_R   0.999996 0.543969 0.963914 -0.041446
N28   N     N_R   0.500001 0.043955 0.036088 -0.041382
O1    O     O_R   0.050940 0.449070 0.560830 -0.600593
O2    O     O_R   0.449060 0.050930 0.439170 -0.600626
O3    O     O_R   0.449060 0.050930 0.560830 -0.581216
O4    O     O_R   0.550940 0.949070 0.439170 -0.600522
O5    O     O_R   0.449060 0.949070 0.439170 -0.581866
O6    O     O_R   0.550940 0.050930 0.560830 -0.600561
O7    O     O_R   0.550940 0.050930 0.439170 -0.581211
O8    O     O_R   0.449060 0.949070 0.560830 -0.600551
O9    O     O_R   0.949060 0.550930 0.439170 -0.581803
O10   O     O_R   0.949060 0.550930 0.560830 -0.600568
O11   O     O_R   0.050940 0.449070 0.439170 -0.581318
O12   O     O_R   0.949060 0.449070 0.439170 -0.600543
O13   O     O_R   0.050940 0.550930 0.560830 -0.581684
O14   O     O_R   0.050940 0.550930 0.439170 -0.600549
O15   O     O_R   0.949060 0.449070 0.560830 -0.581213
O16   O     O_R   0.550940 0.949070 0.560830 -0.581807
Zn1   Zn    Zn3+2 0.000000 0.500000 0.581210 1.038634
Zn2   Zn    Zn3+2 1.000000 0.500000 0.418790 1.038550
Zn3   Zn    Zn3+2 0.500000 1.000000 0.581210 1.038616
Zn4   Zn    Zn3+2 0.500000 1.000000 0.418790 1.038583

loop_
_geom_bond_atom_site_label_1
_geom_bond_atom_site_label_2
_ccdc_geom_bond_type
C94   H10   S    
N8    N15   A    
C82   N10   A    
C24   C41   A    
C12   C74   S    
C28   C46   A    
C31   F9    S    
C33   F11   S    
C69   N4    A    
C81   N5    A    
C28   C74   A    
C70   N3    A    
C30   F8    S    
C17   N12   A    
C65   C86   S    
C54   C65   A    
C2    C6    A    
N5    N16   A    
O6    Zn3   S    
C37   C79   A    
C35   C75   A    
C56   C79   S    
C29   C47   A    
C24   F2    S    
C39   C77   A    
C30   C48   A    
N12   Zn1   S    
C41   F19   S    
C61   C82   S    
C95   H11   S    
C48   F26   S    
C53   C64   A    
C47   F25   S    
C38   C79   A    
N13   N19   A    
C34   O13   A    
C49   F27   S    
N23   Zn3   S    
C29   F7    S    
C78   O6    A    
C4    C13   A    
C91   H22   S    
C36   C53   A    
C53   F31   S    
C43   C58   A    
C6    C15   A    
C27   C44   A    
C25   F3    S    
C40   F18   S    
C38   C55   A    
O1    Zn1   S    
C39   F17   S    
C32   C76   A    
C12   O9    A    
C10   F37   S    
N11   N18   A    
C95   H13   S    
C52   C62   A    
C84   N15   A    
N9    N20   A    
C91   H23   S    
C93   H7    S    
C14   N1    A    
C70   N28   A    
C90   H20   S    
C94   H9    S    
C56   O3    A    
C68   N26   A    
O5    Zn4   S    
C32   F10   S    
C66   N27   A    
O10   Zn1   S    
C26   C71   A    
O4    Zn4   S    
O9    Zn2   S    
C1    O11   A    
C17   C92   S    
C31   C49   A    
C80   N6    A    
C4    C69   S    
C55   C65   A    
C26   C43   A    
C48   C60   A    
C50   C63   A    
C62   C85   S    
C56   O2    A    
C11   C20   A    
C40   C58   A    
O7    Zn4   S    
C46   C61   A    
C13   C21   A    
C51   F29   S    
C23   C71   S    
C3    C70   S    
C50   F28   S    
C69   N2    A    
C41   C59   A    
C13   F39   S    
C11   F38   S    
C19   N23   A    
C25   C72   A    
C30   C73   A    
C52   F30   S    
C29   C74   A    
C55   F33   S    
C96   H15   S    
C54   F32   S    
C23   O12   A    
C27   F5    S    
O11   Zn2   S    
C22   F40   S    
C88   H18   S    
C25   C42   A    
C87   N21   A    
C3    C9    A    
C7    F23   S    
O15   Zn1   S    
C45   O4    A    
C31   C75   A    
C96   H17   S    
O16   Zn3   S    
C44   F22   S    
C10   C19   A    
C22   C40   A    
C86   N20   A    
C68   C89   S    
C88   H12   S    
C51   C63   A    
C95   H14   S    
O3    Zn3   S    
C44   C60   A    
C39   C57   A    
C32   C50   A    
C5    C14   A    
C19   C94   S    
C43   F21   S    
N7    N14   A    
O13   Zn1   S    
C37   C54   A    
O2    Zn4   S    
C7    C16   A    
C20   C95   S    
C5    F1    S    
N6    N17   A    
C83   N13   A    
N10   N21   A    
C8    F34   S    
C59   C80   S    
N1    Zn2   S    
C58   C81   S    
C67   C75   S    
C38   F16   S    
C67   O8    A    
C92   H4    S    
C34   C72   S    
C22   C71   A    
C7    C89   A    
C93   H5    S    
C24   C72   A    
C57   C64   A    
C20   N22   A    
N2    N3    A    
C9    F36   S    
C42   F20   S    
C21   N23   A    
C82   N11   A    
C68   N24   A    
O12   Zn2   S    
C49   C62   A    
C80   N7    A    
C18   N22   A    
C57   F35   S    
C2    C8    A    
C76   C78   S    
N4    N28   A    
C46   F24   S    
C35   F13   S    
C42   C59   A    
C47   C61   A    
C27   C73   A    
C2    C66   S    
C21   C96   S    
C16   N1    A    
C33   C51   A    
C92   H2    S    
C8    C17   A    
N24   N27   A    
C63   C84   S    
C36   C77   A    
C1    C73   S    
C12   O10   A    
C90   H21   S    
C94   H8    S    
C85   N14   A    
C84   N16   A    
C87   N18   A    
C36   F14   S    
C91   H24   S    
N25   N26   A    
C34   O14   A    
C45   O16   A    
C83   N9    A    
C86   N19   A    
C60   C83   S    
C81   N8    A    
C15   N12   A    
N22   Zn4   S    
C78   O7    A    
O8    Zn3   S    
C1    O1    A    
C88   H1    S    
C37   F15   S    
C3    C11   A    
C14   C88   S    
C28   F6    S    
C9    C18   A    
C33   C76   A    
C16   C91   S    
C85   N17   A    
O14   Zn2   S    
C66   N25   A    
C23   O15   A    
C35   C52   A    
C18   C93   S    
C6    F12   S    
C45   C77   S    
C90   H19   S    
C67   O5    A    
C92   H3    S    
C4    C10   A    
C64   C87   S    
C5    C89   A    
C93   H6    S    
C26   F4    S    
C15   C90   S    
C96   H16   S    
