data_mof_unit_33235.cif
_audit_creation_date              2013-03-05T16:36:43-0500
_audit_creation_method            fapswitch 2.2
_symmetry_space_group_name_H-M    P1
_symmetry_Int_Tables_number       1
_space_group_crystal_system       triclinic
_cell_length_a                    7.783468
_cell_length_b                    9.084451
_cell_length_c                    16.945017
_cell_angle_alpha                 89.510923
_cell_angle_beta                  93.300436
_cell_angle_gamma                 90.066294
_cell_volume                      1196.12617134

loop_
_atom_site_label
_atom_site_type_symbol
_atom_site_description
_atom_site_fract_x
_atom_site_fract_y
_atom_site_fract_z
_atom_type_partial_charge
O1    O     O_R   0.642760 0.288400 0.500000 -0.554559
O2    O     O_R   0.357240 0.711600 0.500000 -0.554392
O3    O     O_R   0.357190 0.288380 0.500000 -0.588139
O4    O     O_R   0.642810 0.711620 0.500000 -0.588251
C1    C     C_R   0.499946 0.220025 0.500280 0.887919
C2    C     C_R   0.500054 0.779975 0.499726 0.888160
O5    O     O_R   0.658410 0.498660 0.613920 -0.558674
O6    O     O_R   0.341590 0.501340 0.386080 -0.558856
O7    O     O_R   0.372840 0.498650 0.613930 -0.555150
O8    O     O_R   0.627160 0.501350 0.386070 -0.555401
C3    C     C_R   0.520110 0.501075 0.651524 0.933933
C4    C     C_R   0.479890 0.498981 0.348479 0.934618
Cu1   Cu    Cu3+1 0.669080 0.500010 0.500000 1.140653
Cu2   Cu    Cu3+1 0.330920 0.499990 0.500000 1.140749
N1    N     N_1   0.076820 0.499970 0.500010 -0.001233
N2    N     N_1   0.923180 0.500030 0.499990 -0.001255
C5    C     C_R   0.528581 0.516168 0.737875 -0.312016
C6    C     C_R   0.471425 0.484194 0.262116 -0.312051
C7    C     C_R   0.428980 0.626202 0.771735 0.221944
C8    C     C_R   0.570710 0.374056 0.228164 0.221838
C9    C     C_R   0.436563 0.644265 0.854000 0.115302
C10   C     C_R   0.563293 0.356394 0.145876 0.115037
C11   C     C_R   0.537896 0.548894 0.902524 0.178824
C12   C     C_R   0.462320 0.452135 0.097430 0.178957
C13   C     C_R   0.642225 0.441240 0.869153 0.201097
C14   C     C_R   0.358385 0.559967 0.130887 0.201384
C15   C     C_R   0.637806 0.425120 0.786399 0.174356
C16   C     C_R   0.362710 0.575793 0.213661 0.174086
N3    N     N_2   0.526586 0.558846 0.985279 -0.122389
N4    N     N_2   0.473572 0.442275 0.014665 -0.122375
C17   C     C_1   0.499912 0.065384 0.500121 -0.041372
C18   C     C_1   0.500090 0.934616 0.499885 -0.041181
N5    N     N_R   0.672220 0.274545 0.277498 0.132917
O9    O     O_R   0.838339 0.290827 0.285726 -0.309129
O10   O     O_R   0.597885 0.170185 0.316030 -0.357460
N6    N     N_R   0.327002 0.725249 0.722322 0.132867
O11   O     O_R   0.400850 0.829949 0.683820 -0.357718
O12   O     O_R   0.160975 0.708272 0.714029 -0.308736
N7    N     N_2   0.660773 0.244381 0.110707 -0.352384
H1    H     H_    0.778065 0.221479 0.139468 0.315153
C19   C     C_3   0.563735 0.112868 0.090510 -0.464372
H2    H     H_    0.520448 0.058278 0.144889 0.251183
H3    H     H_    0.646452 0.035181 0.059626 0.236907
H4    H     H_    0.450024 0.140197 0.050456 0.230968
N8    N     N_2   0.339020 0.756391 0.889050 -0.351926
H5    H     H_    0.222030 0.779619 0.860090 0.315045
C20   C     C_3   0.436282 0.887652 0.909538 -0.464740
H6    H     H_    0.353272 0.965790 0.939928 0.237109
H7    H     H_    0.481071 0.941814 0.855344 0.250544
H8    H     H_    0.549016 0.860100 0.950120 0.230979
N9    N     N_R   0.750082 0.347323 0.919450 0.182832
O13   O     O_R   0.749805 0.205569 0.908982 -0.305996
O14   O     O_R   0.845473 0.402850 0.977375 -0.262859
N10   N     N_R   0.251139 0.654448 0.080654 0.183092
O15   O     O_R   0.154982 0.599403 0.022850 -0.262450
O16   O     O_R   0.252949 0.796232 0.090995 -0.306849
N11   N     N_R   0.744046 0.316595 0.751932 0.178877
O17   O     O_R   0.909002 0.313787 0.769517 -0.259346
O18   O     O_R   0.676105 0.219415 0.703517 -0.337625
N12   N     N_R   0.257044 0.684668 0.248208 0.178606
O19   O     O_R   0.325335 0.780924 0.297072 -0.337977
O20   O     O_R   0.092402 0.689158 0.230014 -0.259074

loop_
_geom_bond_atom_site_label_1
_geom_bond_atom_site_label_2
_geom_bond_distance
_ccdc_geom_bond_type
C2    C18   1.404855 S    
O7    Cu2   1.939251 S    
C13   N9    1.437332 S    
N3    N4    1.246315 D    
Cu1   Cu2   2.632058 S    
C13   C15   1.409571 A    
O7    C3    1.279188 A    
C19   H2    1.111793 S    
C14   C16   1.409646 A    
C17   C18   1.187996 T    
O6    C4    1.282359 A    
O3    C1    1.273262 A    
N6    O12   1.300959 A    
N5    O9    1.300877 A    
C6    C16   1.411586 A    
N9    O13   1.301403 A    
C20   H7    1.111624 S    
N8    H5    1.030401 S    
O5    C3    1.282391 A    
C19   H3    1.110227 S    
N5    O10   1.300586 A    
N11   O17   1.301472 A    
O2    C2    1.272961 A    
O3    Cu2   1.933440 S    
O8    C4    1.279160 A    
O1    C1    1.272959 A    
C10   N7    1.424951 S    
C14   N10   1.437147 S    
C10   C12   1.401125 A    
N12   O20   1.301275 A    
N6    O11   1.300776 A    
C7    C9    1.402856 A    
C12   C14   1.414075 A    
C20   H8    1.110654 S    
C9    N8    1.425048 S    
C7    N6    1.432830 S    
N8    C20   1.445765 S    
C9    C11   1.401259 A    
O2    Cu2   1.933010 S    
C19   H4    1.110896 S    
N10   O16   1.301328 A    
N11   O18   1.301311 A    
C12   N4    1.413809 S    
O1    Cu1   1.933011 S    
C8    N5    1.432842 S    
N7    H1    1.030405 S    
N1    N2    1.195834 T    
C5    C15   1.411555 A    
C11   N3    1.413769 S    
O5    Cu1   1.936867 S    
C11   C13   1.414128 A    
C16   N12   1.436862 S    
C6    C8    1.411413 A    
N7    C19   1.445716 S    
O4    C2    1.273260 A    
C15   N11   1.436730 S    
Cu1   N2    1.977788 S    
C4    C6    1.468394 S    
O4    Cu1   1.933440 S    
N10   O15   1.301031 A    
C3    C5    1.468491 S    
C1    C17   1.404856 S    
O6    Cu2   1.936869 S    
C5    C7    1.411455 A    
Cu2   N1    1.977788 S    
C20   H6    1.110015 S    
C8    C10   1.402799 A    
N12   O19   1.301304 A    
N9    O14   1.301083 A    
O8    Cu1   1.939253 S    
