data_mof_unit_38118.cif
_audit_creation_date              2012-12-10T19:45:41-0500
_audit_creation_method            fapswitch 2.2
_symmetry_space_group_name_H-M    P1
_symmetry_Int_Tables_number       1
_space_group_crystal_system       triclinic
_cell_length_a                    10.869611
_cell_length_b                    14.775655
_cell_length_c                    14.8378
_cell_angle_alpha                 64.598797
_cell_angle_beta                  105.012684
_cell_angle_gamma                 103.242929
_cell_volume                      2060.09166123

loop_
_atom_site_label
_atom_site_type_symbol
_atom_type_description
_atom_site_fract_x
_atom_site_fract_y
_atom_site_fract_z
_atom_type_partial_charge
C1    C     C_R   0.478433 0.120004 0.312247 0.883984
C2    C     C_R   0.517651 0.879782 0.687802 0.880684
C3    C     C_R   0.870959 0.002701 0.495216 -0.064006
C4    C     C_R   0.129189 0.996034 0.505601 -0.050487
C5    C     C_R   0.904540 0.962843 0.435156 0.030543
C6    C     C_R   0.095857 0.034550 0.566763 0.024619
C7    C     C_R   0.478446 0.188385 0.205164 -0.100874
C8    C     C_R   0.532385 0.810343 0.796096 -0.102885
C9    C     C_R   0.513522 0.218341 0.039321 -0.065076
C10   C     C_R   0.612947 0.782955 0.973182 -0.102484
C11   C     C_R   0.498812 0.152635 0.137682 -0.171610
C12   C     C_R   0.588017 0.848184 0.871510 -0.231103
C13   C     C_R   0.472428 0.292050 0.172653 0.327519
C14   C     C_R   0.497377 0.704892 0.824790 0.349347
C15   C     C_R   0.509447 0.360965 0.079662 0.001911
C16   C     C_R   0.540650 0.638366 0.925024 -0.016765
C17   C     C_R   0.519733 0.323026 0.009078 0.035652
C18   C     C_R   0.589976 0.677714 0.001289 0.037045
C19   C     C_R   0.536769 0.466550 0.054554 0.030633
C20   C     C_R   0.534239 0.533196 0.952185 0.017376
C21   C     C_R   0.541075 0.494232 0.882289 -0.148066
C22   C     C_R   0.583161 0.506623 0.129563 -0.127520
C23   C     C_R   0.262941 0.998173 0.502848 0.862939
C24   C     C_R   0.737055 0.001952 0.496754 0.842599
C25   C     C_R   0.538385 0.391001 0.910830 0.383107
C26   C     C_R   0.615119 0.610445 0.103594 0.362363
C27   C     C_R   0.739602 0.304419 0.642060 -0.267662
C28   C     C_R   0.256421 0.695599 0.360405 -0.302124
C29   C     C_R   0.696605 0.213782 0.629355 0.574098
C30   C     C_R   0.306250 0.788362 0.367779 0.583162
C31   C     C_R   0.511248 0.282204 0.513322 -0.042703
C32   C     C_R   0.481736 0.714258 0.493535 -0.029414
C33   C     C_R   0.547562 0.372694 0.532840 -0.021531
C34   C     C_R   0.443134 0.622993 0.475892 -0.024597
C35   C     C_R   0.667140 0.382957 0.595350 0.086784
C36   C     C_R   0.324538 0.614130 0.411749 0.071585
C37   C     C_R   0.470894 0.452865 0.493917 0.101715
C38   C     C_R   0.518116 0.541744 0.516777 0.104852
C39   C     C_R   0.640664 0.548167 0.576466 -0.187599
C40   C     C_R   0.348172 0.446653 0.434300 -0.188720
C41   C     C_R   0.713330 0.470053 0.615047 -0.061714
C42   C     C_R   0.276826 0.526083 0.393803 -0.114875
C43   C     C_R   0.339113 0.019288 0.806982 -0.194852
C44   C     C_R   0.693472 0.969912 0.184745 -0.218709
C45   C     C_R   0.241839 0.988727 0.738612 0.440680
C46   C     C_R   0.780730 0.003033 0.256107 0.453242
C47   C     C_R   0.191830 0.062837 0.644734 0.008772
C48   C     C_R   0.810183 0.933048 0.357575 -0.008908
C49   C     C_R   0.235288 0.165617 0.623854 -0.171478
C50   C     C_R   0.753284 0.831884 0.384811 -0.169822
C51   C     C_R   0.330653 0.194750 0.693405 -0.080472
C52   C     C_R   0.663963 0.801071 0.313614 -0.049682
C53   C     C_R   0.383905 0.121641 0.784007 -0.117942
C54   C     C_R   0.633834 0.869953 0.213838 -0.097367
C55   C     C_R   0.967458 0.040248 0.558541 -0.124032
C56   C     C_R   0.032858 0.957037 0.443575 -0.092087
Cu1   Cu    Cu3+1 0.466270 0.918260 0.475690 1.053399
Cu2   Cu    Cu3+1 0.533730 0.081740 0.524310 1.044412
H1    H     H_    0.459166 0.144082 0.837190 0.195761
H2    H     H_    0.564605 0.845721 0.158759 0.182216
H3    H     H_    0.525531 0.186682 0.989097 0.185165
H4    H     H_    0.652485 0.815768 0.028987 0.199825
H5    H     H_    0.558617 0.544402 0.806916 0.194880
H6    H     H_    0.605464 0.457261 0.208789 0.213156
H7    H     H_    0.806448 0.477338 0.662431 0.163487
H8    H     H_    0.184219 0.519438 0.345605 0.168501
H9    H     H_    0.564636 0.723035 0.548881 0.146038
H10   H     H_    0.425088 0.271617 0.461464 0.185320
H11   H     H_    0.828194 0.312021 0.694256 0.209324
H12   H     H_    0.169153 0.688682 0.307027 0.207019
H13   H     H_    0.683587 0.612787 0.594969 0.121612
H14   H     H_    0.304908 0.381595 0.416571 0.156738
H15   H     H_    0.379885 0.964123 0.878747 0.180838
H16   H     H_    0.669712 0.021697 0.106596 0.180240
H17   H     H_    0.196627 0.223052 0.552884 0.150607
H18   H     H_    0.776799 0.777320 0.461766 0.143755
H19   H     H_    0.364161 0.274112 0.676410 0.193516
H20   H     H_    0.618508 0.723451 0.335735 0.181289
H21   H     H_    0.943467 0.071704 0.604231 0.227885
H22   H     H_    0.056914 0.924679 0.398487 0.214785
H23   H     H_    0.610471 0.928634 0.852141 0.225634
H24   H     H_    0.505225 0.073775 0.161443 0.198758
N1    N     N_R   0.584450 0.204570 0.560790 -0.245358
N2    N     N_R   0.415550 0.795430 0.439210 -0.233864
O1    O     O_R   0.455540 0.022090 0.338120 -0.535417
O2    O     O_R   0.544460 0.977910 0.661880 -0.542013
O3    O     O_R   0.512510 0.160150 0.379180 -0.550571
O4    O     O_R   0.487490 0.839850 0.620820 -0.549795
O5    O     O_R   0.291160 0.930970 0.479480 -0.524069
O6    O     O_R   0.708840 0.069030 0.520520 -0.530233
O7    O     O_R   0.348130 0.069020 0.520540 -0.611020
O8    O     O_R   0.651870 0.930980 0.479460 -0.615972
S1    S     S_3+6 0.238564 0.892792 0.263082 0.030342
O9    O     O_2   0.326564 0.935160 0.187258 -0.324592
O10   O     O_2   0.110022 0.855478 0.213353 -0.262765
O11   O     O_3   0.214769 0.986607 0.288885 -0.529075
H25   H     H_    0.190171 0.040932 0.221804 0.396220
S2    S     S_3+6 0.791244 0.117042 0.720480 0.010484
O12   O     O_2   0.930169 0.162427 0.721418 -0.306065
O13   O     O_2   0.761746 0.094535 0.822122 -0.297453
O14   O     O_3   0.778161 0.006549 0.710278 -0.547281
H26   H     H_    0.835252 0.965642 0.771356 0.387202
S3    S     S_3+6 0.179360 0.859012 0.774421 0.010386
O15   O     O_2   0.202075 0.820842 0.702032 -0.294557
O16   O     O_2   0.242450 0.797968 0.880263 -0.255427
O17   O     O_3   0.020256 0.845822 0.769648 -0.535505
H27   H     H_    0.988446 0.774798 0.777939 0.381634
S4    S     S_3+6 0.850208 0.131562 0.217233 -0.000530
O18   O     O_2   0.810201 0.187225 0.104807 -0.255163
O19   O     O_2   0.806622 0.179837 0.272382 -0.337626
O20   O     O_3   0.011339 0.139012 0.245823 -0.522582
H28   H     H_    0.042812 0.210776 0.234629 0.397592
Cl1   Cl    Cl    0.558680 0.351049 0.820221 -0.670200
Cl2   Cl    Cl    0.687825 0.651619 0.202513 -0.641114
Cl3   Cl    Cl    0.374112 0.657342 0.744403 -0.527889
Cl4   Cl    Cl    0.390510 0.331041 0.236401 -0.639935

loop_
_geom_bond_atom_site_label_1
_geom_bond_atom_site_label_2
_ccdc_geom_bond_type
C1    O3    A    
C43   H15   S    
S1    O9    D    
Cu1   O8    S    
C27   C29   A    
C5    C56   A    
C36   C42   A    
C19   C20   A    
C18   C26   A    
C6    C55   A    
Cu2   O3    S    
C26   Cl2   S    
C53   H1    S    
C39   C41   A    
C54   H2    S    
C15   C19   A    
O14   H26   S    
Cu1   O5    S    
C29   S2    S    
C9    H3    S    
C29   N1    A    
C37   C40   A    
C25   Cl1   S    
C38   C39   A    
O17   H27   S    
C14   Cl3   S    
Cu2   O2    S    
C31   N1    A    
S4    O18   D    
C45   S3    S    
C3    C55   A    
C43   C53   A    
O20   H28   S    
C44   C46   A    
C49   C51   A    
C46   S4    S    
C50   C52   A    
C49   H17   S    
C2    O4    A    
C14   C16   A    
Cu2   O7    S    
C27   H11   S    
C8    C12   A    
C40   C42   A    
S1    O10   D    
C1    C7    S    
C4    C56   A    
C3    C24   S    
C10   H4    S    
C52   H20   S    
C24   O8    A    
C47   C49   A    
C52   C54   A    
C45   C47   A    
C11   H24   S    
C1    O1    A    
C31   H10   S    
C32   N2    A    
C5    C48   S    
C46   C48   A    
C6    C47   S    
C19   C22   A    
C4    C6    A    
C4    C23   S    
C41   H7    S    
C27   C35   A    
C33   C37   A    
C51   C53   A    
C32   C34   A    
C7    C11   A    
C51   H19   S    
C37   C38   A    
C50   H18   S    
C55   H21   S    
C16   C20   A    
O11   H25   S    
C23   O5    A    
Cu1   N2    S    
S3    O16   D    
C44   H16   S    
C48   C50   A    
C43   C45   A    
C10   C12   A    
Cu2   O6    S    
C32   H9    S    
C9    C17   A    
S1    O11   S    
S2    O13   D    
C9    C11   A    
C23   O7    A    
C15   C17   A    
C21   C25   A    
C31   C33   A    
C8    C14   A    
C40   H14   S    
C34   C38   A    
C28   H12   S    
C3    C5    A    
C24   O6    A    
Cu1   O4    S    
C30   S1    S    
S2    O14   S    
C56   H22   S    
S4    O20   S    
C17   C25   A    
C13   C15   A    
Cu2   N1    S    
Cu1   Cu2   S    
C10   C18   A    
C28   C30   A    
C33   C35   A    
S4    O19   D    
C12   H23   S    
C2    O2    A    
S3    O17   S    
C34   C36   A    
C30   N2    A    
C35   C41   A    
C21   H5    S    
C13   Cl4   S    
C22   H6    S    
C44   C54   A    
C7    C13   A    
C20   C21   A    
C28   C36   A    
C16   C18   A    
S2    O12   D    
C22   C26   A    
C2    C8    S    
S3    O15   D    
C42   H8    S    
C39   H13   S    
Cu1   O1    S    
