data_mof_unit_66952.cif
_audit_creation_date              2013-03-05T15:57:31-0500
_audit_creation_method            fapswitch 2.2
_symmetry_space_group_name_H-M    P1
_symmetry_Int_Tables_number       1
_space_group_crystal_system       triclinic
_cell_length_a                    17.3656
_cell_length_b                    18.513865
_cell_length_c                    8.403094
_cell_angle_alpha                 89.809658
_cell_angle_beta                  101.528894
_cell_angle_gamma                 89.55332
_cell_volume                      2647.01018854

loop_
_atom_site_label
_atom_site_type_symbol
_atom_site_description
_atom_site_fract_x
_atom_site_fract_y
_atom_site_fract_z
_atom_type_partial_charge
P1    P     P_3+3 0.834140 0.419320 0.003900 0.486308
P2    P     P_3+3 0.834140 0.580680 0.503900 0.487062
P3    P     P_3+3 0.334140 0.919320 0.003900 0.486303
P4    P     P_3+3 0.334140 0.080680 0.503900 0.487071
O1    O     O_2   0.841960 0.394640 0.833410 -0.345465
O2    O     O_2   0.841960 0.605360 0.333410 -0.351267
O3    O     O_2   0.341960 0.894640 0.833410 -0.345453
O4    O     O_2   0.341960 0.105360 0.333410 -0.351277
O5    O     O_3   0.907950 0.463080 0.102990 -0.407021
O6    O     O_3   0.907950 0.536920 0.602990 -0.402502
O7    O     O_3   0.407950 0.963080 0.102990 -0.407046
O8    O     O_3   0.407950 0.036920 0.602990 -0.402501
O9    O     O_3   0.972780 0.329600 0.629720 -0.390718
O10   O     O_3   0.972780 0.670400 0.129720 -0.396953
O11   O     O_3   0.472780 0.829600 0.629720 -0.390742
O12   O     O_3   0.472780 0.170400 0.129720 -0.396970
O13   O     O_2   0.839283 0.276481 0.685450 -0.390972
O14   O     O_2   0.840563 0.726241 0.189783 -0.415787
O15   O     O_2   0.339284 0.776479 0.685453 -0.390970
O16   O     O_2   0.340568 0.226248 0.189796 -0.415789
O17   O     O_3   0.760105 0.484949 0.986679 -0.538849
O18   O     O_3   0.761869 0.514562 0.487915 -0.539065
O19   O     O_3   0.260106 0.984951 0.986673 -0.538852
O20   O     O_3   0.261870 0.014561 0.487924 -0.539050
O21   O     O_3   0.938502 0.179502 0.636326 -0.551660
O22   O     O_3   0.936973 0.820616 0.116374 -0.580457
O23   O     O_3   0.438501 0.679500 0.636312 -0.551663
O24   O     O_3   0.436975 0.320617 0.116360 -0.580450
H1    H     H_    0.053818 0.210763 0.715201 0.157857
H2    H     H_    0.050775 0.786654 0.213183 0.151819
H3    H     H_    0.553812 0.710766 0.715251 0.157879
H4    H     H_    0.550776 0.286651 0.213171 0.151817
C1    C     C_3   0.046662 0.099467 0.642105 -0.936141
C2    C     C_3   0.048080 0.895869 0.124761 -0.935426
C3    C     C_3   0.546671 0.599476 0.642111 -0.936154
C4    C     C_3   0.548084 0.395867 0.124757 -0.935432
H5    H     H_    0.610665 0.597288 0.645902 0.248330
H6    H     H_    0.612482 0.395185 0.134296 0.248693
H7    H     H_    0.110653 0.097273 0.645862 0.248342
H8    H     H_    0.033844 0.922756 0.233299 0.267144
H9    H     H_    0.034065 0.076300 0.756198 0.279325
H10   H     H_    0.021966 0.927438 0.014852 0.283852
H11   H     H_    0.534062 0.576296 0.756182 0.279313
H12   H     H_    0.533849 0.422753 0.233298 0.267138
P5    P     P_3+3 0.165830 0.418670 0.685610 0.489812
P6    P     P_3+3 0.165830 0.581330 0.185610 0.488612
P7    P     P_3+3 0.665830 0.918670 0.685610 0.489835
P8    P     P_3+3 0.665830 0.081330 0.185610 0.488642
P9    P     P_3+3 0.096980 0.262552 0.106492 0.477029
P10   P     P_3+3 0.097073 0.737634 0.605840 0.478081
P11   P     P_3+3 0.596989 0.762558 0.106485 0.477031
P12   P     P_3+3 0.597073 0.237635 0.605838 0.478077
O25   O     O_2   0.157990 0.394030 0.856030 -0.427399
O26   O     O_2   0.157990 0.605970 0.356030 -0.417741
O27   O     O_2   0.657990 0.894030 0.856030 -0.427361
O28   O     O_2   0.657990 0.105970 0.356030 -0.417755
O29   O     O_3   0.027110 0.329490 0.059550 -0.383404
O30   O     O_3   0.027110 0.670510 0.559550 -0.383894
O31   O     O_3   0.527110 0.829490 0.059550 -0.383416
O32   O     O_3   0.527110 0.170510 0.559550 -0.383900
O33   O     O_2   0.154728 0.270892 0.989876 -0.384058
O34   O     O_2   0.160977 0.720380 0.507576 -0.381215
O35   O     O_2   0.654732 0.770902 0.989861 -0.384057
O36   O     O_2   0.660975 0.220380 0.507571 -0.381205
O37   O     O_3   0.243769 0.479518 0.706154 -0.623376
O38   O     O_3   0.246258 0.520903 0.208059 -0.626786
O39   O     O_3   0.743765 0.979525 0.706169 -0.623362
O40   O     O_3   0.746254 0.020897 0.208071 -0.626741
O41   O     O_3   0.043574 0.185538 0.039232 -0.491424
O42   O     O_3   0.056767 0.818872 0.515789 -0.513272
O43   O     O_3   0.543594 0.685539 0.039227 -0.491445
O44   O     O_3   0.556765 0.318872 0.515787 -0.513302
C5    C     C_3   0.971711 0.190322 0.091769 0.491465
C6    C     C_3   0.974215 0.819284 0.491719 0.460206
C7    C     C_3   0.471730 0.690316 0.091760 0.491385
C8    C     C_3   0.474212 0.319282 0.491705 0.460258
H13   H     H_    0.929805 0.225077 0.006625 0.123805
H14   H     H_    0.952448 0.863409 0.404824 0.115009
H15   H     H_    0.429831 0.725095 0.006658 0.123822
H16   H     H_    0.452444 0.363405 0.404807 0.115057
H17   H     H_    0.978235 0.211405 0.217598 0.023501
H18   H     H_    0.947566 0.768792 0.436604 0.152734
H19   H     H_    0.478260 0.711367 0.217618 0.023511
H20   H     H_    0.447568 0.268788 0.436589 0.152762
C9    C     C_3   0.937719 0.115991 0.091149 -0.994544
C10   C     C_3   0.945816 0.836839 0.646302 -1.034546
C11   C     C_3   0.437722 0.615990 0.091030 -0.994416
C12   C     C_3   0.445808 0.336835 0.646282 -1.034414
H21   H     H_    0.378832 0.619691 0.122126 0.268179
H22   H     H_    0.381060 0.342884 0.617567 0.255406
H23   H     H_    0.934260 0.093260 0.968731 0.296500
H24   H     H_    0.881069 0.842892 0.617595 0.255358
H25   H     H_    0.975618 0.080616 0.181125 0.278126
H26   H     H_    0.971290 0.888417 0.697674 0.289317
H27   H     H_    0.434250 0.593296 0.968570 0.296473
H28   H     H_    0.471278 0.388414 0.697655 0.289301
C13   C     C_3   0.283239 0.504239 0.369700 1.116461
C14   C     C_3   0.282996 0.492128 0.867028 1.100114
C15   C     C_3   0.783221 0.004237 0.369721 1.116599
C16   C     C_3   0.782995 0.992129 0.867045 1.100068
H29   H     H_    0.260787 0.536080 0.460553 0.060594
H30   H     H_    0.258842 0.462725 0.959055 0.067090
H31   H     H_    0.760768 0.036082 0.460564 0.060629
H32   H     H_    0.758835 0.962728 0.959069 0.067148
C17   C     C_3   0.370529 0.522169 0.398152 -1.169170
C18   C     C_3   0.367670 0.465454 0.889688 -1.147050
C19   C     C_3   0.870518 0.022162 0.398225 -1.169581
C20   C     C_3   0.867665 0.965446 0.889708 -1.147096
H33   H     H_    0.378532 0.581405 0.396284 0.247305
H34   H     H_    0.369145 0.407088 0.865093 0.261310
H35   H     H_    0.878529 0.081405 0.396532 0.247368
H36   H     H_    0.869135 0.907082 0.865088 0.261319
H37   H     H_    0.400233 0.501198 0.518829 0.267141
H38   H     H_    0.397632 0.473747 0.017428 0.268436
H39   H     H_    0.900222 0.001122 0.518846 0.267226
H40   H     H_    0.897623 0.973727 0.017456 0.268424
H41   H     H_    0.399183 0.497771 0.304619 0.264402
H42   H     H_    0.400007 0.493167 0.806499 0.259462
H43   H     H_    0.899172 0.997833 0.304612 0.264430
H44   H     H_    0.900011 0.993163 0.806540 0.259472
Ba1   Ba    Ba6+2 0.000000 0.447380 0.844850 1.573975
Ba2   Ba    Ba6+2 0.000000 0.552620 0.344850 1.568410
Ba3   Ba    Ba6+2 0.500000 0.947380 0.844850 1.573990
Ba4   Ba    Ba6+2 0.500000 0.052620 0.344850 1.568430
C21   C     C_3   0.779439 0.547809 0.912756 0.419283
C22   C     C_3   0.781802 0.452767 0.410831 0.423190
C23   C     C_3   0.279454 0.047816 0.912793 0.419333
C24   C     C_3   0.281802 0.952767 0.410830 0.423197
H45   H     H_    0.774731 0.537460 0.782140 0.121358
H46   H     H_    0.778535 0.465243 0.281467 0.123159
H47   H     H_    0.274788 0.037472 0.782189 0.121322
H48   H     H_    0.278532 0.965246 0.281467 0.123148
H49   H     H_    0.839083 0.567045 0.968252 0.109198
H50   H     H_    0.841072 0.432002 0.467724 0.109300
H51   H     H_    0.339083 0.067059 0.968360 0.109228
H52   H     H_    0.341071 0.932001 0.467717 0.109294
C25   C     C_3   0.719856 0.605760 0.934949 -0.851966
C26   C     C_3   0.721366 0.395455 0.426528 -0.837483
C27   C     C_3   0.219851 0.105761 0.934918 -0.851988
C28   C     C_3   0.221365 0.895455 0.426527 -0.837471
H53   H     H_    0.661698 0.581460 0.935125 0.295292
H54   H     H_    0.716762 0.354794 0.329686 0.199751
H55   H     H_    0.212350 0.146220 0.836177 0.202107
H56   H     H_    0.216760 0.854796 0.329682 0.199744
H57   H     H_    0.712364 0.646240 0.836250 0.202123
H58   H     H_    0.738364 0.367512 0.544790 0.297391
H59   H     H_    0.239686 0.133637 0.051860 0.295655
H60   H     H_    0.238364 0.867510 0.544787 0.297391
H61   H     H_    0.739704 0.633608 0.051924 0.295686
H62   H     H_    0.662514 0.420527 0.419058 0.292861
H63   H     H_    0.161700 0.081451 0.935113 0.295307
H64   H     H_    0.162514 0.920527 0.419061 0.292859
O45   O     O_3   0.092100 0.536880 0.086720 -0.357377
O46   O     O_3   0.092100 0.463120 0.586720 -0.354248
O47   O     O_3   0.592100 0.036880 0.086720 -0.357358
O48   O     O_3   0.592100 0.963120 0.586720 -0.354244
P13   P     P_3+3 0.897632 0.734738 0.071737 0.384492
P14   P     P_3+3 0.898924 0.264457 0.574003 0.414265
P15   P     P_3+3 0.397632 0.234739 0.071738 0.384479
P16   P     P_3+3 0.398923 0.764458 0.574002 0.414262
C29   C     C_3   0.017349 0.177128 0.620051 0.439683
C30   C     C_3   0.017246 0.819075 0.110572 0.392053
C31   C     C_3   0.517355 0.677135 0.620075 0.439709
C32   C     C_3   0.517248 0.319073 0.110561 0.392046
H65   H     H_    0.024263 0.196113 0.498113 0.035956
H66   H     H_    0.027473 0.795992 0.994931 0.068036
H67   H     H_    0.524282 0.696133 0.498154 0.035940
H68   H     H_    0.527474 0.295992 0.994918 0.068039
H69   H     H_    0.518012 0.566355 0.538014 0.276258
H70   H     H_    0.521970 0.427438 0.014851 0.283852
H71   H     H_    0.017990 0.066338 0.538034 0.276252
H72   H     H_    0.112478 0.895188 0.134300 0.248689
H73   H     H_    0.475616 0.580582 0.180948 0.278134
H74   H     H_    0.462369 0.292663 0.735457 0.246010
H75   H     H_    0.878827 0.119692 0.122232 0.268199
H76   H     H_    0.962376 0.792666 0.735473 0.246044
C33   C     C_R   0.138840 0.676387 0.918567 -0.466523
C34   C     C_R   0.138551 0.324753 0.417550 -0.447538
C35   C     C_R   0.638844 0.176385 0.918563 -0.466513
C36   C     C_R   0.638572 0.824763 0.417533 -0.447355
C37   C     C_R   0.860447 0.321293 0.257974 -0.540803
C38   C     C_R   0.858648 0.676100 0.759820 -0.517534
C39   C     C_R   0.360447 0.821293 0.257973 -0.540811
C40   C     C_R   0.358644 0.176099 0.759822 -0.517556
C41   C     C_R   0.787958 0.214532 0.297854 -0.197107
C42   C     C_R   0.783759 0.782015 0.800483 -0.190105
C43   C     C_R   0.287958 0.714533 0.297854 -0.197113
C44   C     C_R   0.283756 0.282015 0.800483 -0.190080
C45   C     C_R   0.845808 0.265533 0.358193 0.231626
C46   C     C_R   0.842331 0.730961 0.859993 0.263935
C47   C     C_R   0.345807 0.765534 0.358193 0.231641
C48   C     C_R   0.342327 0.230960 0.859995 0.263913
C49   C     C_R   0.810948 0.335080 0.107839 0.285878
C50   C     C_R   0.809873 0.663667 0.609156 0.292399
C51   C     C_R   0.310947 0.835080 0.107839 0.285882
C52   C     C_R   0.309870 0.163666 0.609156 0.292429
C53   C     C_R   0.747324 0.285803 0.046759 -0.146637
C54   C     C_R   0.746017 0.713414 0.548220 -0.138971
C55   C     C_R   0.247323 0.785804 0.046760 -0.146633
C56   C     C_R   0.246011 0.213410 0.548223 -0.138975
C57   C     C_R   0.239637 0.721650 0.140761 -0.093002
C58   C     C_R   0.237213 0.276834 0.642246 -0.107436
C59   C     C_R   0.739638 0.221650 0.140760 -0.092989
C60   C     C_R   0.737218 0.776836 0.642245 -0.107472
C61   C     C_R   0.182056 0.667907 0.077024 0.315946
C62   C     C_R   0.180927 0.332051 0.576966 0.330512
C63   C     C_R   0.682058 0.167906 0.077022 0.315910
C64   C     C_R   0.680935 0.832055 0.576960 0.330490
C65   C     C_R   0.145441 0.737909 0.825892 0.164429
C66   C     C_R   0.146280 0.263421 0.325277 0.121965
C67   C     C_R   0.645443 0.237908 0.825889 0.164442
C68   C     C_R   0.646300 0.763431 0.325262 0.122014
C69   C     C_R   0.192024 0.795744 0.896172 0.137446
C70   C     C_R   0.191826 0.204589 0.397303 0.130969
C71   C     C_R   0.692026 0.295744 0.896170 0.137439
C72   C     C_R   0.691836 0.704595 0.397297 0.130987
H77   H     H_    0.280816 0.670219 0.376621 0.153631
H78   H     H_    0.275677 0.325314 0.880473 0.159917
H79   H     H_    0.780815 0.170220 0.376621 0.153621
H80   H     H_    0.775677 0.825312 0.880475 0.159932
H81   H     H_    0.100536 0.633443 0.864450 0.185220
H82   H     H_    0.100474 0.368384 0.362426 0.183099
H83   H     H_    0.600540 0.133441 0.864446 0.185217
H84   H     H_    0.600500 0.868397 0.362405 0.183094
H85   H     H_    0.907909 0.357955 0.303613 0.165131
H86   H     H_    0.907072 0.639561 0.805184 0.164872
H87   H     H_    0.407910 0.857954 0.303611 0.165133
H88   H     H_    0.407067 0.139559 0.805188 0.164866
I1    I     I_    0.646324 0.397101 0.796833 -0.377084
I2    I     I_    0.644739 0.603648 0.305552 -0.395244
I3    I     I_    0.146325 0.897102 0.796834 -0.377059
I4    I     I_    0.144748 0.103641 0.305520 -0.395201
O49   O     O_3   0.273869 0.430553 0.406168 -0.668484
C73   C     C_3   0.282121 0.384675 0.276587 -0.167855
H89   H     H_    0.293713 0.329497 0.326178 0.176654
H90   H     H_    0.331639 0.399339 0.218123 0.156384
H91   H     H_    0.226706 0.384058 0.184227 0.183092
O50   O     O_3   0.279895 0.566225 0.906603 -0.674068
C74   C     C_3   0.285670 0.612145 0.775029 -0.145536
H92   H     H_    0.228971 0.613952 0.686719 0.184043
H93   H     H_    0.333744 0.595948 0.713044 0.163593
H94   H     H_    0.298268 0.667245 0.822986 0.185950
O51   O     O_3   0.773818 0.930556 0.406181 -0.668458
C75   C     C_3   0.782213 0.884663 0.276697 -0.167761
H95   H     H_    0.793939 0.829510 0.326409 0.176577
H96   H     H_    0.831706 0.899412 0.218223 0.156314
H97   H     H_    0.726806 0.883922 0.184292 0.183080
O52   O     O_3   0.779904 0.066226 0.906629 -0.674071
C76   C     C_3   0.785692 0.112147 0.775062 -0.145510
H98   H     H_    0.728996 0.113963 0.686746 0.184017
H99   H     H_    0.833765 0.095944 0.713084 0.163625
H100  H     H_    0.798296 0.167244 0.823027 0.185939

loop_
_geom_bond_atom_site_label_1
_geom_bond_atom_site_label_2
_geom_bond_distance
_ccdc_geom_bond_type
P6    C61   1.892419 S    
C15   H31   1.095772 S    
C12   H28   1.107652 S    
P1    O17   1.746521 S    
P5    C62   1.890165 S    
O10   Ba2   2.804007 S    
O1    Ba1   2.903730 S    
C20   H44   1.107373 S    
P3    O19   1.746526 S    
O7    Ba4   2.863375 S    
C2    H10   1.106844 S    
P8    O28   1.535814 D    
P4    O4    1.534300 D    
O6    Ba1   2.841040 S    
C70   I4    2.130134 S    
C28   H60   1.104218 S    
C9    H23   1.103395 S    
C54   C60   1.441514 A    
P9    O29   1.716265 S    
Ba3   Ba4   4.625458 S    
Ba3   O47   2.863356 S    
C26   H62   1.109342 S    
C34   H82   1.082150 S    
C34   C66   1.397723 A    
C76   H98   1.108381 S    
C1    H7    1.105786 S    
O11   Ba3   2.819039 S    
P7    C64   1.890163 S    
C18   H38   1.107061 S    
C29   H65   1.111451 S    
P1    O1    1.536502 D    
O15   P16   1.544268 D    
O28   Ba4   2.907151 S    
O38   C13   1.413498 S    
C25   H57   1.103480 S    
C3    H5    1.105784 S    
C23   H51   1.109415 S    
O37   C14   1.408008 S    
P6    O38   1.762611 S    
P3    O3    1.536502 D    
C24   H52   1.109788 S    
C43   H77   1.075793 S    
P4    O20   1.746208 S    
O18   C22   1.391640 S    
P7    O48   1.600264 S    
C22   H46   1.100785 S    
C21   H49   1.109438 S    
O51   C75   1.412340 S    
C35   C67   1.395989 A    
C16   H32   1.095764 S    
C12   H74   1.104134 S    
C75   H95   1.103870 S    
P4    Ba4   3.445585 S    
O22   P13   1.747505 S    
C36   C68   1.397719 A    
C33   C65   1.395986 A    
O32   Ba4   2.818330 S    
P13   C46   1.847135 S    
C75   H96   1.107375 S    
C25   H53   1.109083 S    
C10   H26   1.107648 S    
O23   C31   1.403351 S    
P5    O25   1.533617 D    
C30   H66   1.108607 S    
P5    O37   1.749974 S    
C9    H25   1.106705 S    
P11   C68   1.866658 S    
C10   H24   1.106533 S    
C74   H92   1.108384 S    
P10   C65   1.871911 S    
O21   C29   1.403352 S    
O16   P15   1.544416 D    
C11   H27   1.103430 S    
P9    C66   1.866666 S    
P2    O18   1.746206 S    
P12   C67   1.871918 S    
C72   I2    2.130132 S    
C40   C48   1.384554 A    
O41   C5    1.406725 S    
C38   C50   1.396282 A    
P4    O8    1.595402 S    
C3    H11   1.110652 S    
O49   C73   1.412192 S    
C28   H64   1.109344 S    
C43   C47   1.404353 A    
C69   I3    2.132957 S    
C52   C56   1.447091 A    
C13   C17   1.525993 S    
C28   H56   1.101956 S    
O26   Ba2   2.907151 S    
P7    O27   1.533617 D    
C54   C72   1.430777 A    
P9    O41   1.740394 S    
C18   H42   1.107371 S    
O12   P15   1.754149 S    
Ba2   O46   2.841024 S    
C17   H41   1.106600 S    
P2    O2    1.534300 D    
C73   H90   1.107309 S    
C6    H18   1.107455 S    
C24   H48   1.100790 S    
C19   H43   1.106629 S    
P3    Ba3   3.451013 S    
C51   C55   1.452106 A    
Ba3   O48   2.955950 S    
P2    Ba2   3.445585 S    
O31   Ba3   2.803323 S    
H4    C32   1.110501 S    
C11   H73   1.106750 S    
H3    C31   1.111391 S    
C8    H20   1.107453 S    
O30   Ba2   2.818330 S    
P7    O39   1.749993 S    
C16   C20   1.522617 S    
Ba1   O46   2.955950 S    
O10   P13   1.754139 S    
C42   C60   1.415261 A    
P10   O30   1.734837 S    
C60   C64   1.437964 A    
C32   H68   1.108608 S    
C2    H72   1.105055 S    
P11   O35   1.544014 D    
C26   H54   1.101956 S    
P14   C45   1.862988 S    
C39   H87   1.082216 S    
O20   C24   1.391643 S    
C37   C45   1.386887 A    
C68   C72   1.403249 A    
C38   H86   1.082286 S    
P5    Ba1   3.447769 S    
O23   P16   1.747661 S    
C40   C52   1.396285 A    
C36   H84   1.082150 S    
C42   H80   1.074064 S    
O22   C30   1.404617 S    
O24   P15   1.747505 S    
P3    C51   1.870503 S    
C8    C12   1.514110 S    
C20   H36   1.101903 S    
C39   C47   1.386884 A    
P2    C50   1.862360 S    
C73   H91   1.109157 S    
C3    C31   1.519811 S    
C42   C46   1.398792 A    
C1    C29   1.519818 S    
O42   C6    1.407129 S    
C16   O52   1.415789 S    
C14   H30   1.095760 S    
C27   H63   1.109080 S    
O9    Ba1   2.819039 S    
C39   C51   1.398787 A    
C35   C63   1.399343 A    
C31   H67   1.111453 S    
C13   O49   1.414952 S    
P12   O44   1.757534 S    
P6    O26   1.535814 D    
O5    Ba2   2.863375 S    
P1    O5    1.608307 S    
O44   C8    1.407134 S    
C74   H93   1.108644 S    
C6    C10   1.514112 S    
C21   C25   1.522387 S    
C5    C9    1.501239 S    
Ba1   Ba2   4.625458 S    
Ba1   O45   2.863356 S    
O39   C16   1.408022 S    
C5    H17   1.112985 S    
C57   C61   1.442819 A    
C27   H59   1.105215 S    
C7    C11   1.501222 S    
C25   H61   1.105224 S    
P8    O47   1.613316 S    
C12   H22   1.106537 S    
C76   H99   1.108639 S    
Ba4   O48   2.841024 S    
C21   H45   1.101744 S    
P12   O36   1.542032 D    
P10   O34   1.542032 D    
Ba2   O45   2.954913 S    
C2    H8    1.109947 S    
C4    H12   1.109946 S    
P11   O31   1.716286 S    
C73   H89   1.103713 S    
O2    Ba2   2.889089 S    
O17   C21   1.391981 S    
C1    H71   1.105960 S    
O27   Ba3   2.892369 S    
O9    P14   1.762541 S    
C37   C49   1.398788 A    
O52   C76   1.412327 S    
O24   C32   1.404612 S    
C55   C57   1.445977 A    
C18   H34   1.101913 S    
C17   H37   1.109193 S    
P4    C52   1.862363 S    
P6    O45   1.613316 S    
C17   H33   1.106997 S    
O50   C74   1.412324 S    
C22   C26   1.522008 S    
C76   H100  1.105375 S    
C5    H13   1.112215 S    
C41   H79   1.075787 S    
C58   C62   1.437970 A    
C55   C69   1.437790 A    
C19   H35   1.107066 S    
C56   C70   1.430792 A    
O4    Ba4   2.889089 S    
C8    H16   1.106487 S    
P16   C47   1.862983 S    
O3    Ba3   2.903730 S    
C2    C30   1.519797 S    
C19   H39   1.109254 S    
P8    Ba4   3.453316 S    
P11   O43   1.740378 S    
C41   C45   1.404353 A    
P7    Ba3   3.447769 S    
C14   O50   1.415785 S    
C44   H78   1.074066 S    
H2    C30   1.110501 S    
C15   C19   1.526067 S    
C43   C57   1.420712 A    
O19   C23   1.391978 S    
C4    H70   1.106845 S    
C14   C18   1.522613 S    
C75   H97   1.109290 S    
P8    O40   1.762617 S    
C65   C69   1.405857 A    
C44   C48   1.398792 A    
C37   H85   1.082217 S    
C20   H40   1.107069 S    
C23   H47   1.101717 S    
C4    H6    1.105055 S    
C67   C71   1.405858 A    
O12   Ba4   2.804007 S    
O40   C15   1.413493 S    
C1    H9    1.110654 S    
O11   P16   1.762544 S    
O14   P13   1.544410 D    
O25   Ba1   2.892369 S    
C41   C59   1.420713 A    
O43   C7    1.406709 S    
C53   C71   1.437794 A    
P9    O33   1.544023 D    
C7    H19   1.112989 S    
C50   C54   1.447082 A    
O8    Ba3   2.841040 S    
C59   C63   1.442817 A    
C26   H58   1.104216 S    
C49   C53   1.452106 A    
P15   C48   1.847150 S    
C34   C62   1.401068 A    
P8    C63   1.892424 S    
C44   C58   1.415268 A    
C9    H75   1.106638 S    
C3    H69   1.105962 S    
C33   C61   1.399340 A    
C53   C59   1.445975 A    
C74   H94   1.105377 S    
C10   H76   1.104131 S    
C15   O51   1.414936 S    
P1    Ba1   3.451013 S    
P10   O42   1.757526 S    
P6    Ba2   3.453316 S    
P3    O7    1.608307 S    
O29   Ba1   2.803323 S    
C71   I1    2.132961 S    
C22   H50   1.109788 S    
P12   O32   1.734837 S    
C6    H14   1.106476 S    
Ba4   O47   2.954913 S    
C35   H83   1.082176 S    
O21   P14   1.747661 S    
C4    C32   1.519797 S    
C11   H21   1.106640 S    
C40   H88   1.082286 S    
P1    C49   1.870502 S    
O13   P14   1.544267 D    
C27   H55   1.103471 S    
P5    O46   1.600264 S    
C38   C46   1.384553 A    
H1    C29   1.111394 S    
C33   H81   1.082178 S    
C66   C70   1.403250 A    
C36   C64   1.401063 A    
C7    H15   1.112221 S    
C23   C27   1.522382 S    
C56   C58   1.441520 A    
C13   H29   1.095787 S    
C24   C28   1.522008 S    
P2    O6    1.595402 S    
