data_mof_unit_28955.cif
_audit_creation_date              2012-12-11T19:38:31-0500
_audit_creation_method            fapswitch 2.2
_symmetry_space_group_name_H-M    P1
_symmetry_Int_Tables_number       1
_space_group_crystal_system       triclinic
_cell_length_a                    8.20624
_cell_length_b                    15.036347
_cell_length_c                    22.812298
_cell_angle_alpha                 97.96666
_cell_angle_beta                  89.135612
_cell_angle_gamma                 98.908115
_cell_volume                      2754.00199675

loop_
_atom_site_label
_atom_site_type_symbol
_atom_type_description
_atom_site_fract_x
_atom_site_fract_y
_atom_site_fract_z
_atom_type_partial_charge
Ba1   Ba    Ba6+2 0.856850 0.543240 0.473390 1.652195
Ba2   Ba    Ba6+2 0.332990 0.456830 0.526620 1.663527
Br1   Br    Br    0.038703 0.243673 0.243727 -0.614144
C1    C     C_3   0.707559 0.878396 0.330000 -0.361735
C2    C     C_R   0.105342 0.577191 0.941218 -0.028844
C3    C     C_R   0.056082 0.572127 0.881268 0.596378
C4    C     C_3   0.139988 0.732255 0.316052 0.317266
C5    C     C_R   0.948330 0.413787 0.878786 0.573305
C6    C     C_R   0.995775 0.416837 0.938386 -0.016835
C7    C     C_R   0.074593 0.498961 0.969783 -0.051207
C8    C     C_R   0.184450 0.658760 0.973444 -0.072525
C9    C     C_R   0.231939 0.662423 0.032573 -0.070060
C10   C     C_R   0.201804 0.584672 0.061621 -0.018401
C11   C     C_R   0.122797 0.502711 0.030008 -0.052267
C12   C     C_3   0.673092 0.783802 0.348274 0.352657
C13   C     C_R   0.966622 0.338930 0.967208 -0.072737
C14   C     C_R   0.014832 0.342483 0.026033 -0.066895
C15   C     C_R   0.093047 0.424180 0.058208 -0.036882
C16   C     C_3   0.114340 0.754140 0.254096 -0.299556
C17   C     C_R   0.142742 0.428603 0.117788 0.606510
C18   C     C_R   0.248467 0.587238 0.121513 0.572552
C19   C     C_2   0.780837 0.441872 0.768161 -0.083368
C20   C     C_3   0.752979 0.412516 0.702702 -0.048286
C21   C     C_1   0.003800 0.517378 0.686019 0.032898
C22   C     C_2   0.050139 0.522479 0.742534 -0.102742
C23   C     C_3   0.471203 0.327599 0.343913 0.259388
C24   C     C_2   0.931365 0.485347 0.787819 0.195576
C25   C     C_R   0.420303 0.553383 0.232914 -0.097689
C26   C     C_R   0.462136 0.558854 0.292815 -0.015494
C27   C     C_R   0.193198 0.478058 0.313065 0.000918
C28   C     C_3   0.229014 0.736814 0.602285 0.313504
C29   C     C_R   0.147193 0.475770 0.253285 -0.076750
C30   C     C_R   0.260584 0.513651 0.212194 0.204372
C31   C     C_2   0.862066 0.470516 0.664704 -0.291616
C32   C     C_R   0.855426 0.167916 0.534243 0.004374
C33   C     C_R   0.786808 0.074943 0.530911 -0.037595
C34   C     C_3   0.463196 0.305703 0.276666 -0.347204
C35   C     C_R   0.647554 0.888086 0.521570 -0.036801
C36   C     C_R   0.792561 0.922805 0.554694 -0.041049
C37   C     C_R   0.862901 0.013782 0.558023 -0.099137
C38   C     C_R   0.580661 0.794445 0.514060 0.043001
C39   C     C_R   0.434653 0.764116 0.481696 -0.305601
C40   C     C_3   0.250458 0.839539 0.619195 -0.385178
C41   C     C_R   0.620476 0.195661 0.479608 0.006691
C42   C     C_R   0.552937 0.103103 0.473868 -0.037014
C43   C     C_R   0.635427 0.042482 0.500093 0.016031
C44   C     C_R   0.404962 0.069606 0.442654 -0.052061
C45   C     C_3   0.053092 0.265631 0.682206 0.329111
C46   C     C_R   0.336298 0.979013 0.438720 -0.096725
C47   C     C_R   0.415279 0.917437 0.464189 -0.035482
C48   C     C_R   0.566715 0.949122 0.494963 0.006924
C49   C     C_R   0.347283 0.824941 0.459498 -0.004063
C50   C     C_R   0.769670 0.226922 0.509467 -0.268351
C51   C     C_3   0.915831 0.260627 0.316390 0.503812
C52   C     C_3   0.840576 0.166530 0.329916 -0.282362
C53   C     C_3   0.711026 0.657544 0.651465 0.297826
C54   C     C_3   0.718612 0.679578 0.718568 -0.357176
C55   C     C_3   0.069593 0.242155 0.744314 -0.306094
C56   C     C_3   0.508993 0.213789 0.655663 0.351481
C57   C     C_3   0.449839 0.120313 0.673345 -0.362810
C58   C     C_R   0.347903 0.523045 0.332413 -0.301265
H1    H     H_    0.740352 0.785299 0.390407 0.084426
H2    H     H_    0.613297 0.598212 0.639508 0.078259
H3    H     H_    0.841990 0.898186 0.323487 0.142301
H4    H     H_    0.821057 0.735911 0.732012 0.135914
H5    H     H_    0.739493 0.619129 0.738493 0.070768
H6    H     H_    0.600364 0.700020 0.735528 0.134356
H7    H     H_    0.538265 0.766814 0.355337 -0.057621
H8    H     H_    0.665006 0.928433 0.365019 0.069974
H9    H     H_    0.347592 0.339090 0.360298 0.058860
H10   H     H_    0.562292 0.390106 0.356002 0.050221
H11   H     H_    0.390490 0.237400 0.263496 0.188491
H12   H     H_    0.340565 0.861058 0.656212 0.128622
H13   H     H_    0.404487 0.356757 0.257519 0.106174
H14   H     H_    0.588388 0.306298 0.257769 0.108122
H15   H     H_    0.641135 0.879580 0.288127 0.130591
H16   H     H_    0.098814 0.690515 0.222435 0.115946
H17   H     H_    0.147618 0.325375 0.676984 0.101820
H18   H     H_    0.928315 0.282730 0.676960 -0.049719
H19   H     H_    0.176793 0.206196 0.747394 0.145907
H20   H     H_    0.089952 0.305634 0.776075 0.120027
H21   H     H_    0.956098 0.197968 0.756224 0.126156
H22   H     H_    0.645968 0.225884 0.658374 -0.061949
H23   H     H_    0.296201 0.874227 0.581036 0.060415
H24   H     H_    0.469784 0.212976 0.609134 0.069322
H25   H     H_    0.506938 0.068304 0.644135 0.067721
H26   H     H_    0.313825 0.103129 0.668759 0.149562
H27   H     H_    0.052996 0.670112 0.322005 0.101082
H28   H     H_    0.485636 0.119030 0.719936 0.124566
H29   H     H_    0.990010 0.280802 0.046322 0.139681
H30   H     H_    0.906512 0.274555 0.944276 0.127145
H31   H     H_    0.292372 0.726682 0.055546 0.126870
H32   H     H_    0.512105 0.579874 0.202624 0.118117
H33   H     H_    0.210146 0.720261 0.953006 0.126429
H34   H     H_    0.130283 0.860645 0.633119 0.120895
H35   H     H_    0.175197 0.552228 0.756047 0.127513
H36   H     H_    0.688632 0.416178 0.798771 0.118695
H37   H     H_    0.024086 0.444508 0.238833 0.133755
H38   H     H_    0.382321 0.526957 0.378399 0.080850
H39   H     H_    0.268522 0.719057 0.320191 -0.043861
H40   H     H_    0.837672 0.457915 0.617430 0.083386
H41   H     H_    0.855536 0.880529 0.578157 0.102632
H42   H     H_    0.977034 0.035281 0.582524 0.108973
H43   H     H_    0.221204 0.958374 0.414793 0.115702
H44   H     H_    0.338708 0.112544 0.420900 0.108433
H45   H     H_    0.813934 0.298464 0.309936 0.037085
H46   H     H_    0.382831 0.692796 0.477009 0.073364
H47   H     H_    0.821675 0.298071 0.512202 0.083056
H48   H     H_    0.001377 0.785753 0.252071 0.152650
H49   H     H_    0.221900 0.801771 0.241202 0.129918
H50   H     H_    0.350028 0.716502 0.590570 0.003129
H51   H     H_    0.143693 0.717572 0.563771 0.067227
H52   H     H_    0.938225 0.123448 0.332028 0.123477
H53   H     H_    0.749230 0.133193 0.295143 0.111192
H54   H     H_    0.777741 0.171872 0.373198 0.072848
H55   H     H_    0.831314 0.640727 0.635119 0.011702
N1    N     N_R   0.979017 0.490794 0.850237 -0.423743
N2    N     N_R   0.215686 0.510036 0.149778 -0.428845
O1    O     O_2   0.889550 0.449610 0.359390 -0.482017
O2    O     O_2   0.197801 0.177058 0.535406 -0.478739
O3    O     O_3   0.076804 0.190728 0.640938 -0.618524
O4    O     O_3   0.130110 0.450560 0.430470 -0.452172
O5    O     O_3   0.576420 0.610430 0.532020 -0.487429
O6    O     O_2   0.341600 0.276000 0.466340 -0.437673
O7    O     O_3   0.517367 0.253774 0.367243 -0.651962
O8    O     O_2   0.425796 0.455522 0.708258 -0.499381
O9    O     O_3   0.440400 0.280368 0.693607 -0.595523
O10   O     O_2   0.079854 0.640553 0.857099 -0.592833
O11   O     O_2   0.880462 0.341784 0.852196 -0.617915
O12   O     O_3   0.676652 0.733737 0.627894 -0.638502
O13   O     O_2   0.123742 0.359168 0.140781 -0.539704
O14   O     O_2   0.317871 0.658600 0.148417 -0.612070
O15   O     O_3   0.674110 0.616450 0.398780 -0.486230
O16   O     O_2   0.800196 0.556357 0.294723 -0.502627
O17   O     O_3   0.020281 0.303221 0.363815 -0.616663
O18   O     O_3   0.727952 0.721102 0.303717 -0.598398
O19   O     O_2   0.848090 0.724020 0.533700 -0.471901
O20   O     O_3   0.092920 0.663620 0.428750 -0.493257
O21   O     O_2   0.007816 0.824616 0.466501 -0.488465
O22   O     O_3   0.108590 0.805619 0.357468 -0.609925
O23   O     O_2   0.300150 0.550420 0.640640 -0.463938
O24   O     O_3   0.059600 0.549520 0.569540 -0.497074
O25   O     O_3   0.515600 0.383630 0.601220 -0.478085
O26   O     O_3   0.166627 0.695914 0.650995 -0.624154
O27   O     O_3   0.613290 0.389640 0.467990 -0.471718
O28   O     O_3   0.096790 0.336450 0.571260 -0.484540
P1    P     P_3+3 0.056000 0.422550 0.367550 1.014733
P2    P     P_3+3 0.670460 0.710570 0.550500 0.973697
P3    P     P_3+3 0.139315 0.780330 0.428695 0.931413
P4    P     P_3+3 0.133720 0.577520 0.632450 0.990102
P5    P     P_3+3 0.056694 0.217988 0.569537 0.957988
P6    P     P_3+3 0.666626 0.611519 0.321790 0.949360
P7    P     P_3+3 0.524984 0.277488 0.444565 0.959606
P8    P     P_3+3 0.533370 0.386958 0.677584 0.939635

loop_
_geom_bond_atom_site_label_1
_geom_bond_atom_site_label_2
_ccdc_geom_bond_type
Ba2   P4    S    
C34   H13   S    
C40   H12   S    
Ba2   O25   S    
C32   C50   A    
C38   C39   A    
C11   C15   A    
O19   P2    D    
Ba1   O27   S    
C32   C33   A    
C54   H5    S    
C46   H43   S    
C17   N2    Am   
C27   P1    S    
C44   C46   A    
C42   C43   A    
Ba2   O27   S    
C28   C40   S    
C41   P7    S    
C45   H18   S    
C25   C26   A    
C6    C13   A    
C56   H22   S    
C2    C8    A    
C55   H21   S    
C2    C3    A    
Br1   C51   S    
C12   H7    S    
O1    P1    D    
C53   C54   S    
C5    C6    A    
Ba1   Ba2   S    
Ba1   O1    S    
C42   C44   A    
C45   H17   S    
C28   O26   S    
C16   H16   S    
Ba1   O4    S    
O26   P4    S    
Ba1   O24   S    
C41   C50   A    
C13   C14   A    
C44   H44   S    
C5    N1    Am   
C40   H34   S    
C28   H51   S    
C33   C43   A    
C39   H46   S    
C3    N1    Am   
C55   H19   S    
O27   P7    S    
C16   H48   S    
C34   H14   S    
C56   C57   S    
C19   H36   S    
O6    P7    D    
C40   H23   S    
C58   H38   S    
O15   P6    S    
C32   P5    S    
C54   H6    S    
Ba1   O15   S    
O9    P8    S    
C1    H8    S    
O18   P6    S    
C57   H26   S    
O7    P7    S    
O23   P4    D    
C14   C15   A    
Ba2   O4    S    
O20   P3    S    
C26   C58   A    
C31   H40   S    
C4    H39   S    
C51   H45   S    
O12   P2    S    
C33   C37   A    
C21   C22   D    
C35   C38   A    
C7    C11   A    
C55   H20   S    
C45   O3    S    
C57   H25   S    
C49   P3    S    
O25   P8    S    
C35   C48   A    
C52   H52   S    
C57   H28   S    
C43   C48   A    
O21   P3    D    
C21   C31   D    
O3    P5    S    
C25   H32   S    
C23   O7    S    
Ba1   O5    S    
C18   O14   D    
C18   N2    Am   
C47   C49   A    
C4    H27   S    
C20   C31   S    
O16   P6    D    
C47   C48   A    
C53   H55   S    
C53   H2    S    
C10   C18   A    
O4    P1    S    
C9    C10   A    
C27   C58   A    
C21   P4    S    
C13   H30   S    
O8    P8    D    
C8    H33   S    
C25   C30   A    
O17   P1    S    
C19   C24   D    
Ba2   O24   S    
Ba1   P1    S    
C22   C24   S    
C17   O13   D    
C36   C37   A    
Ba1   O19   S    
C41   C42   A    
C36   H41   S    
C6    C7    A    
C16   H49   S    
C51   C52   S    
O2    P5    D    
C9    H31   S    
C14   H29   S    
C54   H4    S    
C8    C9    A    
C23   C34   S    
C45   C55   S    
C12   O18   S    
C52   H53   S    
Ba2   O6    S    
Ba2   O28   S    
C1    H3    S    
C4    C16   S    
C29   C30   A    
O24   P4    S    
C1    C12   S    
C3    O10   D    
C2    C7    A    
C34   H11   S    
C37   H42   S    
C27   C29   A    
C52   H54   S    
C50   H47   S    
C35   C36   A    
C38   P2    S    
C23   H10   S    
C23   H9    S    
C51   O17   S    
O22   P3    S    
C12   H1    S    
C29   H37   S    
C15   C17   A    
C53   O12   S    
C1    H15   S    
O28   P5    S    
C4    O22   S    
C30   N2    S    
O5    P2    S    
C22   H35   S    
C46   C47   A    
C20   P8    S    
C5    O11   D    
Ba2   O23   S    
C28   H50   S    
C19   C20   S    
Ba1   P2    S    
C24   N1    S    
C10   C11   A    
C56   O9    S    
C56   H24   S    
Ba2   O5    S    
Ba1   O20   S    
C39   C49   A    
C26   P6    S    
