data_mof_unit_36465.cif
_audit_creation_date              2012-12-11T21:09:31-0500
_audit_creation_method            fapswitch 2.2
_symmetry_space_group_name_H-M    P1
_symmetry_Int_Tables_number       1
_space_group_crystal_system       triclinic
_cell_length_a                    8.303646
_cell_length_b                    19.147133
_cell_length_c                    26.895998
_cell_angle_alpha                 99.347676
_cell_angle_beta                  92.775881
_cell_angle_gamma                 87.971677
_cell_volume                      4212.84238161

loop_
_atom_site_label
_atom_site_type_symbol
_atom_type_description
_atom_site_fract_x
_atom_site_fract_y
_atom_site_fract_z
_atom_type_partial_charge
Ba1   Ba    Ba6+2 0.160260 0.465850 0.521400 1.645703
Ba2   Ba    Ba6+2 0.649930 0.534160 0.478640 1.643302
C1    C     C_3   0.375746 0.312777 0.708284 -0.226729
C2    C     C_3   0.415055 0.325919 0.655986 0.295591
C3    C     C_3   0.467426 0.317254 0.398330 0.307922
C4    C     C_3   0.470257 0.237275 0.382846 -0.386481
C5    C     C_3   0.858415 0.717433 0.372857 0.354584
C6    C     C_3   0.846948 0.789331 0.355589 -0.360486
C7    C     C_3   0.364641 0.700126 0.346849 0.303599
C8    C     C_3   0.416747 0.713922 0.296018 -0.356692
C9    C     C_R   0.955675 0.801721 0.523479 -0.148349
C10   C     C_R   0.990034 0.727583 0.516635 0.056448
C11   C     C_R   0.128622 0.811028 0.455530 -0.156142
C12   C     C_3   0.894971 0.286128 0.644042 0.806344
C13   C     C_R   0.197909 0.745068 0.461442 0.002810
C14   C     C_R   0.674456 0.185165 0.537887 -0.144883
C15   C     C_R   0.611207 0.253420 0.536173 0.040503
C16   C     C_R   0.841862 0.197948 0.469556 -0.155025
C17   C     C_R   0.815285 0.272221 0.480556 0.055902
C18   C     C_R   0.015219 0.845323 0.489772 0.000992
C19   C     C_R   0.117498 0.701037 0.487218 -0.245504
C20   C     C_R   0.784044 0.152326 0.501743 -0.014679
C21   C     C_R   0.691482 0.298559 0.511419 -0.254858
C22   C     C_R   0.216203 0.963674 0.460974 -0.081542
C23   C     C_3   0.003960 0.242169 0.606258 -0.319777
C24   C     C_R   0.305309 0.014690 0.444229 -0.079448
C25   C     C_R   0.259456 0.084972 0.456422 -0.066601
C26   C     C_R   0.118366 0.102585 0.481467 -0.076924
C27   C     C_R   0.003713 0.051585 0.485712 0.020334
C28   C     C_R   0.058096 0.978376 0.478550 0.038870
C29   C     C_R   0.842774 0.073596 0.499257 -0.009224
C30   C     C_R   0.740740 0.018950 0.509250 0.037142
C31   C     C_R   0.795327 0.945959 0.502170 0.014168
C32   C     C_R   0.956685 0.923880 0.489638 -0.014418
C33   C     C_R   0.581035 0.033477 0.525358 -0.059558
C34   C     C_3   0.825950 0.631107 0.635073 0.301930
C35   C     C_R   0.491182 0.982456 0.541704 -0.056305
C36   C     C_R   0.537789 0.912244 0.529593 -0.066856
C37   C     C_R   0.680270 0.894887 0.505038 -0.079641
C38   C     C_R   0.284798 0.449463 0.173375 0.588149
C39   C     C_R   0.181765 0.568636 0.176534 0.581855
C40   C     C_2   0.029490 0.526014 0.269115 -0.068114
C41   C     C_3   0.994706 0.519450 0.323041 -0.055054
C42   C     C_1   0.279276 0.492435 0.336367 0.014696
C43   C     C_2   0.313269 0.495381 0.289256 -0.095829
C44   C     C_2   0.181122 0.512141 0.252532 0.209668
C45   C     C_3   0.800337 0.659362 0.690477 -0.358991
C46   C     C_R   0.296576 0.506837 0.099012 -0.078686
C47   C     C_R   0.327297 0.447277 0.123012 -0.033445
C48   C     C_R   0.400200 0.386606 0.096322 -0.059741
C49   C     C_R   0.222084 0.567732 0.125986 -0.030910
C50   C     C_2   0.148222 0.524264 0.355853 -0.287097
C51   C     C_2   0.646369 0.475750 0.640054 -0.281696
C52   C     C_R   0.460014 0.442134 0.970741 0.020075
C53   C     C_R   0.353837 0.564772 0.973572 0.020399
C54   C     C_R   0.429186 0.502810 0.947064 0.051530
C55   C     C_R   0.535346 0.381929 0.942563 -0.096186
C56   C     C_3   0.981508 0.370505 0.365099 0.301003
C57   C     C_R   0.578453 0.381274 0.893262 -0.045691
C58   C     C_R   0.548983 0.440512 0.869541 -0.039056
C59   C     C_R   0.474436 0.501467 0.896255 -0.077723
C60   C     C_R   0.445503 0.561051 0.872159 -0.033356
C61   C     C_R   0.491254 0.558854 0.821955 0.592372
C62   C     C_R   0.592078 0.439596 0.819395 0.584831
C63   C     C_2   0.754640 0.476578 0.728203 -0.059407
C64   C     C_3   0.794987 0.480564 0.674408 -0.059833
C65   C     C_1   0.517092 0.511166 0.657518 0.035289
C66   C     C_2   0.478664 0.514160 0.705166 -0.117204
C67   C     C_3   0.011961 0.341908 0.310018 -0.361665
C68   C     C_2   0.603578 0.495679 0.743592 0.193462
C69   C     C_R   0.415390 0.443454 0.021468 0.021129
C70   C     C_R   0.340303 0.505434 0.048049 0.050020
C71   C     C_R   0.308638 0.566012 0.024322 0.020831
C72   C     C_R   0.443305 0.384600 0.046863 -0.097002
C73   C     C_R   0.190454 0.626699 0.102073 -0.061495
C74   C     C_R   0.326937 0.623660 0.948117 -0.098491
C75   C     C_R   0.371794 0.621711 0.898717 -0.058754
C76   C     C_R   0.232371 0.625986 0.052531 -0.098566
C77   C     C_3   0.333550 0.681636 0.589798 0.309841
C78   C     C_3   0.332799 0.761787 0.604374 -0.370305
H1    H     H_    0.339593 0.371503 0.647293 0.080338
H2    H     H_    0.727391 0.709550 0.693992 0.145491
H3    H     H_    0.735007 0.621020 0.708075 0.077694
H4    H     H_    0.918569 0.669465 0.711054 0.125731
H5    H     H_    0.097243 0.387259 0.384719 0.026114
H6    H     H_    0.894729 0.416158 0.367525 0.035464
H7    H     H_    0.089382 0.293042 0.307387 0.146708
H8    H     H_    0.074336 0.380984 0.292287 0.082414
H9    H     H_    0.895653 0.329313 0.288857 0.118875
H10   H     H_    0.209052 0.664629 0.579773 0.004600
H11   H     H_    0.410207 0.666752 0.556837 0.080080
H12   H     H_    0.387294 0.362548 0.735624 0.083840
H13   H     H_    0.253226 0.778613 0.636425 0.133882
H14   H     H_    0.287693 0.787167 0.571972 0.057391
H15   H     H_    0.457146 0.779647 0.615465 0.128400
H16   H     H_    0.544022 0.339120 0.656463 0.017735
H17   H     H_    0.459060 0.271615 0.720403 0.202046
H18   H     H_    0.592844 0.334375 0.408040 0.020302
H19   H     H_    0.393511 0.330468 0.432097 0.066339
H20   H     H_    0.546456 0.221768 0.349814 0.134181
H21   H     H_    0.520748 0.211593 0.414557 0.054607
H22   H     H_    0.345813 0.218693 0.372922 0.122592
H23   H     H_    0.250645 0.294426 0.708227 0.162134
H24   H     H_    0.947039 0.192308 0.589045 0.058964
H25   H     H_    0.764560 0.716114 0.400726 0.101562
H26   H     H_    0.979055 0.710269 0.390564 -0.046464
H27   H     H_    0.729999 0.795591 0.334751 0.141363
H28   H     H_    0.854498 0.832168 0.388694 0.070572
H29   H     H_    0.947066 0.794294 0.330569 0.120017
H30   H     H_    0.236288 0.717865 0.350917 -0.019691
H31   H     H_    0.376443 0.642189 0.347267 0.049555
H32   H     H_    0.337852 0.685365 0.265502 0.128488
H33   H     H_    0.543102 0.694776 0.290028 0.156059
H34   H     H_    0.787444 0.306282 0.624093 -0.210223
H35   H     H_    0.407512 0.771501 0.294327 0.115153
H36   H     H_    0.876364 0.823653 0.553117 0.079892
H37   H     H_    0.162350 0.833177 0.423261 0.065424
H38   H     H_    0.638222 0.159522 0.568146 0.134176
H39   H     H_    0.915912 0.177332 0.438229 0.073174
H40   H     H_    0.160454 0.646926 0.486679 0.059849
H41   H     H_    0.652680 0.353569 0.514415 0.067084
H42   H     H_    0.282806 0.915661 0.463036 0.074823
H43   H     H_    0.421548 0.000628 0.428236 0.078134
H44   H     H_    0.339096 0.125830 0.449960 0.085573
H45   H     H_    0.099885 0.156658 0.497671 0.131048
H46   H     H_    0.515034 0.081566 0.522478 0.070763
H47   H     H_    0.374095 0.996381 0.557124 0.087293
H48   H     H_    0.457306 0.871642 0.535748 0.097739
H49   H     H_    0.701474 0.841309 0.487864 0.127826
H50   H     H_    0.435388 0.484698 0.276872 0.112913
H51   H     H_    0.425123 0.339932 0.113747 0.125082
H52   H     H_    0.849822 0.465116 0.755061 0.117358
H53   H     H_    0.635599 0.333563 0.873651 0.144728
H54   H     H_    0.563561 0.333730 0.957214 0.076404
H55   H     H_    0.031817 0.272624 0.576264 0.115397
H56   H     H_    0.498769 0.335488 0.029855 0.073637
H57   H     H_    0.930363 0.535294 0.242945 0.100345
H58   H     H_    0.132925 0.674249 0.121755 0.122095
H59   H     H_    0.271476 0.672776 0.965167 0.071785
H60   H     H_    0.348002 0.668443 0.881278 0.125733
H61   H     H_    0.357105 0.529285 0.716503 0.131389
H62   H     H_    0.202660 0.673896 0.037644 0.070648
H63   H     H_    0.150601 0.552147 0.394416 0.066504
H64   H     H_    0.640791 0.439281 0.604640 0.061063
H65   H     H_    0.116124 0.226598 0.625856 0.160915
H66   H     H_    0.707533 0.616775 0.616265 0.023352
H67   H     H_    0.908463 0.583901 0.631795 0.039108
N1    N     N_R   0.215076 0.510089 0.199838 -0.426969
N2    N     N_R   0.562518 0.498192 0.795896 -0.429888
O1    O     O_2   0.103290 0.325410 0.465600 -0.472358
O2    O     O_3   0.392989 0.650983 0.631012 -0.624552
O3    O     O_3   0.983874 0.340609 0.672986 -0.605069
O4    O     O_2   0.707020 0.674640 0.534420 -0.466251
O5    O     O_3   0.952550 0.585840 0.530020 -0.486115
O6    O     O_3   0.436140 0.628890 0.444040 -0.463672
O7    O     O_3   0.895924 0.684090 0.614095 -0.630727
O8    O     O_3   0.350480 0.462320 0.439870 -0.480941
O9    O     O_3   0.840680 0.592440 0.417430 -0.489270
O10   O     O_2   0.664898 0.556176 0.332517 -0.484770
O11   O     O_3   0.837211 0.664361 0.330936 -0.595322
O12   O     O_3   0.857760 0.414170 0.470020 -0.481400
O13   O     O_3   0.459840 0.537690 0.560170 -0.492292
O14   O     O_2   0.582520 0.462630 0.379680 -0.457671
O15   O     O_3   0.401286 0.349170 0.358173 -0.632173
O16   O     O_2   0.523995 0.753051 0.483328 -0.508228
O17   O     O_3   0.462980 0.737757 0.385335 -0.600704
O18   O     O_2   0.308701 0.397064 0.193622 -0.595751
O19   O     O_2   0.654531 0.386113 0.796403 -0.545891
O20   O     O_2   0.118626 0.621798 0.199958 -0.601452
O21   O     O_2   0.469253 0.611271 0.801650 -0.592883
O22   O     O_3   0.374170 0.371120 0.556000 -0.487395
O23   O     O_2   0.283256 0.242898 0.525463 -0.513350
O24   O     O_3   0.915105 0.316625 0.385926 -0.635505
O25   O     O_3   0.382351 0.265052 0.620749 -0.584527
O26   O     O_2   0.227790 0.537410 0.620340 -0.456235
O27   O     O_3   0.969630 0.407570 0.582610 -0.489188
O28   O     O_2   0.119328 0.456213 0.669818 -0.495989
P1    P     P_3+3 0.926760 0.336170 0.451740 0.980093
P2    P     P_3+3 0.399470 0.558680 0.614150 0.993327
P3    P     P_3+3 0.961645 0.420336 0.648798 0.951137
P4    P     P_3+3 0.883550 0.663840 0.548300 0.985364
P5    P     P_3+3 0.834683 0.582062 0.351278 0.970045
P6    P     P_3+3 0.414313 0.282707 0.560272 0.939169
P7    P     P_3+3 0.400636 0.441185 0.376677 0.961421
P8    P     P_3+3 0.402763 0.718043 0.442674 0.919435
S1    S     S_3+6 0.828801 0.230412 0.686035 -0.051796
O29   O     O_2   0.778336 0.275301 0.734019 -0.208108
O30   O     O_2   0.687749 0.188190 0.662473 -0.340367
O31   O     O_3   0.979721 0.174958 0.700162 -0.488505
H68   H     H_    0.975091 0.133810 0.672602 0.334882

loop_
_geom_bond_atom_site_label_1
_geom_bond_atom_site_label_2
_ccdc_geom_bond_type
C7    H31   S    
C53   C54   A    
C56   H5    S    
Ba1   O27   S    
Ba2   O6    S    
O17   P8    S    
C60   C75   A    
C75   H60   S    
Ba2   O13   S    
C5    C6    S    
C21   H41   S    
C43   C44   S    
C42   C43   D    
O27   P3    S    
C13   P8    S    
Ba1   O26   S    
C24   C25   A    
C31   C37   A    
O22   P6    S    
C26   C27   A    
C33   C35   A    
C35   C36   A    
C22   C24   A    
Ba1   Ba2   S    
C19   H40   S    
C76   H62   S    
C36   C37   A    
C12   S1    S    
C41   C50   S    
C45   H2    S    
C38   C47   A    
O12   P1    S    
O5    P4    S    
C56   H6    S    
C34   C45   S    
C16   C17   A    
C40   C44   D    
C4    H21   S    
C15   P6    S    
C61   N2    Am   
C38   O18   D    
C2    H16   S    
C46   C49   A    
C44   N1    S    
C52   C69   A    
C3    H19   S    
C14   C15   A    
C77   H10   S    
C72   H56   S    
C71   C76   A    
C5    H25   S    
C8    H32   S    
O8    P7    S    
C45   H3    S    
C7    C8    S    
C42   P7    S    
C77   H11   S    
C67   H7    S    
O1    P1    D    
C18   C32   S    
C42   C50   D    
Ba1   O12   S    
C57   C58   A    
Ba2   O5    S    
C2    O25   S    
C40   H57   S    
C67   H8    S    
Ba1   O5    S    
C68   N2    S    
C46   C70   A    
C67   H9    S    
C6    H28   S    
Ba2   O12   S    
O11   P5    S    
C52   C54   A    
C9    C18   A    
C50   H63   S    
C20   C29   S    
C38   N1    Am   
C65   C66   D    
C30   C33   A    
C66   H61   S    
C74   C75   A    
O6    P8    S    
C28   C32   A    
C61   O21   D    
O26   P2    D    
C5    O11   S    
C37   H49   S    
C12   H34   S    
C64   P3    S    
C10   C19   A    
Ba1   O22   S    
O31   H68   S    
O16   P8    D    
C1    H12   S    
Ba2   P4    S    
C4    H20   S    
O3    P3    S    
C33   H46   S    
C17   C21   A    
C3    O15   S    
C27   C28   A    
O15   P7    S    
C14   H38   S    
Ba1   P1    S    
C1    H17   S    
C34   H67   S    
O2    P2    S    
C10   P4    S    
C13   C19   A    
Ba2   O9    S    
O28   P3    D    
C60   C61   A    
C22   H42   S    
C31   C32   A    
C5    H26   S    
Ba1   O1    S    
C56   C67   S    
C15   C21   A    
C45   H4    S    
C78   H15   S    
C51   C64   S    
O9    P5    S    
C17   P1    S    
O13   P2    S    
C8    H33   S    
C53   C74   A    
C34   H66   S    
C46   C47   A    
O4    P4    D    
Ba1   O13   S    
C47   C48   A    
Ba2   O4    S    
C11   C13   A    
C55   H54   S    
C56   O24   S    
C24   H43   S    
S1    O30   D    
C1    C2    S    
C6    H27   S    
C25   C26   A    
C63   H52   S    
C26   H45   S    
C34   O7    S    
C77   O2    S    
C74   H59   S    
C1    H23   S    
C7    H30   S    
C7    O17   S    
C14   C20   A    
C11   C18   A    
O14   P7    D    
C16   C20   A    
C29   C30   A    
C49   C73   A    
C70   C71   A    
C73   H58   S    
Ba2   O14   S    
C69   C72   A    
C36   H48   S    
C25   H44   S    
C23   H24   S    
C41   P5    S    
C9    H36   S    
C62   N2    Am   
C58   C62   A    
C51   H64   S    
C30   C31   A    
S1    O31   S    
Ba1   O8    S    
C78   H13   S    
C9    C10   A    
C69   C70   A    
C27   C29   A    
C65   P2    S    
C12   C23   S    
Ba1   P2    S    
O23   P6    D    
C48   C72   A    
C3    C4    S    
C39   N1    Am   
C39   O20   D    
O24   P1    S    
Ba2   O8    S    
C2    H1    S    
C57   H53   S    
C4    H22   S    
O10   P5    D    
C59   C60   A    
C51   C65   D    
C73   C76   A    
C22   C28   A    
C55   C57   A    
C48   H51   S    
C77   C78   S    
C53   C71   A    
C43   H50   S    
C3    H18   S    
C62   O19   D    
C63   C64   S    
C40   C41   S    
C23   H55   S    
C12   O3    S    
C11   H37   S    
C66   C68   S    
C54   C59   A    
C58   C59   A    
C23   H65   S    
S1    O29   D    
C6    H29   S    
O25   P6    S    
C78   H14   S    
C16   H39   S    
C39   C49   A    
C8    H35   S    
C63   C68   D    
O7    P4    S    
C35   H47   S    
C52   C55   A    
