data_mof_unit_10198.cif
_audit_creation_date              2012-12-10T16:57:05-0500
_audit_creation_method            fapswitch 2.2
_symmetry_space_group_name_H-M    P1
_symmetry_Int_Tables_number       1
_space_group_crystal_system       triclinic
_cell_length_a                    7.789326
_cell_length_b                    8.57442
_cell_length_c                    16.587468
_cell_angle_alpha                 92.070666
_cell_angle_beta                  79.763366
_cell_angle_gamma                 93.874503
_cell_volume                      1087.40476463

loop_
_atom_site_label
_atom_site_type_symbol
_atom_type_description
_atom_site_fract_x
_atom_site_fract_y
_atom_site_fract_z
_atom_type_partial_charge
C1    C     C_R   0.546263 0.794792 0.497880 0.960569
C2    C     C_R   0.453754 0.205201 0.502043 0.967237
C3    C     C_2   0.570578 0.958337 0.496577 -0.385279
C4    C     C_2   0.429473 0.041625 0.503196 -0.384977
C5    C     C_R   0.476786 0.506907 0.654479 0.855103
C6    C     C_R   0.525066 0.502257 0.345705 0.840908
C7    C     C_R   0.468288 0.548115 0.740341 -0.025416
C8    C     C_R   0.552571 0.548122 0.261486 -0.005209
C9    C     C_R   0.578447 0.481342 0.785129 -0.207067
C10   C     C_R   0.459583 0.471414 0.205895 -0.216241
C11   C     C_R   0.585329 0.535782 0.864158 -0.149119
C12   C     C_R   0.489065 0.519818 0.125451 -0.123610
C13   C     C_R   0.488372 0.662943 0.897793 0.136857
C14   C     C_R   0.606598 0.648721 0.101398 0.098010
C15   C     C_R   0.374370 0.726432 0.853425 -0.170364
C16   C     C_R   0.697307 0.726661 0.157736 -0.202349
C17   C     C_R   0.363532 0.668651 0.775075 -0.205866
C18   C     C_R   0.671896 0.675090 0.237509 -0.177840
C19   C     C_2   0.489396 0.716526 0.982787 0.364133
C20   C     C_2   0.633209 0.699126 0.015831 0.327534
H1    H     H_    0.658619 0.387332 0.758997 0.148606
H2    H     H_    0.367328 0.373494 0.224364 0.128749
H3    H     H_    0.742386 0.736187 0.281152 0.144974
H4    H     H_    0.278735 0.722334 0.740412 0.159205
H5    H     H_    0.294623 0.820906 0.879160 0.162990
H6    H     H_    0.786536 0.826932 0.140022 0.144053
H7    H     H_    0.419945 0.457223 0.081785 0.135607
H8    H     H_    0.665047 0.476659 0.899001 0.144227
H9    H     H_    0.703725 0.009657 0.490231 0.179786
H10   H     H_    0.296330 0.990294 0.509524 0.180431
H11   H     H_    0.022873 0.379483 0.439158 0.189505
H12   H     H_    0.977126 0.620507 0.560850 0.192513
N1    N     N_2   0.953500 0.457650 0.478520 -0.171347
N2    N     N_2   0.046500 0.542350 0.521480 -0.171259
O1    O     O_R   0.388470 0.738640 0.505270 -0.611139
O2    O     O_R   0.611530 0.261360 0.494730 -0.610109
O3    O     O_R   0.679650 0.711510 0.491500 -0.629835
O4    O     O_R   0.320350 0.288490 0.508500 -0.626402
O5    O     O_R   0.337210 0.515200 0.623500 -0.615530
O6    O     O_R   0.662790 0.484800 0.376500 -0.614120
O7    O     O_R   0.628380 0.488060 0.609730 -0.616610
O8    O     O_R   0.371620 0.511940 0.390270 -0.614050
Zn1   Zn    Zn3+2 0.305580 0.518120 0.509190 0.942713
Zn2   Zn    Zn3+2 0.694420 0.481880 0.490810 0.941466
O9    O     O_3   0.797769 0.717208 0.965929 -0.637158
C21   C     C_3   0.918851 0.618143 0.987863 -0.276705
H13   H     H_    0.860833 0.497532 0.001115 0.137292
H14   H     H_    0.975252 0.669029 0.040515 0.217450
H15   H     H_    0.027961 0.608327 0.935386 0.211351
O10   O     O_3   0.328122 0.735877 0.032120 -0.644345
C22   C     C_3   0.322728 0.892192 0.061482 -0.345369
H16   H     H_    0.347581 0.975711 0.010214 0.158802
H17   H     H_    0.416981 0.918924 0.103920 0.172523
H18   H     H_    0.189890 0.909658 0.096432 0.194719

loop_
_geom_bond_atom_site_label_1
_geom_bond_atom_site_label_2
_ccdc_geom_bond_type
C2    C4    S    
H11   N1    S    
C15   C17   A    
C14   C20   S    
O1    Zn1   S    
C2    O4    A    
O6    Zn2   S    
C19   C20   D    
C21   H15   S    
C1    O3    A    
C22   H18   S    
O3    Zn2   S    
C5    O5    A    
N1    N2    D    
C4    H10   S    
O4    Zn1   S    
C16   C18   A    
O9    C21   S    
C10   H2    S    
C9    C11   A    
C19   O10   S    
C9    H1    S    
C10   C12   A    
C11   H8    S    
C8    C10   A    
C12   C14   A    
O10   C22   S    
C21   H14   S    
C13   C15   A    
C16   H6    S    
O7    Zn2   S    
C14   C16   A    
C15   H5    S    
C17   H4    S    
O2    Zn2   S    
O8    Zn1   S    
C13   C19   S    
C12   H7    S    
C3    C4    D    
C7    C9    A    
C11   C13   A    
C6    O6    A    
C22   H16   S    
C22   H17   S    
C1    O1    A    
C3    H9    S    
C6    O8    A    
C20   O9    S    
C2    O2    A    
C5    C7    S    
C5    O7    A    
C21   H13   S    
C6    C8    S    
C1    C3    S    
O5    Zn1   S    
N1    Zn2   S    
C8    C18   A    
N2    Zn1   S    
C18   H3    S    
C7    C17   A    
H12   N2    S    
