data_mof_unit_5961.cif
_audit_creation_date              2012-10-26T20:51:13-0400
_audit_creation_method            fapswitch 2.2
_symmetry_space_group_name_H-M    P1
_symmetry_Int_Tables_number       1
_space_group_crystal_system       triclinic
_cell_length_a                    13.004767
_cell_length_b                    10.829282
_cell_length_c                    9.53926
_cell_angle_alpha                 90.745516
_cell_angle_beta                  95.973339
_cell_angle_gamma                 90.237615
_cell_volume                      1336.0079933

loop_
_atom_site_label
_atom_site_type_symbol
_atom_type_description
_atom_site_fract_x
_atom_site_fract_y
_atom_site_fract_z
_atom_type_partial_charge
C1    C     C_R   0.492952 0.262513 0.497850 0.534910
C2    C     C_R   0.452525 0.930970 0.372326 -0.125487
C3    C     C_R   0.483542 0.870613 0.499324 -0.023474
C4    C     C_R   0.300523 0.499545 0.473835 0.543555
C5    C     C_R   0.491501 0.939481 0.624311 0.025204
C6    C     C_3   0.571241 0.939622 0.748922 -0.269626
C7    C     C_3   0.570157 0.079566 0.743726 -0.247461
C8    C     C_R   0.588063 0.527561 0.086591 0.163079
C9    C     C_R   0.416249 0.460086 0.061924 -0.003900
C10   C     C_R   0.416214 0.460142 0.913203 0.000661
C11   C     C_R   0.588456 0.526171 0.939214 0.156858
C12   C     C_R   0.027950 0.497154 0.567571 0.049596
C13   C     C_3   0.649918 0.642601 0.943082 -0.278973
C14   C     C_3   0.647933 0.645484 0.101835 -0.272180
C15   C     C_R   0.497476 0.737795 0.500367 0.549506
C16   C     C_R   0.699487 0.499083 0.526142 0.549301
C17   C     C_R   0.812263 0.497193 0.541190 -0.000021
C18   C     C_R   0.187783 0.498259 0.458741 0.002549
C19   C     C_R   0.024533 0.495188 0.311447 -0.135642
C20   C     C_R   0.132004 0.496514 0.324568 -0.134765
C21   C     C_R   0.135329 0.498364 0.579813 -0.125453
C22   C     C_2   0.405660 0.119230 0.233843 0.236290
C23   C     C_R   0.972134 0.495707 0.432353 0.048325
C24   C     C_R   0.864751 0.495189 0.420163 -0.129143
C25   C     C_R   0.868085 0.497239 0.675289 -0.137564
C26   C     C_R   0.975538 0.497375 0.688439 -0.135843
C27   C     C_R   0.489782 0.066075 0.621007 0.018918
C28   C     C_R   0.476101 0.129412 0.494162 -0.032148
C29   C     C_R   0.445643 0.060523 0.368398 -0.014116
Cu1   Cu    Cu3+1 0.499990 0.499980 0.640670 0.944687
Cu2   Cu    Cu3+1 0.500010 0.500020 0.359330 0.939441
H1    H     H_    0.822354 0.493205 0.316203 0.115929
H2    H     H_    0.602220 0.723399 0.139702 0.158694
H3    H     H_    0.828913 0.497044 0.769938 0.121989
H4    H     H_    0.982515 0.494050 0.207155 0.100167
H5    H     H_    0.017524 0.497878 0.792742 0.100786
H6    H     H_    0.171275 0.496208 0.229861 0.121731
H7    H     H_    0.177784 0.499578 0.683869 0.114865
H8    H     H_    0.434731 0.877391 0.276036 0.177775
H9    H     H_    0.539151 0.905017 0.844515 0.157420
H10   H     H_    0.370146 0.209573 0.233689 0.126168
H11   H     H_    0.645783 0.898326 0.725283 0.129862
H12   H     H_    0.539137 0.123427 0.836492 0.177391
H13   H     H_    0.643595 0.120026 0.714483 0.138578
H14   H     H_    0.347908 0.429191 0.106987 0.106424
H15   H     H_    0.347830 0.429071 0.848117 0.117804
H16   H     H_    0.728521 0.628014 0.910505 0.117271
H17   H     H_    0.606132 0.718289 0.888804 0.148718
H18   H     H_    0.725648 0.633793 0.160100 0.120289
N1    N     N_R   0.500660 0.500930 0.148010 -0.231656
N2    N     N_R   0.500660 0.500890 0.852110 -0.232720
O1    O     O_R   0.500000 0.319640 0.618810 -0.492893
O2    O     O_R   0.500010 0.319680 0.381230 -0.510788
O3    O     O_R   0.348990 0.499960 0.599490 -0.515131
O4    O     O_R   0.349000 0.500000 0.361910 -0.520931
O5    O     O_R   0.499990 0.680320 0.618770 -0.492946
O6    O     O_R   0.500000 0.680360 0.381190 -0.508443
O7    O     O_R   0.651000 0.500000 0.638090 -0.505878
O8    O     O_R   0.651010 0.500040 0.400510 -0.502524
O9    O     O_2   0.409497 0.065649 0.121046 -0.535033

loop_
_geom_bond_atom_site_label_1
_geom_bond_atom_site_label_2
_ccdc_geom_bond_type
C10   H15   S    
C13   H17   S    
C19   C23   A    
C23   C24   A    
C24   H1    S    
C9    H14   S    
C6    C7    S    
C22   C29   S    
C7    H12   S    
C1    C28   S    
C18   C21   A    
Cu1   O3    S    
C9    C10   A    
C7    C27   S    
C19   C20   A    
C5    C27   A    
C25   H3    S    
Cu1   N2    S    
C4    C18   S    
C15   O5    A    
Cu2   O6    S    
C14   H2    S    
C2    C3    A    
C17   C25   A    
C16   O7    A    
C13   C14   S    
Cu2   O2    S    
C20   H6    S    
C15   O6    A    
C12   C23   A    
Cu1   Cu2   S    
C12   C21   A    
C2    C29   A    
C10   N2    A    
Cu1   O7    S    
C26   H5    S    
C28   C29   A    
C19   H4    S    
C18   C20   A    
C8    C11   A    
C4    O4    A    
C22   O9    D    
C5    C6    S    
C1    O1    A    
C6    H9    S    
C22   H10   S    
C11   N2    A    
C21   H7    S    
Cu2   N1    S    
C17   C24   A    
C8    N1    A    
C11   C13   S    
C3    C15   S    
C14   H18   S    
C6    H11   S    
Cu2   O8    S    
C27   C28   A    
C13   H16   S    
C1    O2    A    
Cu1   O1    S    
C8    C14   S    
Cu2   O4    S    
C25   C26   A    
C4    O3    A    
Cu1   O5    S    
C2    H8    S    
C7    H13   S    
C9    N1    A    
C12   C26   A    
C16   C17   S    
C3    C5    A    
C16   O8    A    
