data_mof_unit_48540.cif
_audit_creation_date              2012-12-11T14:40:17-0500
_audit_creation_method            fapswitch 2.2
_symmetry_space_group_name_H-M    P1
_symmetry_Int_Tables_number       1
_space_group_crystal_system       triclinic
_cell_length_a                    19.732081
_cell_length_b                    10.890943
_cell_length_c                    19.495163
_cell_angle_alpha                 89.997734
_cell_angle_beta                  97.138613
_cell_angle_gamma                 89.604544
_cell_volume                      4156.9532172

loop_
_atom_site_label
_atom_site_type_symbol
_atom_type_description
_atom_site_fract_x
_atom_site_fract_y
_atom_site_fract_z
_atom_type_partial_charge
C1    C     C_R   0.724167 0.953800 0.361235 0.536274
C2    C     C_R   0.292648 0.999381 0.633479 0.552808
C3    C     C_R   0.224167 0.453800 0.361234 0.536275
C4    C     C_R   0.792648 0.499381 0.633479 0.552808
C5    C     C_3   0.725011 0.340388 0.488526 -0.129528
C6    C     C_3   0.221825 0.306696 0.515344 -0.124992
C7    C     C_3   0.225011 0.840389 0.488526 -0.129528
C8    C     C_3   0.721824 0.806696 0.515344 -0.124991
C9    C     C_3   0.753109 0.411807 0.430291 0.046917
C10   C     C_3   0.253283 0.402984 0.567368 0.057448
C11   C     C_3   0.253109 0.911807 0.430291 0.046917
C12   C     C_3   0.753283 0.902984 0.567368 0.057449
C13   C     C_3   0.733957 0.534553 0.459711 -0.140903
C14   C     C_3   0.311640 0.425052 0.523312 -0.096733
C15   C     C_3   0.233957 0.034553 0.459711 -0.140903
C16   C     C_3   0.811641 0.925049 0.523312 -0.096733
C17   C     C_3   0.806035 0.538477 0.502562 -0.162152
C18   C     C_3   0.267248 0.527681 0.485365 -0.120073
C19   C     C_3   0.306036 0.038477 0.502562 -0.162153
C20   C     C_3   0.767250 0.027680 0.485365 -0.120072
C21   C     C_3   0.825023 0.414859 0.471239 -0.115256
C22   C     C_3   0.209168 0.505070 0.531027 -0.147207
C23   C     C_3   0.325023 0.914859 0.471239 -0.115256
C24   C     C_3   0.709169 0.005071 0.531027 -0.147208
C25   C     C_3   0.796571 0.346072 0.529701 0.001022
C26   C     C_3   0.178614 0.409099 0.478810 -0.004494
C27   C     C_3   0.296571 0.846073 0.529701 0.001022
C28   C     C_3   0.678614 0.909102 0.478810 -0.004495
C29   C     C_3   0.777537 0.468218 0.560611 0.040797
C30   C     C_3   0.235878 0.430792 0.434170 0.038000
C31   C     C_3   0.277537 0.968219 0.560611 0.040796
C32   C     C_3   0.735877 0.930792 0.434170 0.038000
C33   C     C_3   0.520205 0.274065 0.968420 -0.120445
C34   C     C_3   0.479957 0.273887 0.031467 -0.119675
C35   C     C_3   0.020205 0.774065 0.968420 -0.120445
C36   C     C_3   0.979957 0.773887 0.031467 -0.119675
C37   C     C_3   0.567731 0.172727 0.001579 -0.029568
C38   C     C_3   0.433440 0.172280 0.998391 -0.028344
C39   C     C_3   0.067730 0.672727 0.001579 -0.029568
C40   C     C_3   0.933440 0.672280 0.998391 -0.028344
C41   C     C_3   0.528730 0.173089 0.064253 0.033514
C42   C     C_3   0.472414 0.172956 0.935709 0.033984
C43   C     C_3   0.028730 0.673089 0.064253 0.033513
C44   C     C_3   0.972414 0.672956 0.935709 0.033984
C45   C     C_R   0.564670 0.183661 0.348285 0.555490
C46   C     C_R   0.465952 0.179794 0.662734 0.542809
C47   C     C_R   0.064670 0.683661 0.348285 0.555489
C48   C     C_R   0.965952 0.679794 0.662735 0.542808
C49   C     C_3   0.481345 0.071197 0.032085 -0.121546
C50   C     C_3   0.520801 0.071373 0.967911 -0.123218
C51   C     C_3   0.981345 0.571197 0.032085 -0.121546
C52   C     C_3   0.020801 0.571373 0.967911 -0.123218
C53   C     C_1   0.763203 0.425873 0.904523 0.019590
C54   C     C_1   0.236900 0.425702 0.095553 0.021412
C55   C     C_1   0.263203 0.925873 0.904523 0.019590
C56   C     C_1   0.736900 0.925701 0.095553 0.021412
C57   C     C_1   0.748900 0.412141 0.035589 0.017934
C58   C     C_1   0.250953 0.411448 0.964461 0.017061
C59   C     C_1   0.248900 0.912142 0.035589 0.017934
C60   C     C_1   0.750954 0.911447 0.964461 0.017061
C61   C     C_1   0.755086 0.417116 0.964424 0.017806
C62   C     C_1   0.244931 0.416615 0.035645 0.017631
C63   C     C_1   0.255086 0.917116 0.964424 0.017806
C64   C     C_1   0.744932 0.916615 0.035645 0.017631
C65   C     C_1   0.743741 0.398401 0.095896 0.020650
C66   C     C_1   0.256056 0.397741 0.904140 0.020528
C67   C     C_1   0.243741 0.898401 0.095896 0.020650
C68   C     C_1   0.756056 0.897740 0.904141 0.020527
C69   C     C_R   0.740281 0.365992 0.360514 0.541612
C70   C     C_R   0.260533 0.364914 0.638814 0.548825
C71   C     C_R   0.240281 0.865992 0.360514 0.541612
C72   C     C_R   0.760533 0.864914 0.638814 0.548825
C73   C     C_R   0.721819 0.952815 0.163669 0.539432
C74   C     C_R   0.278175 0.952615 0.836353 0.549923
C75   C     C_R   0.221818 0.452815 0.163669 0.539433
C76   C     C_R   0.778175 0.452615 0.836353 0.549923
C77   C     C_R   0.559200 0.181786 0.135531 0.562199
C78   C     C_R   0.441453 0.181983 0.864599 0.559310
C79   C     C_R   0.059200 0.681786 0.135531 0.562198
C80   C     C_R   0.941453 0.681983 0.864599 0.559310
C81   C     C_R   0.736117 0.361387 0.164725 0.543819
C82   C     C_R   0.263833 0.360894 0.835304 0.542941
C83   C     C_R   0.236117 0.861388 0.164726 0.543819
C84   C     C_R   0.763833 0.860894 0.835304 0.542941
C85   C     C_1   0.495818 0.171874 0.599584 -0.010794
C86   C     C_1   0.546675 0.177007 0.417143 -0.000564
C87   C     C_1   0.995819 0.671874 0.599584 -0.010794
C88   C     C_1   0.046676 0.677006 0.417143 -0.000565
C89   C     C_1   0.532666 0.172967 0.475486 -0.039801
C90   C     C_1   0.514877 0.170380 0.543274 -0.044990
C91   C     C_1   0.032666 0.672966 0.475487 -0.039802
C92   C     C_1   0.014878 0.670380 0.543274 -0.044990
C93   C     C_3   0.705821 0.464584 0.519332 -0.118024
C94   C     C_3   0.279778 0.329832 0.470413 -0.167802
C95   C     C_3   0.205822 0.964585 0.519332 -0.118024
C96   C     C_3   0.779776 0.829830 0.470413 -0.167803
Cr1   Cr    Cr6+3 0.765830 0.160660 0.268180 1.033738
Cr2   Cr    Cr6+3 0.234170 0.160660 0.731820 1.034079
Cr3   Cr    Cr6+3 0.265830 0.660660 0.268180 1.033737
Cr4   Cr    Cr6+3 0.734170 0.660660 0.731820 1.034079
Cr5   Cr    Cr6+3 0.612110 0.009150 0.248770 1.046931
Cr6   Cr    Cr6+3 0.387890 0.009150 0.751230 1.045422
Cr7   Cr    Cr6+3 0.112110 0.509150 0.248770 1.046931
Cr8   Cr    Cr6+3 0.887890 0.509150 0.751230 1.045421
Cr9   Cr    Cr6+3 0.615930 0.324050 0.248450 1.030846
Cr10  Cr    Cr6+3 0.384070 0.324050 0.751550 1.043114
Cr11  Cr    Cr6+3 0.115930 0.824050 0.248450 1.030846
Cr12  Cr    Cr6+3 0.884070 0.824050 0.751550 1.043114
H1    H     H_    0.690705 0.260028 0.480767 0.093682
H2    H     H_    0.199756 0.219380 0.530759 0.141064
H3    H     H_    0.190704 0.760029 0.480767 0.093682
H4    H     H_    0.699754 0.719381 0.530758 0.141064
O1    O     O_R   0.783230 0.287800 0.346510 -0.520758
O2    O     O_R   0.216770 0.287800 0.653490 -0.528199
O3    O     O_R   0.283230 0.787800 0.346510 -0.520758
O4    O     O_R   0.716770 0.787800 0.653490 -0.528199
O5    O     O_R   0.554500 0.081650 0.170370 -0.493078
O6    O     O_R   0.445500 0.081650 0.829630 -0.500037
O7    O     O_R   0.054500 0.581650 0.170370 -0.493079
O8    O     O_R   0.945500 0.581650 0.829630 -0.500038
O9    O     O_R   0.545430 0.285140 0.163100 -0.509684
O10   O     O_R   0.454570 0.285140 0.836900 -0.512915
O11   O     O_R   0.045430 0.785140 0.163100 -0.509684
O12   O     O_R   0.954570 0.785140 0.836900 -0.512915
O13   O     O_R   0.677850 0.374730 0.185500 -0.510500
O14   O     O_R   0.322150 0.374730 0.814500 -0.505678
O15   O     O_R   0.177850 0.874730 0.185500 -0.510500
O16   O     O_R   0.822150 0.874730 0.814500 -0.505678
O17   O     O_3   0.664630 0.164620 0.255130 -0.300911
O18   O     O_3   0.335370 0.164620 0.744870 -0.301233
O19   O     O_3   0.164630 0.664620 0.255130 -0.300912
O20   O     O_3   0.835370 0.664620 0.744870 -0.301233
O21   O     O_R   0.760130 0.037060 0.338610 -0.506737
O22   O     O_R   0.239870 0.037060 0.661390 -0.504018
O23   O     O_R   0.260130 0.537060 0.338610 -0.506737
O24   O     O_R   0.739870 0.537060 0.661390 -0.504018
O25   O     O_R   0.666620 0.921370 0.332440 -0.515212
O26   O     O_R   0.333380 0.921370 0.667560 -0.492644
O27   O     O_R   0.166620 0.421370 0.332440 -0.515212
O28   O     O_R   0.833380 0.421370 0.667560 -0.492644
O29   O     O_R   0.557170 0.082420 0.312350 -0.469581
O30   O     O_R   0.442830 0.082420 0.687650 -0.504086
O31   O     O_R   0.057170 0.582420 0.312350 -0.469581
O32   O     O_R   0.942830 0.582420 0.687650 -0.504085
O33   O     O_R   0.548310 0.285980 0.316250 -0.495724
O34   O     O_R   0.451690 0.285980 0.683750 -0.500394
O35   O     O_R   0.048310 0.785980 0.316250 -0.495723
O36   O     O_R   0.951690 0.785980 0.683750 -0.500394
O37   O     O_R   0.680520 0.375500 0.327470 -0.513862
O38   O     O_R   0.319480 0.375500 0.672530 -0.491704
O39   O     O_R   0.180520 0.875500 0.327470 -0.513861
O40   O     O_R   0.819480 0.875500 0.672530 -0.491703
O41   O     O_R   0.780350 0.286970 0.193350 -0.498190
O42   O     O_R   0.219650 0.286970 0.806650 -0.501000
O43   O     O_R   0.280350 0.786970 0.193350 -0.498190
O44   O     O_R   0.719650 0.786970 0.806650 -0.500999
O45   O     O_R   0.757460 0.036290 0.196640 -0.489471
O46   O     O_R   0.242540 0.036290 0.803360 -0.487365
O47   O     O_R   0.257460 0.536290 0.196640 -0.489471
O48   O     O_R   0.742540 0.536290 0.803360 -0.487365
O49   O     O_R   0.663740 0.920540 0.179290 -0.514200
O50   O     O_R   0.336260 0.920540 0.820710 -0.507452
O51   O     O_R   0.163740 0.420540 0.179290 -0.514201
O52   O     O_R   0.836260 0.420540 0.820710 -0.507452
H5    H     H_    0.657192 0.485247 0.540276 0.137601
H6    H     H_    0.307715 0.265208 0.439993 0.116641
H7    H     H_    0.157193 0.985248 0.540276 0.137601
H8    H     H_    0.807713 0.765206 0.439992 0.116641
H9    H     H_    0.707397 0.607328 0.426540 0.128563
H10   H     H_    0.366591 0.432135 0.543554 0.156258
H11   H     H_    0.207397 0.107328 0.426540 0.128564
H12   H     H_    0.866591 0.932130 0.543553 0.156257
H13   H     H_    0.342603 0.114788 0.513489 0.109612
H14   H     H_    0.786233 0.114619 0.465918 0.145057
H15   H     H_    0.842603 0.614788 0.513489 0.109612
H16   H     H_    0.286230 0.614621 0.465917 0.145056
H17   H     H_    0.873570 0.394363 0.450042 0.151972
H18   H     H_    0.181070 0.576146 0.557231 0.115146
H19   H     H_    0.373570 0.894363 0.450042 0.151972
H20   H     H_    0.681072 0.076148 0.557231 0.115146
C97   C     C_1   0.834589 0.247025 0.569107 0.222337
N1    N     N_1   0.865037 0.170447 0.600800 -0.289084
C98   C     C_1   0.105456 0.391656 0.456486 0.224587
N2    N     N_1   0.047874 0.376902 0.439018 -0.290878
C99   C     C_1   0.334589 0.747025 0.569107 0.222337
N3    N     N_1   0.365037 0.670447 0.600800 -0.289085
C100  C     C_1   0.605455 0.891662 0.456486 0.224585
N4    N     N_1   0.547873 0.876911 0.439019 -0.290878
C101  C     C_1   0.641517 0.170178 0.000894 0.171930
N5    N     N_1   0.699785 0.167348 0.999280 -0.325780
C102  C     C_1   0.359685 0.169159 0.999111 0.172971
N6    N     N_1   0.301452 0.165931 0.000754 -0.326754
C103  C     C_1   0.141517 0.670179 0.000894 0.171930
N7    N     N_1   0.199785 0.667348 0.999280 -0.325780
C104  C     C_1   0.859685 0.669159 0.999111 0.172971
N8    N     N_1   0.801452 0.665931 0.000754 -0.326754
H21   H     H_    0.537157 0.357381 0.942637 0.146957
H22   H     H_    0.462200 0.357057 0.057178 0.147271
H23   H     H_    0.037156 0.857381 0.942637 0.146957
H24   H     H_    0.962200 0.857057 0.057178 0.147271
H25   H     H_    0.465454 0.988635 0.059280 0.139389
H26   H     H_    0.537461 0.988996 0.940729 0.138340
H27   H     H_    0.965454 0.488635 0.059280 0.139389
H28   H     H_    0.037461 0.488996 0.940729 0.138340

loop_
_geom_bond_atom_site_label_1
_geom_bond_atom_site_label_2
_ccdc_geom_bond_type
C58   C62   S    
C37   C101  S    
C80   O8    A    
C67   C83   S    
Cr10  O38   S    
Cr3   O47   S    
C3    C30   S    
C17   C29   S    
C14   C18   S    
C7    C27   S    
C19   C23   S    
C35   C36   S    
C8    C96   S    
Cr1   O21   S    
C22   H18   S    
C44   C80   S    
C19   C31   S    
C94   H6    S    
Cr2   O42   S    
C99   N3    T    
C35   H23   S    
C46   O30   A    
C38   C49   S    
C6    C26   S    
C97   N1    T    
C70   O2    A    
C15   C19   S    
C39   C103  S    
C10   C22   S    
C69   O1    A    
C33   H21   S    
C2    O22   A    
C5    H1    S    
C45   O33   A    
C33   C42   S    
C16   C20   S    
C78   O6    A    
C9    C69   S    
C38   C42   S    
C77   O5    A    
C8    H4    S    
C15   C95   S    
C41   C77   S    
C11   C71   S    
Cr2   O2    S    
Cr3   O3    S    
C4    O28   A    
C43   C79   S    
C73   O45   A    
C13   C93   S    
C18   H16   S    
C81   O41   A    
C48   O32   A    
C75   O51   A    
C27   C99   S    
C49   C50   S    
C9    C13   S    
C82   O14   A    
C73   O49   A    
C59   C67   T    
Cr12  O40   S    
C55   C74   S    
C11   C15   S    
C58   C66   T    
C20   H14   S    
Cr2   O46   S    
C51   H27   S    
C70   O38   A    
C6    C94   S    
C55   C63   T    
C24   H20   S    
C56   C64   T    
C18   C30   S    
Cr11  O11   S    
C23   H19   S    
C4    C29   S    
Cr6   O6    S    
C14   H10   S    
C4    O24   A    
C46   C85   S    
Cr11  O39   S    
C26   C98   S    
C44   C52   S    
C21   H17   S    
C39   C52   S    
C12   C72   S    
C93   H5    S    
C18   C22   S    
C87   C92   T    
C45   O29   A    
C6    H2    S    
Cr10  O10   S    
C34   C41   S    
C53   C61   T    
C84   O16   A    
Cr12  O12   S    
C20   C32   S    
C1    O21   A    
C41   C49   S    
C25   C97   S    
C7    C11   S    
C49   H25   S    
Cr9   O37   S    
C50   H26   S    
C25   C29   S    
C54   C75   S    
C47   O35   A    
C16   C96   S    
C74   O46   A    
Cr3   O23   S    
C51   C52   S    
C68   C84   S    
C12   C16   S    
C36   C40   S    
Cr11  O19   S    
C10   C14   S    
C28   C100  S    
C83   O15   A    
C91   C92   S    
C74   O50   A    
Cr5   O25   S    
Cr9   O17   S    
C54   C62   T    
C72   O40   A    
C27   C31   S    
Cr1   O41   S    
C71   O3    A    
C1    C32   S    
C17   C21   S    
Cr8   O28   S    
Cr3   O43   S    
C2    C31   S    
C52   H28   S    
Cr1   O45   S    
C2    O26   A    
C35   C39   S    
C98   N2    T    
C19   H13   S    
C5    C9    S    
Cr7   O27   S    
C66   C82   S    
Cr11  O35   S    
C34   H22   S    
C65   C81   S    
C88   C91   T    
C28   C32   S    
C8    C12   S    
Cr9   O33   S    
Cr2   O18   S    
C96   H8    S    
C33   C34   S    
C48   C87   S    
C15   H11   S    
Cr12  O16   S    
C57   C61   S    
C35   C44   S    
C60   C68   T    
Cr10  O14   S    
C71   O39   A    
C42   C50   S    
C5    C25   S    
C10   C70   S    
C14   C94   S    
C32   C96   S    
C26   C30   S    
C23   C27   S    
Cr8   O20   S    
C8    C28   S    
Cr6   O30   S    
C79   O7    A    
C59   C63   S    
C76   O52   A    
C53   C76   S    
C3    O27   A    
Cr4   O44   S    
Cr1   O1    S    
C9    C21   S    
C1    O25   A    
Cr6   O50   S    
C80   O12   A    
C75   O47   A    
C102  N6    T    
Cr10  O18   S    
C21   C25   S    
C76   O48   A    
C56   C73   S    
C81   O13   A    
C72   O4    A    
C34   C38   S    
Cr5   O29   S    
Cr7   O7    S    
C24   C28   S    
C47   O31   A    
C57   C65   T    
Cr4   O48   S    
C36   C43   S    
C86   C89   T    
C95   H7    S    
Cr2   O22   S    
C6    C10   S    
C5    C93   S    
C85   C90   T    
Cr4   O20   S    
C42   C78   S    
C36   H24   S    
Cr9   O13   S    
C7    H3    S    
C40   C51   S    
C7    C95   S    
C12   C24   S    
Cr7   O51   S    
Cr10  O34   S    
C13   C17   S    
C60   C64   S    
C69   O37   A    
Cr4   O4    S    
Cr5   O49   S    
C45   C86   S    
Cr5   O5    S    
C100  N4    T    
C30   C94   S    
C47   C88   S    
C29   C93   S    
C37   C50   S    
C84   O44   A    
C43   C51   S    
Cr8   O52   S    
C46   O34   A    
C79   O11   A    
C31   C95   S    
C48   O36   A    
Cr7   O31   S    
C11   C23   S    
C13   H9    S    
C3    O23   A    
C37   C41   S    
C101  N5    T    
C78   O10   A    
C33   C37   S    
Cr12  O20   S    
C77   O9    A    
Cr8   O32   S    
Cr1   O17   S    
C104  N8    T    
C82   O42   A    
Cr4   O24   S    
C40   C44   S    
C83   O43   A    
C39   C43   S    
C103  N7    T    
C22   C26   S    
Cr9   O9    S    
C38   C102  S    
Cr6   O18   S    
Cr11  O15   S    
Cr3   O19   S    
Cr12  O36   S    
C89   C90   S    
Cr7   O19   S    
C20   C24   S    
C17   H15   S    
Cr5   O17   S    
C16   H12   S    
Cr8   O8    S    
C40   C104  S    
Cr6   O26   S    
