data_mof_unit_33271.cif
_audit_creation_date              2012-12-11T16:51:15-0500
_audit_creation_method            fapswitch 2.2
_symmetry_space_group_name_H-M    P1
_symmetry_Int_Tables_number       1
_space_group_crystal_system       triclinic
_cell_length_a                    24.385303
_cell_length_b                    17.124114
_cell_length_c                    15.610165
_cell_angle_alpha                 90.219451
_cell_angle_beta                  129.198126
_cell_angle_gamma                 89.729423
_cell_volume                      5051.50558706

loop_
_atom_site_label
_atom_site_type_symbol
_atom_type_description
_atom_site_fract_x
_atom_site_fract_y
_atom_site_fract_z
_atom_type_partial_charge
C1    C     C_R   0.851387 0.856729 0.245507 -0.127213
C2    C     C_R   0.149242 0.856930 0.754790 -0.129839
C3    C     C_R   0.334365 0.386700 0.201465 -0.160144
C4    C     C_R   0.661161 0.373603 0.782842 -0.181179
C5    C     C_R   0.883136 0.099471 0.590401 -0.049740
C6    C     C_R   0.115860 0.101842 0.409142 -0.095202
C7    C     C_R   0.413227 0.643234 0.594927 -0.120288
C8    C     C_R   0.589453 0.643220 0.407913 -0.113909
C9    C     C_R   0.814106 0.113802 0.498689 0.006481
C10   C     C_R   0.185012 0.115220 0.501543 0.009970
C11   C     C_R   0.366154 0.690580 0.506096 0.061175
C12   C     C_R   0.639358 0.687721 0.499717 0.043322
C13   C     C_R   0.861231 0.154107 0.159300 -0.222278
C14   C     C_R   0.125843 0.174918 0.812015 -0.216532
C15   C     C_R   0.353605 0.633832 0.139239 -0.134386
C16   C     C_R   0.646908 0.633062 0.861697 -0.144286
C17   C     C_R   0.772083 0.844539 0.601039 0.112357
C18   C     C_R   0.244188 0.858298 0.418713 0.137968
C19   C     C_R   0.349200 0.214675 0.605257 0.005089
C20   C     C_R   0.645732 0.203887 0.396770 0.026884
C21   C     C_R   0.758878 0.862227 0.501898 -0.028600
C22   C     C_R   0.247035 0.862701 0.510791 -0.024671
C23   C     C_R   0.331280 0.240258 0.505078 0.075805
C24   C     C_R   0.667562 0.237924 0.495651 0.059346
C25   C     C_R   0.690225 0.848183 0.402364 -0.166836
C26   C     C_R   0.310730 0.837857 0.612266 -0.176428
C27   C     C_R   0.279722 0.198264 0.408352 -0.201322
C28   C     C_R   0.722421 0.200486 0.595004 -0.199333
C29   C     C_R   0.235979 0.145856 0.408711 -0.168090
C30   C     C_R   0.766459 0.147406 0.595664 -0.188082
C31   C     C_R   0.644551 0.798813 0.402158 -0.205200
C32   C     C_R   0.358287 0.791141 0.613241 -0.205864
C33   C     C_R   0.244693 0.135567 0.506164 0.101734
C34   C     C_R   0.754474 0.131169 0.496480 0.092481
C35   C     C_R   0.667897 0.763212 0.501335 0.062279
C36   C     C_R   0.341414 0.766990 0.512459 0.057258
C37   C     C_R   0.307624 0.161293 0.606148 0.064374
C38   C     C_R   0.687405 0.149118 0.397219 0.088783
C39   C     C_R   0.727396 0.795059 0.600491 0.100036
C40   C     C_R   0.290155 0.811123 0.419081 0.099340
C41   C     C_3   0.787322 0.758171 0.707293 -0.655531
C42   C     C_3   0.237722 0.798134 0.297183 -0.658597
C43   C     C_3   0.320829 0.198928 0.704657 -0.594487
C44   C     C_3   0.661386 0.173401 0.284942 -0.634280
C45   C     C_R   0.116459 0.898191 0.410459 -0.144456
C46   C     C_R   0.885427 0.898394 0.591715 -0.169533
C47   C     C_R   0.587414 0.355931 0.406910 -0.050356
C48   C     C_R   0.411428 0.356391 0.591329 -0.066319
C49   C     C_3   0.836359 0.813164 0.709095 0.424240
C50   C     C_3   0.187893 0.852797 0.296970 0.383490
C51   C     C_3   0.364889 0.258722 0.702094 0.452440
C52   C     C_3   0.615784 0.234020 0.284601 0.421885
C53   C     C_2   0.140658 0.739404 0.844906 -0.190679
C54   C     C_2   0.859509 0.740234 0.152340 -0.186259
C55   C     C_2   0.672304 0.273093 0.905832 -0.205268
C56   C     C_2   0.310938 0.336432 0.027899 -0.212090
C57   C     C_2   0.193039 0.699979 0.858029 -0.166365
C58   C     C_2   0.808484 0.699948 0.141413 -0.166291
C59   C     C_2   0.701476 0.219522 0.881892 -0.152733
C60   C     C_2   0.241265 0.348613 0.961262 -0.163687
C61   C     C_2   0.815847 0.202596 0.061530 -0.106122
C62   C     C_2   0.159857 0.243175 0.884238 -0.189171
C63   C     C_2   0.306523 0.670042 0.029639 -0.140875
C64   C     C_2   0.694515 0.668851 0.971688 -0.141401
C65   C     C_2   0.760445 0.170654 0.967251 -0.079068
C66   C     C_2   0.195498 0.294173 0.871572 -0.054667
C67   C     C_2   0.238732 0.649317 0.953620 -0.063307
C68   C     C_2   0.762751 0.648795 0.046394 -0.075328
C69   C     C_R   0.188723 0.896775 0.593379 -0.130728
C70   C     C_R   0.811540 0.896572 0.408683 -0.132817
C71   C     C_R   0.666533 0.358586 0.590482 -0.153517
C72   C     C_R   0.334938 0.357449 0.407566 -0.143527
C73   C     C_R   0.056467 0.856215 0.753195 -0.149631
C74   C     C_R   0.942550 0.857633 0.243106 -0.139068
C75   C     C_R   0.571939 0.374486 0.788045 -0.118035
C76   C     C_R   0.425147 0.389870 0.200167 -0.156653
C77   C     C_R   0.884441 0.814477 0.213134 0.146331
C78   C     C_R   0.115308 0.813561 0.784162 0.138354
C79   C     C_R   0.355949 0.366420 0.140858 0.146877
C80   C     C_R   0.635961 0.338817 0.830487 0.131512
C81   C     C_R   0.185489 0.881712 0.503598 0.074197
C82   C     C_R   0.816738 0.881567 0.500640 0.076587
C83   C     C_R   0.641354 0.314020 0.497734 0.078495
C84   C     C_R   0.358470 0.314186 0.500225 0.087485
C85   C     C_R   0.810280 0.099174 0.408639 -0.101151
C86   C     C_R   0.189601 0.098457 0.591761 -0.078666
C87   C     C_R   0.343494 0.648544 0.412674 -0.188794
C88   C     C_R   0.660743 0.644897 0.591007 -0.161490
C89   C     C_R   0.929533 0.123634 0.212414 0.470616
C90   C     C_R   0.063438 0.133991 0.772549 0.490556
C91   C     C_R   0.424295 0.610873 0.199882 0.433297
C92   C     C_R   0.576359 0.609627 0.801544 0.435072
C93   C     C_R   0.155034 0.134547 0.772069 0.496277
C94   C     C_R   0.836877 0.120552 0.209510 0.511727
C95   C     C_R   0.666761 0.609714 0.800682 0.447699
C96   C     C_R   0.332841 0.609641 0.198562 0.453173
H1    H     H_    0.804811 0.841120 0.235351 0.090094
H2    H     H_    0.197336 0.842628 0.768371 0.091827
H3    H     H_    0.281033 0.384010 0.173185 0.094079
H4    H     H_    0.713908 0.367262 0.809482 0.101969
H5    H     H_    0.190808 0.121907 0.330651 0.132414
H6    H     H_    0.814237 0.128590 0.674859 0.126351
H7    H     H_    0.595832 0.781231 0.323278 0.115011
H8    H     H_    0.401910 0.766044 0.691510 0.116196
H9    H     H_    0.783354 0.769257 0.773438 0.231517
H10   H     H_    0.256531 0.821454 0.253437 0.223279
H11   H     H_    0.272626 0.224394 0.687229 0.237835
H12   H     H_    0.702691 0.200458 0.284800 0.237497
H13   H     H_    0.797176 0.696338 0.698411 0.170306
H14   H     H_    0.216144 0.737889 0.273867 0.180208
H15   H     H_    0.352785 0.160995 0.779096 0.152566
H16   H     H_    0.629803 0.126905 0.222021 0.156898
H17   H     H_    0.873995 0.783191 0.701875 0.009007
H18   H     H_    0.138514 0.824423 0.270287 0.032116
H19   H     H_    0.422176 0.256524 0.775887 -0.018314
H20   H     H_    0.557607 0.223959 0.222204 -0.007900
H21   H     H_    0.759547 0.108762 0.951841 0.114388
H22   H     H_    0.198800 0.288655 0.805600 0.168345
H23   H     H_    0.215793 0.601768 0.966946 0.162513
H24   H     H_    0.785988 0.601465 0.032625 0.162563
H25   H     H_    0.212429 0.717380 0.814684 0.141663
H26   H     H_    0.789947 0.716774 0.186335 0.140805
H27   H     H_    0.686255 0.216297 0.799768 0.139429
H28   H     H_    0.217549 0.385063 0.987025 0.134987
H29   H     H_    0.122716 0.722522 0.890640 0.139372
H30   H     H_    0.876581 0.723825 0.105073 0.144538
H31   H     H_    0.683380 0.273875 0.985047 0.161331
H32   H     H_    0.334329 0.298525 0.002594 0.146412
H33   H     H_    0.097521 0.906347 0.327323 0.108355
H34   H     H_    0.905184 0.907473 0.675275 0.122029
H35   H     H_    0.554413 0.338218 0.321913 0.104724
H36   H     H_    0.441460 0.339134 0.675412 0.076988
H37   H     H_    0.018756 0.839429 0.764496 0.095688
H38   H     H_    0.980074 0.841425 0.231028 0.112669
H39   H     H_    0.543687 0.368137 0.819747 0.092262
H40   H     H_    0.454055 0.393312 0.169041 0.113485
H41   H     H_    0.762458 0.087887 0.327236 0.120296
H42   H     H_    0.237723 0.086683 0.673853 0.127644
H43   H     H_    0.312100 0.672081 0.331394 0.168915
H44   H     H_    0.695695 0.664414 0.674349 0.182702
H45   H     H_    0.900898 0.089583 0.672613 0.142829
H46   H     H_    0.096539 0.096998 0.325256 0.148522
H47   H     H_    0.442138 0.656557 0.680588 0.118790
H48   H     H_    0.561653 0.658601 0.323240 0.118044
H49   H     H_    0.674723 0.866280 0.323494 0.126362
H50   H     H_    0.320474 0.845125 0.689618 0.130350
H51   H     H_    0.267508 0.212316 0.330401 0.127061
H52   H     H_    0.737104 0.218797 0.673412 0.126769
N1    N     N_R   0.888400 0.921830 0.294620 -0.058944
N2    N     N_R   0.111600 0.921830 0.705380 -0.053713
N3    N     N_R   0.388400 0.421830 0.294620 -0.054532
N4    N     N_R   0.611600 0.421830 0.705380 -0.054291
N5    N     N_R   0.079940 0.922160 0.443410 -0.035169
N6    N     N_R   0.920060 0.922160 0.556590 -0.033113
N7    N     N_R   0.579940 0.422160 0.443410 -0.044946
N8    N     N_R   0.420060 0.422160 0.556590 -0.044817
N9    N     N_R   0.125650 0.922400 0.556620 -0.040018
N10   N     N_R   0.874350 0.922400 0.443380 -0.040895
N11   N     N_R   0.625650 0.422400 0.556620 -0.049170
N12   N     N_R   0.374350 0.422400 0.443380 -0.050188
N13   N     N_R   0.054230 0.922730 0.705400 -0.035271
N14   N     N_R   0.945770 0.922730 0.294600 -0.042426
N15   N     N_R   0.554230 0.422730 0.705400 -0.038025
N16   N     N_R   0.445770 0.422730 0.294600 -0.040709
N17   N     N_R   0.873790 0.077030 0.443380 -0.054340
N18   N     N_R   0.126210 0.077030 0.556620 -0.050413
N19   N     N_R   0.373790 0.577030 0.443380 -0.051535
N20   N     N_R   0.626210 0.577030 0.556620 -0.049365
N21   N     N_R   0.945200 0.076700 0.294600 -0.112950
N22   N     N_R   0.054800 0.076700 0.705400 -0.111613
N23   N     N_R   0.445200 0.576700 0.294600 -0.108712
N24   N     N_R   0.554800 0.576700 0.705400 -0.108941
N25   N     N_R   0.111030 0.077600 0.705380 -0.138569
N26   N     N_R   0.888970 0.077600 0.294620 -0.142665
N27   N     N_R   0.611030 0.577600 0.705380 -0.136227
N28   N     N_R   0.388970 0.577600 0.294620 -0.139336
N29   N     N_R   0.919490 0.077280 0.556590 -0.040531
N30   N     N_R   0.080510 0.077280 0.443410 -0.042678
N31   N     N_R   0.419490 0.577280 0.556590 -0.032148
N32   N     N_R   0.580510 0.577280 0.443410 -0.031850
Ni1   Ni    Ni4+2 0.882160 0.999430 0.370180 0.190399
Ni2   Ni    Ni4+2 0.117840 0.999430 0.629820 0.188648
Ni3   Ni    Ni4+2 0.382160 0.499430 0.370180 0.193076
Ni4   Ni    Ni4+2 0.617840 0.499430 0.629820 0.195862
Ni5   Ni    Ni4+2 0.012460 0.999430 0.370180 0.230756
Ni6   Ni    Ni4+2 0.987540 0.999430 0.629820 0.219668
Ni7   Ni    Ni4+2 0.512460 0.499430 0.370180 0.245749
Ni8   Ni    Ni4+2 0.487540 0.499430 0.629820 0.240190
O1    O     O_3   0.865156 0.870565 0.792775 -0.649524
C97   C     C_3   0.933581 0.848756 0.888435 0.217734
H53   H     H_    0.959778 0.902703 0.937811 0.123210
H54   H     H_    0.967448 0.825970 0.868894 0.054336
C98   C     C_3   0.929907 0.790021 0.958780 -0.282492
H55   H     H_    0.891114 0.810781 0.969098 0.214456
H56   H     H_    0.912555 0.732215 0.917088 0.193636
C99   C     C_3   0.001659 0.779956 0.072556 -1.087913
H57   H     H_    0.041755 0.759814 0.064877 0.271095
H58   H     H_    0.997660 0.735963 0.120443 0.275759
H59   H     H_    0.018535 0.836332 0.117738 0.260865
O2    O     O_3   0.179679 0.926925 0.251007 -0.643986
C100  C     C_3   0.136249 0.923238 0.134802 0.201175
H60   H     H_    0.082278 0.943566 0.099092 0.099231
H61   H     H_    0.131922 0.863524 0.102072 0.100703
C101  C     C_3   0.167308 0.978203 0.098642 -0.278571
H62   H     H_    0.166299 0.038829 0.122986 0.199361
H63   H     H_    0.223395 0.961917 0.141582 0.213253
C102  C     C_3   0.126606 0.973912 0.974573 -1.029322
H64   H     H_    0.132317 0.914354 0.953287 0.274434
H65   H     H_    0.148907 0.016054 0.950164 0.269018
H66   H     H_    0.069718 0.987571 0.928680 0.276597
O3    O     O_3   0.330982 0.332647 0.669270 -0.641912
C103  C     C_3   0.368510 0.386973 0.757164 0.232602
H67   H     H_    0.351726 0.446126 0.719588 0.139725
H68   H     H_    0.426829 0.384319 0.804545 0.060429
C104  C     C_3   0.350685 0.377551 0.834682 -0.331631
H69   H     H_    0.292352 0.373931 0.785296 0.220999
H70   H     H_    0.374936 0.322941 0.883430 0.184653
C105  C     C_3   0.378332 0.446927 0.913253 -1.000185
H71   H     H_    0.436851 0.450676 0.965859 0.263723
H72   H     H_    0.363785 0.441214 0.967237 0.287670
H73   H     H_    0.353998 0.501318 0.864487 0.261372
O4    O     O_3   0.638760 0.310412 0.287636 -0.639660
C106  C     C_3   0.604258 0.335944 0.178237 0.195911
H74   H     H_    0.550124 0.357090 0.140983 0.085831
H75   H     H_    0.599891 0.288274 0.125171 0.101037
C107  C     C_3   0.646408 0.402630 0.180174 -0.247736
H76   H     H_    0.644049 0.454705 0.220506 0.200855
H77   H     H_    0.702663 0.384453 0.228865 0.211585
C108  C     C_3   0.617635 0.423863 0.063491 -1.036277
H78   H     H_    0.618906 0.372009 0.021927 0.260921
H79   H     H_    0.651208 0.469678 0.067611 0.277559
H80   H     H_    0.562408 0.445767 0.014088 0.271691
H81   H     H_    0.818956 0.265479 0.073440 0.127787
H82   H     H_    0.162296 0.249134 0.955361 0.147968
H83   H     H_    0.325790 0.720438 0.014297 0.129143
H84   H     H_    0.675268 0.719212 0.987750 0.134024
H85   H     H_    0.235982 0.903327 0.678250 0.078325
H86   H     H_    0.763415 0.901194 0.324175 0.078258
H87   H     H_    0.711641 0.345537 0.674271 0.098497
H88   H     H_    0.293129 0.342503 0.322267 0.098272
O5    O     O_3   0.968430 0.121684 0.175265 -0.678246
C109  C     C_3   0.961499 0.190383 0.119099 0.202508
H89   H     H_    0.015358 0.207639 0.151299 0.112838
H90   H     H_    0.941420 0.241790 0.135877 0.090330
C110  C     C_3   0.917483 0.173311 0.995110 -0.243483
H91   H     H_    0.950587 0.140887 0.980816 0.185670
H92   H     H_    0.871942 0.135313 0.966146 0.210953
C111  C     C_3   0.889704 0.248012 0.926396 -1.065870
H93   H     H_    0.849683 0.276179 0.929005 0.276245
H94   H     H_    0.864344 0.233739 0.839170 0.268948
H95   H     H_    0.933391 0.289709 0.957788 0.274627
O6    O     O_3   0.017787 0.140049 0.797321 -0.687387
C112  C     C_3   0.030683 0.201433 0.868159 0.198614
H96   H     H_    0.979451 0.215125 0.849197 0.131894
H97   H     H_    0.045205 0.256858 0.850770 0.101861
C113  C     C_3   0.081743 0.174477 0.989044 -0.305664
H98   H     H_    0.056411 0.127164 0.001504 0.203585
H99   H     H_    0.130607 0.149836 0.008494 0.201149
C114  C     C_3   0.101645 0.241077 0.069134 -1.056354
H100  H     H_    0.131797 0.286434 0.064120 0.269564
H101  H     H_    0.135163 0.218186 0.154888 0.270404
H102  H     H_    0.053662 0.268117 0.049965 0.276223
O7    O     O_3   0.457985 0.595816 0.155644 -0.658823
C115  C     C_3   0.459004 0.662587 0.103087 0.176155
H103  H     H_    0.514410 0.671496 0.136978 0.120437
H104  H     H_    0.444065 0.718043 0.121465 0.070829
C116  C     C_3   0.414290 0.648282 0.978253 -0.238560
H105  H     H_    0.443087 0.607814 0.963282 0.189667
H106  H     H_    0.363836 0.619614 0.945545 0.215319
C117  C     C_3   0.397232 0.723761 0.913493 -1.097980
H107  H     H_    0.364036 0.763217 0.920487 0.267462
H108  H     H_    0.367569 0.709650 0.824746 0.273923
H109  H     H_    0.446184 0.755079 0.944034 0.268931
O8    O     O_3   0.543980 0.591757 0.847043 -0.661642
C118  C     C_3   0.545017 0.655557 0.906248 0.160326
H110  H     H_    0.490242 0.664122 0.875748 0.122017
H111  H     H_    0.559063 0.712445 0.890248 0.079350
C119  C     C_3   0.592042 0.636406 0.030332 -0.230883
H112  H     H_    0.563772 0.595179 0.045034 0.190685
H113  H     H_    0.641251 0.606700 0.057952 0.212922
C120  C     C_3   0.612480 0.709278 0.101703 -1.074058
H114  H     H_    0.648241 0.747277 0.099501 0.265427
H115  H     H_    0.640549 0.691657 0.188815 0.274737
H116  H     H_    0.565133 0.743737 0.072926 0.265569
O9    O     O_3   0.223271 0.143453 0.809113 -0.676291
C121  C     C_3   0.264756 0.078088 0.874022 0.158622
H117  H     H_    0.310988 0.075261 0.875806 0.111167
H118  H     H_    0.236290 0.021552 0.837931 0.091799
C122  C     C_3   0.292650 0.087353 0.993371 -0.274743
H119  H     H_    0.325613 0.140882 0.030189 0.203926
H120  H     H_    0.247844 0.093722 0.994607 0.192615
C123  C     C_3   0.336805 0.016774 0.063543 -1.030486
H121  H     H_    0.304082 0.962979 0.029354 0.271968
H122  H     H_    0.356488 0.025348 0.149361 0.274676
H123  H     H_    0.382923 0.009520 0.065614 0.264064
O10   O     O_3   0.766943 0.123009 0.167796 -0.659623
C124  C     C_3   0.737995 0.047052 0.148049 0.161236
H124  H     H_    0.690594 0.052573 0.142970 0.122165
H125  H     H_    0.774101 0.005711 0.216315 0.089972
C125  C     C_3   0.713527 0.013052 0.038025 -0.294892
H126  H     H_    0.679441 0.056426 0.971320 0.216383
H127  H     H_    0.760443 0.999434 0.044010 0.189004
C126  C     C_3   0.670517 0.938531 0.007766 -1.023102
H128  H     H_    0.701801 0.893867 0.073297 0.260717
H129  H     H_    0.655430 0.914391 0.929351 0.275323
H130  H     H_    0.621488 0.951287 0.996156 0.263965
O11   O     O_3   0.735666 0.611912 0.838575 -0.682029
C127  C     C_3   0.759756 0.536061 0.842705 0.147155
H131  H     H_    0.730456 0.511444 0.758422 0.123647
H132  H     H_    0.754311 0.497449 0.894207 0.102338
C128  C     C_3   0.837940 0.540145 0.895578 -0.258628
H133  H     H_    0.844107 0.577019 0.843690 0.197171
H134  H     H_    0.868308 0.567453 0.978759 0.200372
C129  C     C_3   0.868101 0.459000 0.907230 -1.044076
H135  H     H_    0.864589 0.422256 0.962079 0.268083
H136  H     H_    0.924581 0.463887 0.944187 0.278086
H137  H     H_    0.838556 0.430437 0.825037 0.274228
O12   O     O_3   0.263634 0.617764 0.160171 -0.681106
C130  C     C_3   0.239038 0.554354 0.185294 0.176642
H138  H     H_    0.227089 0.575675 0.239146 0.127390
H139  H     H_    0.276670 0.505633 0.228101 0.099982
C131  C     C_3   0.170075 0.523782 0.078713 -0.304064
H140  H     H_    0.132433 0.573089 0.032459 0.212518
H141  H     H_    0.181078 0.497183 0.026066 0.180148
C132  C     C_3   0.135841 0.462904 0.102707 -1.026327
H142  H     H_    0.173357 0.414355 0.152579 0.262090
H143  H     H_    0.088011 0.438854 0.023717 0.273294
H144  H     H_    0.119826 0.489935 0.148746 0.275253

loop_
_geom_bond_atom_site_label_1
_geom_bond_atom_site_label_2
_ccdc_geom_bond_type
C49   H17   S    
C52   O4    S    
C62   H82   S    
C55   C59   D    
C1    C77   A    
C131  H141  S    
C106  H74   S    
C76   C79   A    
C3    C79   A    
C106  C107  S    
C39   C41   S    
C120  H116  S    
C56   C79   S    
C41   H9    S    
N6    N10   A    
C131  C132  S    
C113  C114  S    
C29   C33   A    
O8    C118  S    
C17   C39   A    
C95   N27   A    
C14   C90   A    
C73   N13   A    
C19   C37   A    
C87   N19   A    
C88   N20   A    
C102  H66   S    
C109  H90   S    
N21   N26   A    
C32   H8    S    
C47   C83   A    
N24   N27   A    
C110  H91   S    
C95   O11   S    
C111  H94   S    
C58   H26   S    
C109  C110  S    
C23   C84   S    
C126  H129  S    
C96   O12   S    
C15   C96   A    
C62   C66   D    
N31   Ni8   S    
C129  H135  S    
N20   N32   A    
C17   C21   A    
N29   Ni6   S    
C47   H35   S    
C50   H18   S    
C19   C23   A    
C104  H69   S    
C108  H78   S    
C2    C78   A    
N32   Ni7   S    
C8    N32   A    
C126  H128  S    
C30   H6    S    
C42   H10   S    
C72   C84   A    
C44   H16   S    
O10   C124  S    
N25   Ni2   S    
C9    C34   S    
C117  H108  S    
N9    Ni2   S    
C91   O7    S    
C125  H126  S    
C85   H41   S    
N2    N13   A    
C121  C122  S    
C45   C81   A    
C99   H57   S    
C114  H101  S    
C91   N23   A    
C13   C94   A    
C85   N17   A    
C123  H122  S    
C53   C78   S    
C89   N21   A    
N7    Ni7   S    
C121  H118  S    
C55   C80   S    
C92   N24   A    
C74   H38   S    
C93   N25   A    
C56   H32   S    
C70   C82   A    
C15   C91   A    
C61   C65   D    
C103  H67   S    
C98   H55   S    
C110  C111  S    
N1    N14   A    
O6    C112  S    
C25   C31   A    
C130  H139  S    
C26   C32   A    
C97   H53   S    
C27   C29   A    
N17   N29   A    
N18   Ni2   S    
C7    H47   S    
N6    Ni6   S    
C64   C68   D    
C4    C80   A    
C108  H80   S    
C112  H96   S    
C116  C117  S    
C94   O10   S    
C14   C62   S    
C75   N15   A    
O5    C109  S    
C132  H143  S    
C88   H44   S    
C18   C40   A    
C9    C85   A    
C46   C82   A    
C11   C87   A    
C115  H103  S    
C74   C77   A    
C113  H99   S    
C69   N9    A    
C14   C93   A    
C125  C126  S    
C54   C77   S    
C44   C52   S    
C40   C42   S    
C41   H13   S    
C100  H61   S    
O1    C97   S    
C43   H15   S    
C99   H59   S    
C127  H132  S    
C71   C83   A    
C4    N4    A    
C30   C34   A    
N7    N11   A    
N8    N12   A    
C118  C119  S    
C104  C105  S    
C17   C49   S    
C74   N14   A    
N15   Ni8   S    
C5    C9    A    
C105  H72   S    
C103  C104  S    
C8    C12   A    
C98   C99   S    
C122  H119  S    
C12   C35   S    
C53   H29   S    
C42   C50   S    
C55   H31   S    
O11   C127  S    
C128  H134  S    
C105  H73   S    
C21   C25   A    
C10   C86   A    
C18   C22   A    
C24   C28   A    
C101  H63   S    
C46   H34   S    
C112  C113  S    
C116  H105  S    
C106  H75   S    
N3    Ni3   S    
C120  H115  S    
N23   N28   A    
C42   H14   S    
C68   H24   S    
C93   O9    S    
C115  C116  S    
C100  C101  S    
C10   C33   S    
C119  H113  S    
N10   Ni1   S    
N4    N15   A    
C3    H3    S    
C101  H62   S    
N3    N16   A    
C102  H65   S    
C65   H21   S    
C119  H112  S    
C70   H86   S    
C67   H23   S    
N19   N31   A    
C45   H33   S    
C118  H110  S    
C86   N18   A    
O7    C115  S    
N2    Ni2   S    
C54   H30   S    
C2    N2    A    
C24   C83   S    
C64   H84   S    
C75   H39   S    
C129  H136  S    
C122  C123  S    
C61   H81   S    
C100  H60   S    
C41   C49   S    
C97   C98   S    
C119  C120  S    
C1    N1    A    
N18   N30   A    
N11   Ni4   S    
C6    H46   S    
N12   Ni3   S    
C114  H102  S    
C129  H137  S    
C52   H20   S    
C131  H140  S    
C48   N8    A    
C60   C66   S    
C6    N30   A    
N1    Ni1   S    
C117  H109  S    
C125  H127  S    
C126  H130  S    
N8    Ni8   S    
C59   H27   S    
C46   N6    A    
C28   H52   S    
C102  H64   S    
C22   C81   S    
C99   H58   S    
C53   C57   D    
C33   C37   A    
C56   C60   D    
C70   N10   A    
C71   H87   S    
C37   C43   S    
C35   C39   A    
C38   C44   S    
O9    C121  S    
N14   Ni5   S    
O3    C103  S    
C101  C102  S    
N22   Ni6   S    
C109  H89   S    
C29   H5    S    
C124  H125  S    
C43   H11   S    
C58   C68   S    
C103  H68   S    
C16   C92   A    
C110  H92   S    
C31   C35   A    
C45   N5    A    
C32   C36   A    
C111  H93   S    
C18   C50   S    
C11   C36   S    
C97   H54   S    
C96   N28   A    
C87   H43   S    
C6    C10   A    
C108  H79   S    
C116  H106  S    
C43   C51   S    
N5    N9    A    
C132  H142  S    
C51   H19   S    
C69   C81   A    
C63   H83   S    
C130  H138  S    
C127  C128  S    
C115  H104  S    
C22   C26   A    
C117  H107  S    
C48   H36   S    
C59   C65   S    
N27   Ni4   S    
N22   N25   A    
N28   Ni3   S    
C128  H133  S    
C124  H124  S    
N16   Ni7   S    
C76   H40   S    
C7    C11   A    
N13   Ni6   S    
N5    Ni5   S    
C123  H121  S    
C118  H111  S    
C104  H70   S    
C121  H117  S    
C49   O1    S    
C26   H50   S    
C60   H28   S    
N30   Ni5   S    
N19   Ni3   S    
C20   C24   A    
O2    C100  S    
C98   H56   S    
C73   C78   A    
C72   H88   S    
C23   C27   A    
N4    Ni4   S    
C75   C80   A    
C111  H95   S    
C130  C131  S    
C57   C67   S    
N26   Ni1   S    
C44   H12   S    
C63   C67   D    
C36   C40   A    
C1    H1    S    
C112  H97   S    
C50   O2    S    
N20   Ni4   S    
C120  H114  S    
C90   O6    S    
C48   C84   A    
C31   H7    S    
C132  H144  S    
O12   C130  S    
C51   O3    S    
C20   C38   A    
C5    H45   S    
C113  H98   S    
C90   N22   A    
C7    N31   A    
C8    H48   S    
C21   C82   S    
C5    N29   A    
C94   N26   A    
C73   H37   S    
C107  H76   S    
C107  H77   S    
C4    H4    S    
C124  C125  S    
C89   O5    S    
C76   N16   A    
C92   O8    S    
C114  H100  S    
C127  H131  S    
C54   C58   D    
C16   C95   A    
C13   C89   A    
C34   C38   A    
C123  H123  S    
C107  C108  S    
C71   N11   A    
C3    N3    A    
C72   N12   A    
N23   Ni7   S    
N17   Ni1   S    
C28   C30   A    
N21   Ni5   S    
C20   C52   S    
C105  H71   S    
C47   N7    A    
N24   Ni8   S    
C122  H120  S    
O4    C106  S    
C86   H42   S    
C57   H25   S    
C19   C51   S    
C13   C61   S    
C2    H2    S    
C27   H51   S    
C66   H22   S    
C128  C129  S    
C15   C63   S    
C25   H49   S    
C16   C64   S    
C69   H85   S    
C12   C88   A    
