data_mof_unit_35774.cif
_audit_creation_date              2013-03-05T16:00:57-0500
_audit_creation_method            fapswitch 2.2
_symmetry_space_group_name_H-M    P1
_symmetry_Int_Tables_number       1
_space_group_crystal_system       triclinic
_cell_length_a                    10.648222
_cell_length_b                    14.690997
_cell_length_c                    14.797807
_cell_angle_alpha                 64.549761
_cell_angle_beta                  103.507923
_cell_angle_gamma                 103.037139
_cell_volume                      2011.6347163

loop_
_atom_site_label
_atom_site_type_symbol
_atom_site_description
_atom_site_fract_x
_atom_site_fract_y
_atom_site_fract_z
_atom_type_partial_charge
O1    O     O_R   0.454850 0.022100 0.338110 -0.605446
O2    O     O_R   0.545150 0.977900 0.661890 -0.602302
O3    O     O_R   0.512700 0.160150 0.379180 -0.551928
O4    O     O_R   0.487300 0.839850 0.620820 -0.562668
C1    C     C_R   0.477688 0.120118 0.312114 0.845222
C2    C     C_R   0.521045 0.879772 0.687709 0.828773
O5    O     O_R   0.287930 0.931000 0.479440 -0.566962
O6    O     O_R   0.712070 0.069000 0.520560 -0.570902
O7    O     O_R   0.345780 0.069050 0.520520 -0.598799
O8    O     O_R   0.654220 0.930950 0.479480 -0.601213
C3    C     C_R   0.259782 0.000449 0.499942 0.881007
C4    C     C_R   0.740110 0.000227 0.499134 0.869866
Cu1   Cu    Cu3+1 0.465750 0.918270 0.475680 0.987760
Cu2   Cu    Cu3+1 0.534250 0.081730 0.524320 0.990907
C5    C     C_3   0.014804 0.000157 0.410997 -0.276520
C6    C     C_3   0.985139 0.001825 0.587039 -0.285003
C7    C     C_3   0.960893 0.082381 0.422842 0.409091
C8    C     C_3   0.039031 0.919670 0.575277 0.395533
H1    H     H_    0.028911 0.001327 0.338479 0.168299
H2    H     H_    0.971171 0.000651 0.659597 0.165691
C9    C     C_3   0.876252 0.000459 0.498106 -0.125810
C10   C     C_3   0.123645 0.001359 0.500011 -0.125958
C11   C     C_3   0.929128 0.916139 0.488207 -0.245473
C12   C     C_3   0.070947 0.085705 0.509928 -0.235519
H3    H     H_    0.870578 0.846016 0.481168 0.176062
H4    H     H_    0.129655 0.155758 0.517046 0.170027
C13   C     C_R   0.452875 0.187831 0.204208 -0.054663
C14   C     C_R   0.520336 0.811503 0.794901 -0.046035
C15   C     C_R   0.361062 0.214651 0.030354 -0.157042
C16   C     C_R   0.530740 0.784602 0.969313 -0.155124
C17   C     C_R   0.394652 0.148694 0.130605 -0.187549
C18   C     C_R   0.541008 0.850427 0.869321 -0.175021
C19   C     C_R   0.478451 0.293261 0.175699 -0.098806
C20   C     C_R   0.488977 0.706203 0.821784 -0.108114
C21   C     C_R   0.430626 0.360476 0.078102 0.097200
C22   C     C_R   0.465567 0.639413 0.920086 0.107753
C23   C     C_R   0.378823 0.320165 0.003579 0.095353
C24   C     C_R   0.494716 0.679570 0.995292 0.090903
C25   C     C_R   0.438152 0.466815 0.051581 -0.085101
C26   C     C_R   0.421943 0.533166 0.946946 -0.088455
C27   C     C_R   0.361448 0.490369 0.874220 0.324193
C28   C     C_R   0.458610 0.509775 0.124889 0.360527
C29   C     C_R   0.342322 0.384981 0.903632 -0.258289
C30   C     C_R   0.486751 0.614897 0.095655 -0.258551
H5    H     H_    0.295701 0.353231 0.848001 0.177056
H6    H     H_    0.502116 0.646308 0.152315 0.176173
H7    H     H_    0.485548 0.677098 0.765473 0.172169
H8    H     H_    0.537082 0.321668 0.230634 0.199536
H9    H     H_    0.565335 0.931519 0.850435 0.155286
H10   H     H_    0.374650 0.067342 0.150405 0.154416
H11   H     H_    0.318522 0.183026 0.974116 0.137948
H12   H     H_    0.550094 0.815892 0.026327 0.138038
N1    N     N_R   0.585750 0.204560 0.560800 -0.191356
N2    N     N_R   0.414250 0.795440 0.439200 -0.184838
C31   C     C_R   0.735905 0.293101 0.653093 -0.293026
C32   C     C_R   0.256816 0.700792 0.356991 -0.284129
C33   C     C_R   0.696565 0.209388 0.627090 0.087198
C34   C     C_R   0.303227 0.789672 0.373466 0.098594
C35   C     C_R   0.508194 0.279339 0.520273 0.071278
C36   C     C_R   0.484898 0.716329 0.488813 0.057716
C37   C     C_R   0.541891 0.366283 0.544796 0.000754
C38   C     C_R   0.443855 0.623841 0.474473 0.009110
C39   C     C_R   0.660058 0.372391 0.611182 0.141897
C40   C     C_R   0.325719 0.617290 0.408062 0.143768
C41   C     C_R   0.465792 0.448322 0.503388 0.091327
C42   C     C_R   0.514663 0.538363 0.523178 0.079543
C43   C     C_R   0.632941 0.539997 0.590228 -0.199663
C44   C     C_R   0.343000 0.443608 0.442347 -0.112040
C45   C     C_R   0.702853 0.458056 0.634198 -0.159375
C46   C     C_R   0.275825 0.527059 0.394338 -0.140390
H13   H     H_    0.793234 0.462853 0.685151 0.171917
H14   H     H_    0.183474 0.520751 0.345933 0.167321
H15   H     H_    0.570819 0.726944 0.540436 0.116827
H16   H     H_    0.422797 0.270380 0.467421 0.153978
H17   H     H_    0.248553 0.853335 0.335952 0.120652
H18   H     H_    0.755254 0.148277 0.659289 0.126004
H19   H     H_    0.825881 0.296336 0.704851 0.151740
H20   H     H_    0.166560 0.696836 0.305722 0.147267
H21   H     H_    0.674799 0.603890 0.610423 0.147574
H22   H     H_    0.296250 0.376046 0.429748 0.164344
N3    N     N_R   0.919710 0.173176 0.337483 0.121604
O9    O     O_R   0.003748 0.237375 0.280435 -0.323730
O10   O     O_R   0.799485 0.190128 0.316870 -0.377974
N4    N     N_R   0.081742 0.829956 0.661135 0.141519
O11   O     O_R   0.996855 0.761844 0.714650 -0.338368
O12   O     O_R   0.205364 0.823149 0.691478 -0.334157
N5    N     N_R   0.300710 0.550162 0.774600 0.105372
O13   O     O_R   0.222822 0.612090 0.763534 -0.264321
O14   O     O_R   0.305316 0.530610 0.697662 -0.382471
N6    N     N_R   0.436691 0.450057 0.227206 0.088593
O15   O     O_R   0.328583 0.387900 0.246113 -0.365049
O16   O     O_R   0.519853 0.464676 0.301138 -0.402544

loop_
_geom_bond_atom_site_label_1
_geom_bond_atom_site_label_2
_geom_bond_distance
_ccdc_geom_bond_type
C44   H22   1.077257 S    
N5    O13   1.300500 A    
C6    C9    1.541425 S    
C21   C25   1.425564 A    
N3    O9    1.300309 A    
N1    C35   1.363903 A    
N2    C36   1.363369 A    
C13   C19   1.397475 A    
O5    C3    1.292029 A    
O1    C1    1.300121 A    
C33   H18   1.081643 S    
C21   C23   1.414526 A    
N4    O12   1.299646 A    
N2    C34   1.356240 A    
C31   H19   1.083854 S    
C36   H15   1.075379 S    
C32   H20   1.083823 S    
C16   C24   1.402810 A    
C36   C38   1.420843 A    
O4    Cu1   1.937833 S    
C37   C39   1.415529 A    
C38   C40   1.416547 A    
C1    C13   1.471520 S    
C5    C10   1.541472 S    
C2    C14   1.468634 S    
C39   C45   1.394501 A    
C31   C39   1.401195 A    
C8    N4    1.455837 S    
C32   C40   1.401631 A    
C40   C46   1.394247 A    
C20   C22   1.404730 A    
C6    H2    1.110315 S    
C5    C11   1.558221 S    
C42   C43   1.412200 A    
C14   C20   1.401055 A    
C6    C12   1.557558 S    
Cu1   Cu2   2.695694 S    
C19   H8    1.077822 S    
C27   C29   1.395712 A    
O2    C2    1.302128 A    
C28   C30   1.392674 A    
N3    O10   1.300021 A    
C30   H6    1.084929 S    
C34   H17   1.081805 S    
C25   C28   1.427783 A    
C27   N5    1.435626 S    
C35   C37   1.422218 A    
C7    C12   1.535961 S    
C45   H13   1.084322 S    
C38   C42   1.435378 A    
C13   C17   1.401140 A    
C8    C11   1.535569 S    
C22   C26   1.426884 A    
C43   H21   1.076639 S    
N4    O11   1.300262 A    
O4    C2    1.300205 A    
C25   C26   1.425235 A    
N1    C33   1.356815 A    
C4    C9    1.452521 S    
C7    C9    1.526007 S    
C28   N6    1.430959 S    
C23   C29   1.390413 A    
C5    H1    1.110283 S    
O7    Cu2   1.962909 S    
C24   C30   1.387562 A    
C29   H5    1.084580 S    
N6    O16   1.300284 A    
C14   C18   1.399777 A    
O6    C4    1.290776 A    
C41   C44   1.411196 A    
O7    C3    1.289992 A    
C35   H16   1.076156 S    
O3    Cu2   1.937834 S    
O8    C4    1.291140 A    
C44   C46   1.388900 A    
C26   C27   1.429477 A    
C31   C33   1.391042 A    
C10   C12   1.542830 S    
O1    Cu1   1.945537 S    
C17   H10   1.083013 S    
Cu1   N2    2.025042 S    
C15   H11   1.083902 S    
C5    C7    1.536632 S    
C16   H12   1.083942 S    
O6    Cu2   1.959900 S    
C8    C10   1.524693 S    
C12   H4    1.110479 S    
O3    C1    1.303696 A    
O8    Cu1   1.962909 S    
C3    C10   1.452927 S    
C9    C11   1.543416 S    
C15   C17   1.393067 A    
C16   C18   1.390905 A    
N6    O15   1.301511 A    
C22   C24   1.415342 A    
C19   C21   1.406343 A    
C32   C34   1.390958 A    
C7    N3    1.457422 S    
C11   H3    1.110368 S    
O2    Cu2   1.945537 S    
C18   H9    1.083006 S    
C37   C41   1.434784 A    
O5    Cu1   1.959900 S    
Cu2   N1    2.025042 S    
C6    C8    1.534923 S    
C41   C42   1.434407 A    
C15   C23   1.403726 A    
N5    O14   1.301777 A    
C46   H14   1.084233 S    
C20   H7    1.078639 S    
C43   C45   1.389784 A    
