data_mof_unit_65712.cif
_audit_creation_date              2013-03-05T16:28:13-0500
_audit_creation_method            fapswitch 2.2
_symmetry_space_group_name_H-M    P1
_symmetry_Int_Tables_number       1
_space_group_crystal_system       triclinic
_cell_length_a                    17.205433
_cell_length_b                    18.17495
_cell_length_c                    19.411458
_cell_angle_alpha                 89.923065
_cell_angle_beta                  90.646269
_cell_angle_gamma                 84.672144
_cell_volume                      6043.48918832

loop_
_atom_site_label
_atom_site_type_symbol
_atom_site_description
_atom_site_fract_x
_atom_site_fract_y
_atom_site_fract_z
_atom_type_partial_charge
O1    O     O_R   0.500030 0.438020 0.599820 -0.543160
O2    O     O_R   0.499970 0.561980 0.400180 -0.553085
O3    O     O_R   0.500000 0.561930 0.599810 -0.593237
O4    O     O_R   0.500000 0.438070 0.400190 -0.606750
C1    C     C_R   0.500272 0.499999 0.632503 0.873343
C2    C     C_R   0.499638 0.500009 0.367484 0.814948
O5    O     O_R   0.613620 0.430860 0.500010 -0.551711
O6    O     O_R   0.386380 0.569140 0.499990 -0.548292
O7    O     O_R   0.613580 0.554770 0.500010 -0.571940
O8    O     O_R   0.386420 0.445230 0.499990 -0.564392
C3    C     C_R   0.650259 0.489537 0.500522 0.857961
C4    C     C_R   0.349884 0.510363 0.499715 0.860831
Cu1   Cu    Cu3+1 0.500020 0.426640 0.500000 1.039970
Cu2   Cu    Cu3+1 0.499980 0.573360 0.500000 1.039112
C5    C     C_R   0.735121 0.481365 0.496684 -0.104437
C6    C     C_R   0.265249 0.517734 0.494416 -0.125485
C7    C     C_R   0.781424 0.523232 0.538681 0.388096
C8    C     C_R   0.219645 0.483363 0.542213 0.381658
C9    C     C_R   0.862125 0.516151 0.530853 -0.104705
C10   C     C_R   0.138901 0.488363 0.533248 -0.109559
C11   C     C_R   0.896933 0.468887 0.480510 0.042857
C12   C     C_R   0.103595 0.525612 0.475888 0.036130
C13   C     C_R   0.850948 0.425292 0.440712 -0.034260
C14   C     C_R   0.149177 0.561249 0.429436 -0.025917
C15   C     C_R   0.770433 0.431294 0.448971 -0.198024
C16   C     C_R   0.229706 0.557343 0.438720 -0.170699
C17   C     C_2   0.981905 0.464685 0.469849 0.168796
C18   C     C_2   0.018572 0.527647 0.464622 0.171137
H1    H     H_    0.264616 0.583120 0.401151 0.213663
H2    H     H_    0.735368 0.398382 0.416668 0.174309
H3    H     H_    0.877195 0.387952 0.402264 0.186738
H4    H     H_    0.122614 0.590489 0.385197 0.194463
H5    H     H_    0.103654 0.462470 0.570500 0.187241
H6    H     H_    0.897808 0.548016 0.563584 0.187550
C19   C     C_R   0.509916 0.563604 0.254477 -0.113161
C20   C     C_R   0.487855 0.436898 0.745429 -0.080233
H7    H     H_    0.521058 0.614235 0.280598 0.196813
H8    H     H_    0.475389 0.386676 0.719258 0.204714
C21   C     C_R   0.508152 0.562692 0.182749 -0.134351
C22   C     C_R   0.489413 0.437797 0.817156 -0.128143
H9    H     H_    0.517825 0.612472 0.154577 0.180493
H10   H     H_    0.478423 0.388368 0.845306 0.182726
C23   C     C_R   0.494439 0.497857 0.147455 0.058640
C24   C     C_R   0.504607 0.502198 0.852473 0.050688
C25   C     C_R   0.482575 0.433408 0.184546 0.429202
C26   C     C_R   0.518158 0.566226 0.815449 0.431951
C27   C     C_R   0.484576 0.434535 0.256338 -0.204608
C28   C     C_R   0.516494 0.565083 0.743653 -0.175238
H11   H     H_    0.474758 0.384649 0.284274 0.196683
H12   H     H_    0.527712 0.614592 0.715735 0.202295
C29   C     C_R   0.498187 0.499509 0.291823 -0.107742
C30   C     C_R   0.501438 0.500527 0.708140 -0.107220
C31   C     C_R   0.555813 0.457180 0.038451 -0.196666
C32   C     C_R   0.443239 0.542900 0.961430 -0.193289
H13   H     H_    0.600242 0.425380 0.068921 0.208861
H14   H     H_    0.398856 0.574749 0.930951 0.211392
C33   C     C_R   0.562072 0.458611 0.966697 0.350369
C34   C     C_R   0.436929 0.541394 0.033181 0.350486
C35   C     C_R   0.504707 0.501942 0.928053 -0.054121
C36   C     C_R   0.494309 0.498088 0.071846 -0.054475
C37   C     C_R   0.551978 0.272126 0.539240 0.522528
C38   C     C_R   0.446720 0.728566 0.462624 0.535519
C39   C     C_R   0.549747 0.195099 0.539493 -0.326753
C40   C     C_R   0.449420 0.805551 0.462745 -0.325148
H15   H     H_    0.592297 0.161328 0.570244 0.204295
H16   H     H_    0.405937 0.839863 0.433443 0.206261
C41   C     C_R   0.494350 0.161618 0.499762 -0.074508
C42   C     C_R   0.506474 0.838362 0.500968 -0.079255
C43   C     C_R   0.440530 0.208154 0.459655 0.253124
C44   C     C_R   0.561165 0.791303 0.539639 0.247826
C45   C     C_R   0.445767 0.285410 0.460340 -0.022131
C46   C     C_R   0.555450 0.714117 0.538655 -0.028181
H17   H     H_    0.404865 0.321237 0.430034 0.190358
H18   H     H_    0.596738 0.678003 0.568155 0.222750
N1    N     N_R   0.500010 0.316380 0.499980 -0.262090
N2    N     N_R   0.499990 0.683620 0.500020 -0.266074
C47   C     C_R   0.499132 0.038458 0.437917 -0.068072
C48   C     C_R   0.502486 0.961378 0.562908 -0.065362
H19   H     H_    0.498851 0.067141 0.388971 0.168293
H20   H     H_    0.502837 0.932638 0.611831 0.169266
C49   C     C_R   0.502802 0.960850 0.438459 -0.130600
C50   C     C_R   0.498695 0.039005 0.562369 -0.128192
H21   H     H_    0.504588 0.931576 0.389860 0.164603
H22   H     H_    0.496758 0.068246 0.610982 0.167056
C51   C     C_R   0.505027 0.921174 0.500945 0.158035
C52   C     C_R   0.496393 0.078715 0.499870 0.155642
Cl1   Cl    Cl    0.741059 0.582635 0.603243 -0.508543
Cl2   Cl    Cl    0.261588 0.435043 0.614267 -0.541097
N3    N     N_R   0.627270 0.417197 0.934473 0.142064
O9    O     O_R   0.661665 0.358793 0.964652 -0.279508
O10   O     O_R   0.657779 0.441503 0.878791 -0.273845
N4    N     N_R   0.371617 0.582634 0.065388 0.141242
O11   O     O_R   0.340885 0.557986 0.120817 -0.287707
O12   O     O_R   0.337276 0.641148 0.035345 -0.280465
N5    N     N_R   0.610088 0.303181 0.580077 0.145505
O13   O     O_R   0.681666 0.297987 0.558455 -0.314534
O14   O     O_R   0.597311 0.314750 0.645226 -0.330636
N6    N     N_R   0.385855 0.698574 0.424419 0.132075
O15   O     O_R   0.314295 0.712322 0.444972 -0.333831
O16   O     O_R   0.398080 0.679023 0.360780 -0.353662
N7    N     N_R   0.378811 0.179079 0.420588 0.132156
O17   O     O_R   0.343273 0.124494 0.444614 -0.288864
O18   O     O_R   0.350917 0.213248 0.365427 -0.293053
N8    N     N_R   0.623997 0.819783 0.577716 0.135522
O19   O     O_R   0.653665 0.784618 0.631729 -0.265320
O20   O     O_R   0.658526 0.875057 0.553808 -0.293611
N9    N     N_R   0.975559 0.598205 0.450524 0.120335
O21   O     O_R   0.001337 0.658658 0.473695 -0.275048
O22   O     O_R   0.916315 0.603076 0.407925 -0.308328
N10   N     N_R   0.024836 0.392593 0.467717 0.120681
O23   O     O_R   0.999100 0.337360 0.500401 -0.273797
O24   O     O_R   0.083964 0.379910 0.426780 -0.292232
Cl3   Cl    Cl    0.462783 0.351104 0.142759 -0.497884
Cl4   Cl    Cl    0.539605 0.647952 0.857364 -0.486021

loop_
_geom_bond_atom_site_label_1
_geom_bond_atom_site_label_2
_geom_bond_distance
_ccdc_geom_bond_type
O5    Cu1   1.963143 S    
C39   H15   1.083851 S    
N7    O17   1.301314 A    
N5    O13   1.300750 A    
C46   N2    1.365069 A    
N8    O20   1.301286 A    
C27   H11   1.083449 S    
C37   N1    1.369893 A    
O5    C3    1.288228 A    
C33   N3    1.440983 S    
O1    C1    1.293901 A    
C40   C42   1.401148 A    
C9    C11   1.404092 A    
C14   C16   1.390431 A    
C28   C30   1.404830 A    
C48   H20   1.082903 S    
C5    C15   1.402646 A    
C18   N9    1.444079 S    
C34   C36   1.412390 A    
C37   C39   1.404040 A    
C25   C27   1.393852 A    
O4    Cu1   1.948278 S    
C43   C45   1.415403 A    
N10   O23   1.301338 A    
C38   C40   1.404271 A    
C38   N6    1.425957 S    
C3    C5    1.456612 S    
Cu1   N1    2.003988 S    
C17   N10   1.444024 S    
N9    O21   1.301354 A    
C1    C30   1.468184 S    
C2    C29   1.468681 S    
N3    O10   1.301385 A    
C8    C10   1.392683 A    
C20   C30   1.402765 A    
C47   H19   1.082864 S    
C11   C17   1.473834 S    
N7    O18   1.301452 A    
C12   C18   1.473724 S    
Cu1   Cu2   2.666565 S    
C42   C51   1.503001 S    
N9    O22   1.301800 A    
C38   N2    1.370644 A    
O2    C2    1.294015 A    
Cu2   N2    2.003985 S    
N8    O19   1.301485 A    
C49   H21   1.083015 S    
C31   C36   1.401236 A    
C24   C26   1.406067 A    
C26   C28   1.393855 A    
C32   C35   1.401056 A    
C31   H13   1.083984 S    
C6    C16   1.400833 A    
C39   C41   1.402121 A    
C26   Cl4   1.761450 S    
C4    C6    1.452356 S    
C20   C22   1.392421 A    
C46   H18   1.080069 S    
C45   H17   1.081592 S    
C31   C33   1.398613 A    
C27   C29   1.404886 A    
C50   C52   1.409089 A    
C9    H6    1.083623 S    
C8    Cl2   1.761976 S    
C41   C43   1.419662 A    
C40   H16   1.083952 S    
C19   C21   1.392488 A    
O7    Cu2   1.952364 S    
C14   H4    1.083319 S    
C37   N5    1.426429 S    
C23   C25   1.406270 A    
C48   C50   1.406333 A    
C47   C49   1.406091 A    
O6    C4    1.288425 A    
N4    O12   1.301578 A    
O7    C3    1.290306 A    
O3    Cu2   1.948278 S    
O8    C4    1.287731 A    
C23   C36   1.467661 S    
C10   H5    1.083557 S    
C48   C51   1.407184 A    
O4    C2    1.291149 A    
C10   C12   1.404794 A    
C47   C52   1.407499 A    
N6    O16   1.299880 A    
C11   C13   1.398170 A    
C19   C29   1.402860 A    
C12   C14   1.398691 A    
O1    Cu1   1.948935 S    
C32   C34   1.398665 A    
C15   H2    1.083725 S    
C5    C7    1.406363 A    
C41   C52   1.503914 S    
O6    Cu2   1.963144 S    
C19   H7    1.082806 S    
C7    Cl1   1.761420 S    
C22   H10   1.083507 S    
O3    C1    1.291025 A    
O8    Cu1   1.952362 S    
C21   C23   1.401332 A    
N5    O14   1.300082 A    
C32   H14   1.084001 S    
C43   N7    1.438447 S    
C50   H22   1.082957 S    
C20   H8    1.082764 S    
C45   N1    1.364707 A    
C28   H12   1.083479 S    
N4    O11   1.301348 A    
C7    C9    1.392540 A    
C44   N8    1.438687 S    
C13   C15   1.390554 A    
O2    Cu2   1.948937 S    
N10   O24   1.301816 A    
C33   C35   1.412249 A    
C25   Cl3   1.761575 S    
C22   C24   1.401167 A    
C21   H9    1.083514 S    
C16   H1    1.083188 S    
C6    C8    1.404491 A    
N6    O15   1.300678 A    
C17   C18   1.361244 D    
C42   C44   1.418935 A    
C44   C46   1.415515 A    
C24   C35   1.467098 S    
N3    O9    1.301537 A    
C34   N4    1.440856 S    
C49   C51   1.408604 A    
C13   H3    1.083311 S    
