data_mof_unit_20218.cif
_audit_creation_date              2012-12-11T17:36:11-0500
_audit_creation_method            fapswitch 2.2
_symmetry_space_group_name_H-M    P1
_symmetry_Int_Tables_number       1
_space_group_crystal_system       triclinic
_cell_length_a                    25.822496
_cell_length_b                    6.908151
_cell_length_c                    21.670596
_cell_angle_alpha                 89.831756
_cell_angle_beta                  96.174462
_cell_angle_gamma                 90.037686
_cell_volume                      3843.28261772

loop_
_atom_site_label
_atom_site_type_symbol
_atom_type_description
_atom_site_fract_x
_atom_site_fract_y
_atom_site_fract_z
_atom_type_partial_charge
O1    O     O_R   0.208650 0.594520 0.175450 -0.538841
O2    O     O_R   0.791350 0.405480 0.824550 -0.537446
O3    O     O_R   0.291350 0.094520 0.324550 -0.538956
O4    O     O_R   0.708650 0.905480 0.675450 -0.537836
O5    O     O_R   0.192980 0.260780 0.300160 -0.541450
O6    O     O_R   0.807020 0.739220 0.699840 -0.541394
O7    O     O_R   0.307020 0.760780 0.199840 -0.534086
O8    O     O_R   0.692980 0.239220 0.800160 -0.541318
C1    C     C_R   0.178888 0.432503 0.318506 0.707030
C2    C     C_R   0.821112 0.567497 0.681494 0.707812
C3    C     C_R   0.321082 0.932818 0.181791 0.707091
C4    C     C_R   0.678806 0.067070 0.818424 0.709188
O9    O     O_R   0.202550 0.264660 0.174420 -0.530223
O10   O     O_R   0.797450 0.735340 0.825580 -0.530806
O11   O     O_R   0.297450 0.764660 0.325580 -0.531191
O12   O     O_R   0.702550 0.235340 0.674420 -0.531466
O13   O     O_R   0.300990 0.096480 0.197920 -0.542346
O14   O     O_R   0.699010 0.903520 0.802080 -0.540463
O15   O     O_R   0.199010 0.596480 0.302080 -0.540934
O16   O     O_R   0.800990 0.403520 0.697920 -0.540638
C5    C     C_R   0.190966 0.433710 0.151130 0.707641
C6    C     C_R   0.809060 0.566295 0.848850 0.707517
C7    C     C_R   0.309041 0.933236 0.348890 0.705662
C8    C     C_R   0.690936 0.066771 0.651134 0.708086
O17   O     O_3   0.282290 0.427760 0.257860 -0.363523
O18   O     O_3   0.717710 0.572240 0.742140 -0.364755
O19   O     O_3   0.217710 0.927760 0.242140 -0.365342
O20   O     O_3   0.782290 0.072240 0.757860 -0.364285
V1    V     V_3+5 0.244010 0.152080 0.248540 1.456017
V2    V     V_3+5 0.755990 0.847920 0.751460 1.457953
V3    V     V_3+5 0.255990 0.652080 0.251460 1.463720
V4    V     V_3+5 0.744010 0.347920 0.748540 1.457121
C9    C     C_R   0.657337 0.061003 0.591648 -0.071975
C10   C     C_R   0.342625 0.939088 0.408394 -0.070881
C11   C     C_R   0.842621 0.558284 0.908324 -0.071416
C12   C     C_R   0.157444 0.441775 0.091630 -0.070223
C13   C     C_R   0.647996 0.094932 0.480111 -0.054401
C14   C     C_R   0.351955 0.905398 0.519947 -0.055459
C15   C     C_R   0.851106 0.568553 0.020276 -0.052447
C16   C     C_R   0.149035 0.432059 0.979674 -0.056214
C17   C     C_R   0.678671 0.104736 0.536911 -0.182385
C18   C     C_R   0.321298 0.895293 0.463134 -0.182779
C19   C     C_R   0.820584 0.585883 0.963534 -0.182500
C20   C     C_R   0.179540 0.414775 0.036430 -0.187372
C21   C     C_R   0.603835 0.020810 0.589408 -0.091244
C22   C     C_R   0.396104 0.979699 0.410658 -0.091246
C23   C     C_R   0.896496 0.526621 0.910281 -0.088720
C24   C     C_R   0.103555 0.473075 0.089641 -0.088851
C25   C     C_R   0.570440 0.033748 0.532820 0.080267
C26   C     C_R   0.429496 0.966912 0.467253 0.079803
C27   C     C_R   0.929481 0.531403 0.967283 0.080769
C28   C     C_R   0.070601 0.468384 0.032615 0.080720
C29   C     C_R   0.594345 0.051616 0.477083 -0.033159
C30   C     C_R   0.405592 0.948990 0.522987 -0.031677
C31   C     C_R   0.905131 0.532762 0.022964 -0.031427
C32   C     C_R   0.094981 0.467345 0.976954 -0.029251
C33   C     C_R   0.514680 0.019052 0.529453 -0.131441
C34   C     C_R   0.485251 0.981729 0.470624 -0.132758
C35   C     C_R   0.985338 0.523415 0.970873 -0.129535
C36   C     C_R   0.014744 0.476228 0.029001 -0.129798
C37   C     C_R   0.512921 0.956030 0.417844 0.352684
C38   C     C_R   0.487007 0.044771 0.582232 0.354626
C39   C     C_R   0.986999 0.434523 0.080805 0.354662
C40   C     C_R   0.013082 0.565104 0.919064 0.355036
C41   C     C_R   0.565302 0.012017 0.419832 0.350879
C42   C     C_R   0.434623 0.988750 0.580239 0.351001
C43   C     C_R   0.934197 0.483826 0.079493 0.351562
C44   C     C_R   0.065909 0.516102 0.920409 0.350975
H1    H     H_    0.410492 0.027195 0.368210 0.157996
H2    H     H_    0.589434 0.973470 0.631863 0.159746
H3    H     H_    0.088494 0.508740 0.132733 0.158669
H4    H     H_    0.911521 0.490662 0.867191 0.158874
H5    H     H_    0.280262 0.860868 0.462104 0.113429
H6    H     H_    0.719720 0.138927 0.537933 0.113707
H7    H     H_    0.220977 0.388533 0.037203 0.110268
H8    H     H_    0.779170 0.612597 0.962782 0.114021
H9    H     H_    0.667083 0.118703 0.438708 0.185177
H10   H     H_    0.332870 0.881591 0.561350 0.184763
H11   H     H_    0.831591 0.579636 0.061837 0.185658
H12   H     H_    0.168587 0.421362 0.938131 0.183277
C45   C     C_R   0.402966 0.828652 0.049443 0.323910
C46   C     C_R   0.567180 0.207807 0.912575 0.321939
C47   C     C_R   0.067336 0.291265 0.413133 0.325291
C48   C     C_R   0.932675 0.708741 0.586888 0.325524
C49   C     C_R   0.364213 0.814490 0.090449 -0.225872
C50   C     C_R   0.607011 0.218999 0.872872 -0.148330
C51   C     C_R   0.107169 0.279878 0.373389 -0.153180
C52   C     C_R   0.892838 0.720121 0.626625 -0.153048
H13   H     H_    0.334315 0.704416 0.082662 0.119097
H14   H     H_    0.615080 0.357128 0.852132 0.134762
H15   H     H_    0.115102 0.141988 0.352697 0.134180
H16   H     H_    0.884904 0.858004 0.647322 0.134158
C53   C     C_R   0.363175 0.943904 0.140183 -0.082622
C54   C     C_R   0.636443 0.054985 0.860324 -0.105863
C55   C     C_R   0.136742 0.443845 0.360634 -0.105327
C56   C     C_R   0.863260 0.556158 0.639369 -0.105519
C57   C     C_R   0.401838 0.087496 0.148752 -0.128991
C58   C     C_R   0.625465 0.878569 0.888963 -0.155158
C59   C     C_R   0.126141 0.620013 0.389268 -0.155668
C60   C     C_R   0.873858 0.379999 0.610729 -0.155427
H17   H     H_    0.401872 0.189485 0.186628 0.147169
H18   H     H_    0.647404 0.749157 0.880974 0.133483
H19   H     H_    0.148215 0.749254 0.381155 0.133480
H20   H     H_    0.851781 0.250762 0.618833 0.133570
C61   C     C_R   0.441252 0.099296 0.109101 -0.184162
C62   C     C_R   0.586564 0.866726 0.929156 -0.157385
C63   C     C_R   0.087429 0.631957 0.429575 -0.167955
C64   C     C_R   0.912574 0.368062 0.570425 -0.167555
H21   H     H_    0.470830 0.210388 0.117101 0.150867
H22   H     H_    0.579727 0.729749 0.951215 0.167512
H23   H     H_    0.080811 0.768876 0.451556 0.164876
H24   H     H_    0.919190 0.231150 0.548439 0.164976
C65   C     C_R   0.442031 0.971732 0.058939 0.078889
C66   C     C_R   0.556961 0.029390 0.941287 0.055066
C67   C     C_R   0.057621 0.469669 0.441777 0.059880
C68   C     C_R   0.942387 0.530347 0.558235 0.059806
C69   C     C_1   0.482407 0.991647 0.017178 0.013684
C70   C     C_1   0.516207 0.009087 0.982590 -0.032936
C71   C     C_1   0.016947 0.490818 0.482878 -0.039217
C72   C     C_1   0.983062 0.509202 0.517135 -0.039128
Cl1   Cl    Cl    0.595468 0.011156 0.350072 -0.512871
Cl2   Cl    Cl    0.404446 0.989681 0.649993 -0.526945
Cl3   Cl    Cl    0.903680 0.462359 0.148709 -0.526220
Cl4   Cl    Cl    0.096443 0.537684 0.851207 -0.530598
Cl5   Cl    Cl    0.487719 0.815257 0.353038 -0.569875
Cl6   Cl    Cl    0.512215 0.185500 0.647055 -0.583162
Cl7   Cl    Cl    0.012956 0.282304 0.142690 -0.584082
Cl8   Cl    Cl    0.987077 0.716958 0.857107 -0.584307
N1    N     N_2   0.401799 0.701063 0.998024 -0.514773
H25   H     H_    0.364956 0.684593 0.975039 0.266180
C73   C     C_3   0.426149 0.516362 0.013185 -0.549905
H26   H     H_    0.426300 0.428641 0.970379 0.211328
H27   H     H_    0.403979 0.436458 0.046317 0.196849
H28   H     H_    0.466994 0.537287 0.034000 0.207778
N2    N     N_2   0.539313 0.378801 0.924785 -0.566937
H29   H     H_    0.523036 0.379130 0.966111 0.254092
C74   C     C_3   0.504396 0.450207 0.873079 -0.466117
H30   H     H_    0.486170 0.587251 0.886480 0.215380
H31   H     H_    0.473186 0.342402 0.860072 0.219882
H32   H     H_    0.525961 0.480757 0.832468 0.225547
N3    N     N_2   0.038815 0.121077 0.425335 -0.567641
H33   H     H_    0.020956 0.122707 0.465634 0.256172
C75   C     C_3   0.005480 0.046386 0.372863 -0.466252
H34   H     H_    0.986245 0.911600 0.386727 0.199957
H35   H     H_    0.028519 0.010732 0.334004 0.222988
H36   H     H_    0.974982 0.154353 0.357052 0.225760
N4    N     N_2   0.961204 0.878925 0.574701 -0.567379
H37   H     H_    0.979081 0.877293 0.534416 0.256214
C76   C     C_3   0.994517 0.953635 0.627189 -0.467217
H38   H     H_    0.013750 0.088440 0.613338 0.199822
H39   H     H_    0.025018 0.845694 0.643013 0.225505
H40   H     H_    0.971463 0.989262 0.666035 0.223103

loop_
_geom_bond_atom_site_label_1
_geom_bond_atom_site_label_2
_ccdc_geom_bond_type
O17   V3    S    
C75   H36   S    
C59   H19   S    
C52   C56   A    
O1    C5    A    
C51   H15   S    
O19   V1    S    
C9    C21   A    
O12   C8    A    
O3    C7    A    
N4    H37   S    
C10   C18   A    
C60   H20   S    
C73   H28   S    
O15   V3    S    
C44   Cl4   S    
C25   C33   A    
N2    H29   S    
C5    C12   S    
O7    C3    A    
C6    C11   S    
C74   H31   S    
C35   C40   A    
C26   C30   A    
C62   C66   A    
C36   C39   A    
C39   Cl7   S    
C40   C44   A    
C61   C65   A    
N4    C76   S    
C14   C18   A    
C76   H39   S    
C62   H22   S    
O4    C8    A    
C55   C59   A    
C54   C58   A    
C75   H34   S    
C75   H35   S    
O1    V3    S    
O13   V1    S    
C31   C43   A    
O2    V4    S    
C46   N2    S    
O3    V1    S    
C22   H1    S    
C50   C54   A    
C17   H6    S    
C49   C53   A    
C1    O15   A    
C15   C31   A    
C52   H16   S    
C2    O16   A    
C16   C32   A    
C51   C55   A    
O2    C6    A    
C42   Cl2   S    
C10   C22   A    
C21   C25   A    
C11   C19   A    
C1    C55   S    
C16   C20   A    
C13   C29   A    
C3    C53   S    
C34   C37   A    
O11   C7    A    
C11   C23   A    
C35   C36   A    
C48   C68   A    
C4    C54   S    
O10   V2    S    
O5    V1    S    
O17   V1    S    
C74   H32   S    
C39   C43   A    
C60   C64   A    
O7    V3    S    
C38   C42   A    
O19   V3    S    
O8    V4    S    
C47   C67   A    
O20   V4    S    
C46   C66   A    
C50   H14   S    
C76   H40   S    
C47   N3    S    
C49   H13   S    
O18   V4    S    
C15   C19   A    
C14   H10   S    
C40   Cl8   S    
C32   C44   A    
C13   H9    S    
C64   H24   S    
C26   C34   A    
C20   H7    S    
O5    C1    A    
C58   H18   S    
C45   N1    S    
C14   C30   A    
C2    C56   S    
O8    C4    A    
C7    C10   S    
C57   H17   S    
C16   H12   S    
O9    C5    A    
C63   C67   A    
C66   C70   S    
C65   C69   S    
O6    V2    S    
O18   V2    S    
C41   Cl1   S    
N3    H33   S    
O14   V2    S    
C12   C20   A    
C27   C35   A    
C33   C38   A    
C24   H3    S    
C45   C65   A    
C73   H26   S    
C53   C57   A    
C29   C41   A    
C38   Cl6   S    
N1    H25   S    
O16   V4    S    
C48   N4    S    
O9    V1    S    
C19   H8    S    
N2    C74   S    
C61   H21   S    
C3    O13   A    
C18   H5    S    
C21   H2    S    
C63   H23   S    
C48   C52   A    
C73   H27   S    
C43   Cl3   S    
C47   C51   A    
O6    C2    A    
C23   C27   A    
C71   C72   T    
O11   V3    S    
C30   C42   A    
O12   V4    S    
C59   C63   A    
C74   H30   S    
C22   C26   A    
C67   C71   S    
C8    C9    S    
C58   C62   A    
C9    C17   A    
O10   C6    A    
N3    C75   S    
C57   C61   A    
C46   C50   A    
C76   H38   S    
C64   C68   A    
C33   C34   A    
C25   C29   A    
C56   C60   A    
O20   V2    S    
C12   C24   A    
C27   C31   A    
C37   C41   A    
C13   C17   A    
O4    V2    S    
C23   H4    S    
C68   C72   S    
C24   C28   A    
C28   C36   A    
C4    O14   A    
C37   Cl5   S    
C69   C70   T    
C45   C49   A    
C28   C32   A    
C15   H11   S    
N1    C73   S    
