data_mof_unit_34473.cif
_audit_creation_date              2012-10-26T21:10:26-0400
_audit_creation_method            fapswitch 2.2
_symmetry_space_group_name_H-M    P1
_symmetry_Int_Tables_number       1
_space_group_crystal_system       triclinic
_cell_length_a                    10.88216
_cell_length_b                    10.921424
_cell_length_c                    9.696266
_cell_angle_alpha                 90.160038
_cell_angle_beta                  90.888301
_cell_angle_gamma                 90.316876
_cell_volume                      1152.22755456

loop_
_atom_site_label
_atom_site_type_symbol
_atom_type_description
_atom_site_fract_x
_atom_site_fract_y
_atom_site_fract_z
_atom_type_partial_charge
C1    C     C_R   0.504038 0.265534 0.499902 0.552623
C2    C     C_R   0.821955 0.531236 0.985626 -0.177118
C3    C     C_R   0.786184 0.412705 0.021922 -0.077026
C4    C     C_R   0.262232 0.502471 0.498657 0.543891
C5    C     C_R   0.797080 0.315659 0.928252 0.298319
C6    C     C_R   0.849908 0.338219 0.798564 -0.064134
C7    C     C_R   0.886231 0.457194 0.762383 0.016665
C8    C     C_2   0.504008 0.933288 0.393493 -0.142671
C9    C     C_2   0.466765 0.864702 0.500706 -0.007285
C10   C     C_2   0.493389 0.066502 0.388633 -0.156030
C11   C     C_2   0.516468 0.134068 0.501187 -0.125165
C12   C     C_R   0.207994 0.597640 0.977915 -0.103870
C13   C     C_2   0.450883 0.412943 0.921074 -0.024450
C14   C     C_2   0.453671 0.411430 0.076671 -0.001738
C15   C     C_R   0.493219 0.734432 0.500110 0.567164
C16   C     C_R   0.737728 0.499210 0.501455 0.551180
C17   C     C_R   0.208797 0.689951 0.078131 -0.110024
C18   C     C_R   0.161276 0.666766 0.208745 -0.060628
C19   C     C_R   0.112902 0.550722 0.239216 0.057563
C20   C     C_R   0.112365 0.458502 0.138426 -0.080308
C21   C     C_R   0.160526 0.481749 0.008625 -0.109414
C22   C     C_3   0.685844 0.141932 0.872981 -0.132886
C23   C     C_R   0.931465 0.522649 0.380257 -0.153295
C24   C     C_3   0.385968 0.911581 0.615258 -0.396835
C25   C     C_R   0.871631 0.500064 0.504242 -0.001805
C26   C     C_R   0.941180 0.481017 0.626614 -0.030543
C27   C     C_R   0.068220 0.483907 0.620722 -0.156138
C28   C     C_R   0.128194 0.505239 0.496524 -0.008057
C29   C     C_R   0.058533 0.526102 0.374726 -0.034847
C30   C     C_R   0.872133 0.553530 0.856475 -0.090094
Cu1   Cu    Cu3+1 0.500020 0.500020 0.638630 0.916300
Cu2   Cu    Cu3+1 0.499980 0.499980 0.361370 0.931065
H1    H     H_    0.245165 0.615603 0.877052 0.133775
H2    H     H_    0.246198 0.779377 0.054595 0.098710
H3    H     H_    0.534501 0.574913 0.106852 0.200728
H4    H     H_    0.161763 0.738818 0.285747 0.100027
H5    H     H_    0.074999 0.368688 0.160661 0.112305
H6    H     H_    0.161960 0.409050 0.932893 0.096769
H7    H     H_    0.879178 0.539431 0.286417 0.130438
H8    H     H_    0.120533 0.467300 0.714120 0.129947
H9    H     H_    0.900317 0.645622 0.829785 0.118889
H10   H     H_    0.811257 0.605962 0.057857 0.109227
H11   H     H_    0.739423 0.103579 0.786575 0.112793
H12   H     H_    0.748675 0.396149 0.122939 0.156127
H13   H     H_    0.613208 0.204765 0.833589 0.133687
H14   H     H_    0.638566 0.064141 0.923376 0.130722
H15   H     H_    0.315612 0.841405 0.640743 0.130176
H16   H     H_    0.442481 0.929909 0.709442 0.117655
H17   H     H_    0.334296 0.994772 0.584842 0.135204
H18   H     H_    0.864231 0.263975 0.726543 0.094760
H19   H     H_    0.548251 0.890566 0.306061 0.135155
H20   H     H_    0.472929 0.109006 0.289805 0.143804
H21   H     H_    0.545241 0.091947 0.597496 0.095897
H22   H     H_    0.405176 0.337001 0.869012 0.127598
H23   H     H_    0.545026 0.569186 0.894901 0.208032
H24   H     H_    0.413280 0.332556 0.126694 0.135319
N1    N     N_2   0.498640 0.498660 0.846910 -0.352265
N2    N     N_2   0.498610 0.498630 0.153040 -0.349486
O1    O     O_R   0.500020 0.321960 0.617040 -0.513040
O2    O     O_R   0.499980 0.321920 0.382900 -0.492962
O3    O     O_R   0.319660 0.500030 0.617070 -0.513665
O4    O     O_R   0.319620 0.499990 0.382930 -0.478873
O5    O     O_R   0.500020 0.678080 0.617100 -0.498496
O6    O     O_R   0.499980 0.678040 0.382960 -0.507387
O7    O     O_R   0.680380 0.500010 0.617070 -0.483723
O8    O     O_R   0.680340 0.499970 0.382930 -0.513607
O9    O     O_3   0.764205 0.199149 0.971331 -0.574651

loop_
_geom_bond_atom_site_label_1
_geom_bond_atom_site_label_2
_ccdc_geom_bond_type
C12   C17   A    
C14   H24   S    
C15   O6    A    
C9    C24   S    
C6    C7    A    
C4    O3    A    
C11   H21   S    
Cu2   N2    S    
C13   H22   S    
Cu1   O3    S    
C22   H11   S    
C1    C11   S    
C2    C30   A    
C27   H8    S    
C5    O9    S    
C4    O4    A    
C10   H20   S    
Cu1   N1    S    
C1    O1    A    
C17   C18   A    
C9    C15   S    
Cu2   O4    S    
C30   H9    S    
C7    C30   A    
C13   C14   S    
C6    H18   S    
C20   H5    S    
C8    H19   S    
C26   C27   A    
C7    C26   S    
C2    H10   S    
H3    N2    S    
C23   H7    S    
C23   C29   A    
C8    C10   S    
C28   C29   A    
C22   H14   S    
C2    C3    A    
C3    H12   S    
H23   N1    S    
C12   H1    S    
C5    C6    A    
C14   N2    D    
C22   O9    S    
C16   O8    A    
C10   C11   D    
Cu2   O2    S    
C19   C29   S    
Cu1   O5    S    
C16   C25   S    
C23   C25   A    
C13   N1    D    
C20   C21   A    
Cu2   O6    S    
C24   H17   S    
Cu2   O8    S    
C22   H13   S    
C17   H2    S    
C1    O2    A    
Cu1   O1    S    
C27   C28   A    
Cu1   O7    S    
C15   O5    A    
C18   C19   A    
C16   O7    A    
C4    C28   S    
C25   C26   A    
C24   H15   S    
C18   H4    S    
C12   C21   A    
Cu1   Cu2   S    
C21   H6    S    
C19   C20   A    
C8    C9    D    
C3    C5    A    
C24   H16   S    
