data_mof_unit_8905.cif
_audit_creation_date              2013-03-05T16:35:50-0500
_audit_creation_method            fapswitch 2.2
_symmetry_space_group_name_H-M    P1
_symmetry_Int_Tables_number       1
_space_group_crystal_system       triclinic
_cell_length_a                    23.480334
_cell_length_b                    9.307251
_cell_length_c                    7.766302
_cell_angle_alpha                 90.175712
_cell_angle_beta                  90.318303
_cell_angle_gamma                 88.550805
_cell_volume                      1696.65083188

loop_
_atom_site_label
_atom_site_type_symbol
_atom_site_description
_atom_site_fract_x
_atom_site_fract_y
_atom_site_fract_z
_atom_type_partial_charge
O1    O     O_R   0.500000 0.288390 0.642760 -0.584692
O2    O     O_R   0.500000 0.711610 0.357240 -0.575286
O3    O     O_R   0.500000 0.711610 0.642760 -0.581993
O4    O     O_R   0.500000 0.288390 0.357240 -0.572930
C1    C     C_R   0.500132 0.219607 0.499844 0.822706
C2    C     C_R   0.500050 0.780388 0.500164 0.827447
O5    O     O_R   0.417880 0.500000 0.642820 -0.566042
O6    O     O_R   0.582120 0.500000 0.357180 -0.556030
O7    O     O_R   0.582120 0.500000 0.642820 -0.559743
O8    O     O_R   0.417880 0.500000 0.357180 -0.566492
C3    C     C_R   0.208077 0.554849 0.486222 0.024851
C4    C     C_R   0.790760 0.477359 0.463855 0.003757
C5    C     C_R   0.390495 0.505276 0.499092 0.917033
C6    C     C_R   0.609233 0.495832 0.500198 0.937108
Cu1   Cu    Cu3+1 0.500000 0.500000 0.669080 1.027756
Cu2   Cu    Cu3+1 0.500000 0.500000 0.330920 1.038585
C7    C     C_R   0.300625 0.597410 0.358100 0.266849
C8    C     C_R   0.698122 0.383710 0.385824 0.283723
C9    C     C_R   0.294612 0.463786 0.627124 0.299092
C10   C     C_R   0.704546 0.575255 0.599508 0.302976
C11   C     C_R   0.327697 0.522241 0.495166 -0.367039
C12   C     C_R   0.671608 0.483934 0.497670 -0.365503
C13   C     C_R   0.874989 0.615745 0.411289 0.656207
C14   C     C_R   0.124389 0.411483 0.452294 0.642535
C15   C     C_R   0.885865 0.363697 0.450536 0.632906
C16   C     C_R   0.113281 0.666396 0.455821 0.624048
N1    N     N_R   0.851628 0.484730 0.439174 -0.419388
N2    N     N_R   0.147264 0.544917 0.464119 -0.417990
C17   C     C_R   0.945303 0.373026 0.431110 -0.220365
C18   C     C_R   0.054082 0.655805 0.429852 -0.210113
C19   C     C_R   0.934357 0.631223 0.421204 -0.208396
C20   C     C_R   0.064928 0.396346 0.447598 -0.204787
C21   C     C_R   0.969763 0.508182 0.429519 -0.144099
C22   C     C_R   0.029679 0.520138 0.435784 -0.146253
C23   C     C_R   0.981138 0.251001 0.415425 0.414973
C24   C     C_R   0.018264 0.777082 0.402121 0.422818
C25   C     C_R   0.959109 0.766342 0.422241 0.402654
C26   C     C_R   0.039721 0.261082 0.448424 0.415207
C27   C     C_1   0.500189 0.064921 0.499805 -0.181639
C28   C     C_1   0.500166 0.935073 0.500227 -0.175172
C29   C     C_R   0.240760 0.617951 0.356754 0.371331
C30   C     C_R   0.757675 0.387482 0.358299 0.392075
C31   C     C_R   0.235374 0.486444 0.627943 0.383852
C32   C     C_R   0.764108 0.566272 0.589635 0.378083
N3    N     N_1   0.500000 0.500000 0.076820 -0.041453
N4    N     N_1   0.500000 0.500000 0.923180 -0.044734
O9    O     O_2   0.840799 0.730131 0.372887 -0.475750
O10   O     O_2   0.159335 0.294347 0.442781 -0.492835
O11   O     O_2   0.862993 0.235907 0.486594 -0.484201
O12   O     O_2   0.136295 0.796236 0.479286 -0.510164
O13   O     O_3   0.960218 0.123310 0.357071 -0.462936
C33   C     C_3   0.947106 0.136120 0.179624 -0.127471
H1    H     H_    0.984862 0.168334 0.104097 0.077888
H2    H     H_    0.910919 0.212976 0.156181 0.158989
H3    H     H_    0.933731 0.030055 0.130722 0.183301
O14   O     O_3   0.040117 0.905209 0.349534 -0.455720
C34   C     C_3   0.054353 0.893752 0.173276 -0.182503
H4    H     H_    0.016576 0.867398 0.093037 0.088380
H5    H     H_    0.089054 0.812494 0.150865 0.153003
H6    H     H_    0.070078 0.998797 0.129375 0.177905
O15   O     O_3   0.925883 0.887607 0.452383 -0.466313
C35   C     C_3   0.921489 0.906493 0.632486 -0.107095
H7    H     H_    0.964095 0.916600 0.694161 0.084668
H8    H     H_    0.898335 0.817010 0.692756 0.146686
H9    H     H_    0.896813 0.007058 0.658963 0.213251
O16   O     O_3   0.071966 0.138316 0.480651 -0.463819
C36   C     C_3   0.073273 0.116069 0.660453 -0.143086
H10   H     H_    0.029649 0.108823 0.714572 0.088133
H11   H     H_    0.096762 0.202468 0.727506 0.149771
H12   H     H_    0.096090 0.012764 0.687337 0.202655
O17   O     O_3   0.212808 0.686143 0.220706 -0.601921
C37   C     C_3   0.227968 0.832054 0.211978 -0.171984
H13   H     H_    0.264379 0.844895 0.123454 0.174609
H14   H     H_    0.237749 0.880281 0.340125 0.180260
H15   H     H_    0.191507 0.894768 0.156753 0.175885
O18   O     O_3   0.785850 0.298273 0.240152 -0.540868
C38   C     C_3   0.757758 0.292038 0.079041 -0.206680
H16   H     H_    0.730162 0.388180 0.050689 0.155163
H17   H     H_    0.732410 0.193177 0.071141 0.212949
H18   H     H_    0.790439 0.283703 0.976749 0.141715
O19   O     O_3   0.204536 0.425702 0.759711 -0.545299
C39   C     C_3   0.174991 0.534042 0.853660 -0.262925
H19   H     H_    0.132229 0.555621 0.796613 0.148275
H20   H     H_    0.198731 0.636030 0.864296 0.161063
H21   H     H_    0.168276 0.494219 0.986331 0.213361
O20   O     O_3   0.796063 0.659033 0.687983 -0.535480
C40   C     C_3   0.812885 0.589055 0.841001 -0.280644
H22   H     H_    0.834631 0.483430 0.815538 0.135448
H23   H     H_    0.775712 0.576919 0.926769 0.191341
H24   H     H_    0.843760 0.657141 0.909908 0.182538
O21   O     O_3   0.333214 0.656478 0.229652 -0.586383
C41   C     C_3   0.330695 0.568120 0.082028 -0.121373
H25   H     H_    0.341806 0.453741 0.111656 0.175273
H26   H     H_    0.362169 0.606010 0.987464 0.184768
H27   H     H_    0.288086 0.575844 0.019996 0.191160
O22   O     O_3   0.665246 0.284380 0.300702 -0.553142
C42   C     C_3   0.663995 0.158752 0.401513 -0.301142
H28   H     H_    0.636882 0.079579 0.335136 0.183857
H29   H     H_    0.644882 0.180763 0.530194 0.138177
H30   H     H_    0.707370 0.108935 0.416206 0.194968
O23   O     O_3   0.320125 0.384795 0.758205 -0.567280
C43   C     C_3   0.322326 0.238906 0.708478 -0.217037
H31   H     H_    0.348521 0.222123 0.590731 0.127378
H32   H     H_    0.278857 0.196696 0.688033 0.196230
H33   H     H_    0.342817 0.175525 0.813614 0.171870
O24   O     O_3   0.678706 0.671273 0.712743 -0.535478
C44   C     C_3   0.670690 0.804348 0.628392 -0.227907
H34   H     H_    0.712099 0.850931 0.591925 0.196468
H35   H     H_    0.649200 0.880875 0.718150 0.174212
H36   H     H_    0.642780 0.794347 0.512833 0.117402

loop_
_geom_bond_atom_site_label_1
_geom_bond_atom_site_label_2
_geom_bond_distance
_ccdc_geom_bond_type
C40   H22   1.113915 S    
O23   C43   1.410305 S    
C8    O22   1.383584 S    
C7    O21   1.384203 S    
O3    C2    1.280858 A    
C42   H28   1.109854 S    
C38   H16   1.113254 S    
O1    C1    1.279591 A    
C24   C25   1.404718 A    
C9    C11   1.408324 A    
C16   O12   1.347650 S    
C34   H5    1.111640 S    
O24   C44   1.410823 S    
Cu1   Cu2   2.626253 S    
C17   C21   1.396103 A    
O14   C34   1.413972 S    
C43   H33   1.109246 S    
C35   H8    1.111937 S    
C8    C30   1.417056 A    
C10   C32   1.401431 A    
C26   O16   1.377435 S    
C33   H2    1.111361 S    
C15   O11   1.348135 S    
C4    C30   1.413105 A    
C44   H34   1.112953 S    
C19   C21   1.399426 A    
C3    C31   1.415410 A    
O1    Cu1   1.979464 S    
C20   C26   1.404652 A    
O2    Cu2   1.979463 S    
O15   C35   1.413213 S    
C33   H3    1.108800 S    
C29   O17   1.387559 S    
O5    Cu1   1.937836 S    
O16   C36   1.412340 S    
O6    Cu2   1.937833 S    
C44   H35   1.109294 S    
O2    C2    1.279658 A    
C37   H15   1.108953 S    
C32   O20   1.383503 S    
C42   H29   1.114093 S    
C9    C31   1.401588 A    
O19   C39   1.412845 S    
C10   O24   1.383415 S    
C13   N1    1.368024 A    
C38   H17   1.109767 S    
C15   C17   1.409471 A    
C13   O9    1.350149 S    
C18   C22   1.400743 A    
C4    N1    1.446421 S    
O13   C33   1.415141 S    
C14   O10   1.349914 S    
C23   C26   1.403246 A    
O18   C38   1.412930 S    
C37   H14   1.115634 S    
O21   C41   1.410729 S    
O20   C40   1.406763 S    
C37   H13   1.109076 S    
C34   H6    1.109115 S    
N3    N4    1.193215 T    
C41   H27   1.108792 S    
C7    C11   1.414645 A    
C36   H10   1.113047 S    
C36   H11   1.112952 S    
C20   C22   1.404448 A    
O4    Cu2   1.980711 S    
O7    C6    1.280619 A    
C14   C20   1.407056 A    
C35   H7    1.112750 S    
C24   O14   1.374201 S    
O22   C42   1.410176 S    
C41   H26   1.109349 S    
C21   C22   1.414612 A    
C5    C11   1.479142 S    
C43   H32   1.113275 S    
C10   C12   1.403011 A    
C16   C18   1.409317 A    
C39   H20   1.115510 S    
C40   H23   1.109137 S    
C23   O13   1.372160 S    
C31   O19   1.386971 S    
C44   H36   1.113378 S    
C2    C28   1.439759 S    
C27   C28   1.208557 T    
C42   H30   1.113739 S    
O3    Cu1   1.980710 S    
C33   H1    1.113632 S    
C38   H18   1.108765 S    
O6    C6    1.277356 A    
C35   H9    1.107605 S    
C8    C12   1.408511 A    
C16   N2    1.368746 A    
C14   N2    1.368114 A    
O4    C1    1.280868 A    
O8    C5    1.279259 A    
Cu2   N3    1.973417 S    
C25   O15   1.375914 S    
C15   N1    1.370055 A    
C39   H21   1.109496 S    
C17   C23   1.401650 A    
C30   O18   1.394011 S    
C18   C24   1.406859 A    
C36   H12   1.108609 S    
C6    C12   1.466210 S    
C1    C27   1.439670 S    
O7    Cu1   1.940087 S    
O17   C37   1.414509 S    
C4    C32   1.416431 A    
O8    Cu2   1.940089 S    
C9    O23   1.382483 S    
C34   H4    1.113200 S    
C3    N2    1.442496 S    
C41   H25   1.114037 S    
C3    C29   1.407071 A    
C43   H31   1.113321 S    
C7    C29   1.413778 A    
C19   C25   1.398641 A    
O5    C5    1.285537 A    
C39   H19   1.109138 S    
C40   H24   1.109226 S    
Cu1   N4    1.973417 S    
C13   C19   1.406689 A    
