data_mof_unit_53186.cif
_audit_creation_date              2013-03-05T15:42:07-0500
_audit_creation_method            fapswitch 2.2
_symmetry_space_group_name_H-M    P1
_symmetry_Int_Tables_number       1
_space_group_crystal_system       triclinic
_cell_length_a                    21.953396
_cell_length_b                    7.206223
_cell_length_c                    14.904127
_cell_angle_alpha                 89.991347
_cell_angle_beta                  106.771133
_cell_angle_gamma                 89.991846
_cell_volume                      2257.55762345

loop_
_atom_site_label
_atom_site_type_symbol
_atom_site_description
_atom_site_fract_x
_atom_site_fract_y
_atom_site_fract_z
_atom_type_partial_charge
O1    O     O_R   0.584770 0.505770 0.002090 -0.555375
O2    O     O_R   0.415230 0.005770 0.997910 -0.555388
O3    O     O_R   0.467060 0.173340 0.861950 -0.552752
O4    O     O_R   0.532940 0.673340 0.138050 -0.552477
C1    C     C_R   0.455400 0.344320 0.825991 0.806069
C2    C     C_R   0.544597 0.844282 0.174014 0.805897
O5    O     O_R   0.587510 0.175890 0.993210 -0.558639
O6    O     O_R   0.412490 0.675890 0.006790 -0.558413
O7    O     O_R   0.536540 0.008150 0.130100 -0.538391
O8    O     O_R   0.463460 0.508150 0.869900 -0.538490
C3    C     C_R   0.612972 0.344897 0.997435 0.847173
C4    C     C_R   0.387026 0.844913 0.002559 0.847238
O9    O     O_3   0.483140 0.340040 0.044760 -0.275938
O10   O     O_3   0.516860 0.840040 0.955240 -0.276286
V1    V     V_3+5 0.503130 0.064190 0.991700 1.214575
V2    V     V_3+5 0.496870 0.564190 0.008300 1.214999
C5    C     C_2   0.213989 0.727532 0.003399 -0.012814
C6    C     C_2   0.786003 0.227566 0.996480 -0.013519
C7    C     C_2   0.180420 0.886772 0.996688 -0.169666
C8    C     C_2   0.819577 0.386796 0.003308 -0.169243
H1    H     H_    0.190768 0.596629 0.008652 0.144942
H2    H     H_    0.809217 0.096690 0.991107 0.144670
H3    H     H_    0.202113 0.019163 0.990367 0.089302
H4    H     H_    0.797890 0.519159 0.009731 0.089444
C9    C     C_2   0.281892 0.714526 0.003253 -0.017530
C10   C     C_2   0.718107 0.214519 0.996651 -0.017973
C11   C     C_2   0.319936 0.861380 0.003562 -0.160177
C12   C     C_2   0.680059 0.361357 0.996415 -0.159469
H5    H     H_    0.301039 0.575518 0.003436 0.118139
H6    H     H_    0.698966 0.075506 0.996414 0.117684
H7    H     H_    0.302033 0.001223 0.004191 0.085469
H8    H     H_    0.697955 0.501202 0.995820 0.085476
C13   C     C_R   0.922116 0.888583 0.725134 -0.135716
C14   C     C_R   0.077836 0.388254 0.274868 -0.135622
C15   C     C_R   0.571159 0.852451 0.275654 -0.090520
C16   C     C_R   0.428797 0.352689 0.724369 -0.091109
C17   C     C_R   0.929976 0.907788 0.567296 -0.052525
C18   C     C_R   0.069877 0.403708 0.432740 -0.052484
C19   C     C_R   0.958692 0.883059 0.662611 -0.154825
C20   C     C_R   0.041252 0.380180 0.337327 -0.154887
C21   C     C_R   0.855341 0.908942 0.691823 0.302058
C22   C     C_R   0.144553 0.409896 0.308299 0.302238
C23   C     C_R   0.824826 0.906899 0.593209 0.002879
C24   C     C_R   0.175049 0.406508 0.406906 0.002876
C25   C     C_R   0.863711 0.924298 0.532529 -0.020934
C26   C     C_R   0.136097 0.421406 0.467616 -0.020953
C27   C     C_R   0.757564 0.888981 0.552189 -0.041702
C28   C     C_R   0.242343 0.389478 0.447901 -0.041704
C29   C     C_R   0.730146 0.925075 0.454589 -0.039243
C30   C     C_R   0.269649 0.424144 0.545654 -0.039418
C31   C     C_R   0.770761 0.992056 0.402362 0.346471
C32   C     C_R   0.228855 0.488832 0.598114 0.346590
C33   C     C_R   0.836517 0.971110 0.438780 -0.114698
C34   C     C_R   0.163153 0.466849 0.561562 -0.114573
C35   C     C_R   0.717921 0.822225 0.604433 -0.028498
C36   C     C_R   0.282161 0.324937 0.395429 -0.028534
C37   C     C_R   0.652201 0.808301 0.566714 0.334927
C38   C     C_R   0.347909 0.311969 0.433137 0.334058
C39   C     C_R   0.624416 0.842986 0.470686 -0.044338
C40   C     C_R   0.375587 0.345367 0.529304 -0.045057
C41   C     C_R   0.663906 0.887544 0.412874 0.030500
C42   C     C_R   0.335969 0.387548 0.587254 0.030339
C43   C     C_R   0.558127 0.825809 0.430170 0.020287
C44   C     C_R   0.441917 0.329350 0.569792 0.019538
C45   C     C_R   0.531807 0.831488 0.333385 -0.048893
C46   C     C_R   0.468215 0.334070 0.666595 -0.050174
C47   C     C_R   0.636466 0.877580 0.314748 -0.004787
C48   C     C_R   0.363419 0.376373 0.685341 -0.005107
H9    H     H_    0.867104 0.007326 0.395867 0.115208
H10   H     H_    0.132462 0.501202 0.604597 0.115320
H11   H     H_    0.665249 0.879490 0.267056 0.104439
H12   H     H_    0.334632 0.376476 0.733032 0.104686
H13   H     H_    0.480946 0.814143 0.303398 0.119532
H14   H     H_    0.519126 0.317867 0.696550 0.120906
H15   H     H_    0.959742 0.916654 0.520705 0.081162
H16   H     H_    0.040073 0.410582 0.479341 0.081134
H17   H     H_    0.010031 0.871800 0.688324 0.081106
H18   H     H_    0.989950 0.367759 0.311539 0.081001
H19   H     H_    0.737482 0.768961 0.674400 0.161830
H20   H     H_    0.262741 0.272707 0.325238 0.161890
H21   H     H_    0.526189 0.805129 0.472600 0.152754
H22   H     H_    0.473917 0.310498 0.527310 0.154595
O11   O     O_R   0.036450 0.233070 0.130130 -0.549609
O12   O     O_R   0.963550 0.733070 0.869870 -0.549193
O13   O     O_R   0.912470 0.560570 0.006790 -0.545159
O14   O     O_R   0.087530 0.060570 0.993210 -0.545544
C49   C     C_R   0.886951 0.391944 0.002439 0.838995
C50   C     C_R   0.113047 0.891927 0.997554 0.839207
O15   O     O_R   0.032920 0.562940 0.138050 -0.552606
O16   O     O_R   0.967080 0.062940 0.861950 -0.553026
O17   O     O_R   0.084790 0.730500 0.002090 -0.548890
O18   O     O_R   0.915210 0.230500 0.997910 -0.549379
C51   C     C_R   0.045477 0.394595 0.174336 0.879614
C52   C     C_R   0.954511 0.894648 0.825664 0.879578
O19   O     O_3   0.016820 0.396170 0.955260 -0.285367
O20   O     O_3   0.983180 0.896170 0.044740 -0.285463
V3    V     V_3+5 0.996880 0.672090 0.008300 1.217461
V4    V     V_3+5 0.003120 0.172090 0.991700 1.216886
N1    N     N_R   0.821249 0.962368 0.757018 0.058038
O21   O     O_R   0.786161 0.111193 0.741842 -0.349780
O22   O     O_R   0.826489 0.866203 0.832810 -0.377816
N2    N     N_R   0.178544 0.465579 0.243336 0.058224
O23   O     O_R   0.213306 0.615004 0.259093 -0.350010
O24   O     O_R   0.173548 0.370824 0.167201 -0.378202
N3    N     N_R   0.747313 0.100333 0.318352 0.067859
O25   O     O_R   0.775391 0.092985 0.252519 -0.391513
O26   O     O_R   0.704034 0.226472 0.313581 -0.364773
N4    N     N_R   0.252015 0.595897 0.682567 0.067816
O27   O     O_R   0.223956 0.586150 0.748366 -0.391390
O28   O     O_R   0.294962 0.723268 0.687866 -0.365228
N5    N     N_R   0.615450 0.741659 0.625774 0.081495
O29   O     O_R   0.579853 0.595138 0.601593 -0.388367
O30   O     O_R   0.627029 0.804022 0.710989 -0.329399
N6    N     N_R   0.384846 0.247786 0.373826 0.081527
O31   O     O_R   0.420886 0.101940 0.397452 -0.387116
O32   O     O_R   0.373121 0.311734 0.288870 -0.329434

loop_
_geom_bond_atom_site_label_1
_geom_bond_atom_site_label_2
_geom_bond_distance
_ccdc_geom_bond_type
C43   C45   1.391150 A    
N5    O29   1.301248 A    
C14   C22   1.413069 A    
C14   C51   1.462016 S    
C33   H9    1.084402 S    
C13   C52   1.462084 S    
C2    O7    1.336795 A    
N6    O31   1.301331 A    
O19   V4    1.757000 S    
O18   V4    2.003299 S    
C27   C29   1.428457 A    
C18   H16   1.084071 S    
C2    C15   1.458955 S    
O5    C3    1.334028 A    
N3    O26   1.301843 A    
C13   C19   1.395173 A    
C43   H21   1.081487 S    
C14   C20   1.395159 A    
O12   V3    2.028208 S    
C19   H17   1.083705 S    
C16   C46   1.392237 A    
C37   C39   1.406749 A    
C15   C45   1.392292 A    
C38   C40   1.406771 A    
O11   C51   1.324073 A    
C1    C16   1.458834 S    
C45   H13   1.083588 S    
N4    O27   1.301809 A    
C40   C42   1.424193 A    
C8    H4    1.082522 S    
C32   C34   1.396048 A    
C29   C31   1.426345 A    
O11   V4    2.028389 S    
C6    C10   1.494274 S    
C30   C32   1.426459 A    
C21   N1    1.439521 S    
C6    C8    1.351753 D    
C48   H12   1.078821 S    
C28   C30   1.428471 A    
C17   H15   1.084048 S    
O2    C4    1.325434 A    
O6    V2    2.013811 S    
C49   O18   1.329253 A    
C21   C23   1.428620 A    
C22   C24   1.428585 A    
C22   N2    1.439508 S    
C24   C26   1.417028 A    
O16   C52   1.324220 A    
O13   C49   1.331884 A    
C9    H5    1.085993 S    
C39   C41   1.424148 A    
C29   C41   1.432737 A    
C4    C11   1.481997 S    
C11   H7    1.082646 S    
C12   H8    1.082652 S    
O4    C2    1.338420 A    
C7    C50   1.483313 S    
C5    H1    1.085821 S    
O15   V3    2.025014 S    
C31   C33   1.396083 A    
C44   C46   1.391178 A    
O4    V2    2.025404 S    
C7    H3    1.082523 S    
C35   H19   1.077304 S    
C41   C47   1.413698 A    
N1    O21   1.301486 A    
C34   H10   1.084445 S    
C50   O17   1.329279 A    
C15   C47   1.394928 A    
O6    C4    1.333970 A    
O20   V3    1.757072 S    
C26   C34   1.393130 A    
N5    O30   1.301361 A    
O1    V2    2.003099 S    
O12   C52   1.324187 A    
O17   V3    2.003408 S    
N2    O24   1.301664 A    
O2    V1    2.003211 S    
C23   C25   1.417002 A    
C44   H22   1.081469 S    
N1    O22   1.301636 A    
C10   H6    1.085990 S    
C35   C37   1.392711 A    
C30   C42   1.432693 A    
C20   H18   1.083700 S    
C17   C25   1.401367 A    
O3    V1    2.025088 S    
C27   C35   1.409344 A    
C28   C36   1.409431 A    
C6    H2    1.085833 S    
C10   C12   1.347379 D    
O3    C1    1.338433 A    
N6    O32   1.301369 A    
C16   C48   1.394835 A    
C9    C11   1.347416 D    
N3    O25   1.301739 A    
C39   C43   1.410920 A    
C36   H20   1.077312 S    
C42   C48   1.413626 A    
C40   C44   1.410926 A    
C13   C21   1.413125 A    
O7    V1    2.020511 S    
C5    C9    1.494254 S    
C1    O8    1.336733 A    
C17   C19   1.389349 A    
O8    V2    2.020676 S    
C18   C20   1.389333 A    
C8    C49   1.483340 S    
C37   N5    1.437434 S    
N4    O28   1.301895 A    
C3    C12   1.482008 S    
O14   C50   1.331820 A    
O5    V1    2.014020 S    
C5    C7    1.351698 D    
C36   C38   1.392764 A    
C47   H11   1.078832 S    
O15   C51   1.324320 A    
N2    O23   1.301507 A    
O14   V4    2.013894 S    
C31   N3    1.438458 S    
C18   C26   1.401368 A    
O13   V3    2.014110 S    
C25   C33   1.393167 A    
C32   N4    1.438463 S    
O9    V2    1.757741 S    
C38   N6    1.437554 S    
O10   V1    1.757812 S    
O1    C3    1.325403 A    
C23   C27   1.431760 A    
O16   V4    2.025326 S    
C24   C28   1.431762 A    
C46   H14   1.083561 S    
