data_mof_unit_22340.cif
_audit_creation_date              2012-12-10T20:26:26-0500
_audit_creation_method            fapswitch 2.2
_symmetry_space_group_name_H-M    P1
_symmetry_Int_Tables_number       1
_space_group_crystal_system       triclinic
_cell_length_a                    10.653402
_cell_length_b                    10.667966
_cell_length_c                    9.855654
_cell_angle_alpha                 89.60188
_cell_angle_beta                  88.740532
_cell_angle_gamma                 90.14963
_cell_volume                      1119.79444181

loop_
_atom_site_label
_atom_site_type_symbol
_atom_type_description
_atom_site_fract_x
_atom_site_fract_y
_atom_site_fract_z
_atom_type_partial_charge
C1    C     C_R   0.505720 0.259779 0.500169 0.856258
C2    C     C_R   0.531447 0.128786 0.498721 -0.128194
C3    C     C_R   0.540553 0.065839 0.374140 -0.219480
C4    C     C_R   0.539239 0.936282 0.373499 -0.222141
C5    C     C_R   0.527896 0.871323 0.497352 -0.096792
C6    C     C_R   0.545670 0.934697 0.618312 0.078561
C7    C     C_3   0.476583 0.926445 0.751800 -0.471457
C8    C     C_3   0.486204 0.068928 0.755580 -0.108591
C9    C     C_R   0.442509 0.405414 0.073262 0.216388
C10   C     C_R   0.567566 0.586048 0.069774 -0.128271
C11   C     C_R   0.567945 0.585751 0.925662 -0.132115
C12   C     C_R   0.263205 0.512876 0.501569 0.970521
C13   C     C_R   0.441001 0.406691 0.931004 0.188957
C14   C     C_3   0.305451 0.372585 0.928991 -0.520334
C15   C     C_3   0.307330 0.369306 0.083071 -0.503008
C16   C     C_R   0.504526 0.740179 0.499357 0.879214
C17   C     C_R   0.737530 0.495602 0.498159 0.924542
C18   C     C_2   0.930735 0.575642 0.422158 -0.345103
C19   C     C_2   0.870251 0.481994 0.488985 -0.068071
C20   C     C_2   0.066787 0.575164 0.400231 0.585949
C21   C     C_2   0.133109 0.544857 0.508919 -0.473778
C22   C     C_R   0.550881 0.062735 0.619114 0.102097
H1    H     H_    0.878975 0.655980 0.384237 0.140276
H2    H     H_    0.619988 0.657018 0.122423 0.134550
H3    H     H_    0.621032 0.656203 0.869473 0.139365
H4    H     H_    0.246284 0.449092 0.887915 0.218370
H5    H     H_    0.289645 0.278964 0.883793 0.192697
H6    H     H_    0.248167 0.442592 0.130995 0.262416
H7    H     H_    0.294055 0.273578 0.126399 0.193681
H8    H     H_    0.088115 0.538854 0.608964 0.123819
H9    H     H_    0.537788 0.115288 0.277847 0.167653
H10   H     H_    0.536381 0.888519 0.276950 0.169358
H11   H     H_    0.378483 0.892669 0.740842 0.186540
H12   H     H_    0.529716 0.874818 0.829578 0.193772
H13   H     H_    0.392957 0.115131 0.750390 0.148328
N1    N     N_R   0.499170 0.499140 0.142800 -0.097504
N2    N     N_R   0.499170 0.499180 0.857150 -0.103149
O1    O     O_R   0.500020 0.316790 0.614690 -0.632677
O2    O     O_R   0.500000 0.316760 0.385350 -0.625695
O3    O     O_R   0.319080 0.500020 0.614640 -0.628490
O4    O     O_R   0.319070 0.499980 0.385300 -0.556849
O5    O     O_R   0.500000 0.683240 0.614650 -0.622519
O6    O     O_R   0.499980 0.683210 0.385310 -0.621691
O7    O     O_R   0.680930 0.500020 0.614700 -0.626487
O8    O     O_R   0.680920 0.499980 0.385360 -0.628132
Zn1   Zn    Zn3+2 0.500010 0.500020 0.653130 0.924120
Zn2   Zn    Zn3+2 0.499990 0.499980 0.346870 0.955967
C23   C     C_3   0.569249 0.124640 0.867292 -0.354430
C24   C     C_3   0.698276 0.062599 0.885901 -0.339541
C25   C     C_3   0.779891 0.140731 0.978835 -0.904700
H14   H     H_    0.798128 0.234755 0.933228 0.263414
H15   H     H_    0.732767 0.151897 0.079728 0.262250
H16   H     H_    0.871261 0.093057 0.992939 0.251616
H17   H     H_    0.686817 0.968196 0.932551 0.209704
H18   H     H_    0.748179 0.052866 0.786582 0.235119
H19   H     H_    0.585628 0.224580 0.841007 0.222605
H20   H     H_    0.515749 0.120938 0.965361 0.186752
C26   C     C_3   0.929547 0.356677 0.528785 -0.450141
C27   C     C_3   0.838981 0.244578 0.521443 -0.329899
C28   C     C_3   0.906772 0.120724 0.544940 -0.899112
H21   H     H_    0.980961 0.106591 0.465611 0.265564
H22   H     H_    0.950028 0.119820 0.646480 0.261632
H23   H     H_    0.838580 0.042056 0.539941 0.252524
H24   H     H_    0.763866 0.254115 0.600636 0.227991
H25   H     H_    0.795398 0.242154 0.419992 0.225302
H26   H     H_    0.010436 0.336239 0.459365 0.221230
H27   H     H_    0.963770 0.363084 0.634186 0.204737
O9    O     O_3   0.127366 0.609303 0.278127 -0.586779
C29   C     C_3   0.044979 0.613614 0.168007 -0.343699
H28   H     H_    0.980955 0.695376 0.176430 0.167252
H29   H     H_    0.991337 0.524482 0.158785 0.172450
H30   H     H_    0.101537 0.626101 0.072989 0.185288

loop_
_geom_bond_atom_site_label_1
_geom_bond_atom_site_label_2
_ccdc_geom_bond_type
C2    C22   A    
C29   H30   S    
C8    C22   S    
C8    C23   S    
C11   N2    A    
C12   O3    A    
C6    C7    S    
C12   O4    A    
C14   H5    S    
C9    N1    A    
C21   H8    S    
C13   N2    A    
N2    Zn1   S    
C10   H2    S    
C20   C21   D    
C2    C3    A    
O4    Zn2   S    
C17   O7    A    
C29   H29   S    
C27   C28   S    
C24   H18   S    
C13   C14   S    
C14   H4    S    
C3    H9    S    
C7    H11   S    
C16   O6    A    
C26   H26   S    
C27   H24   S    
C4    H10   S    
C1    O1    A    
C28   H21   S    
C28   H23   S    
C5    C6    A    
O2    Zn2   S    
C23   C24   S    
C17   C19   S    
O7    Zn1   S    
C15   H7    S    
C18   C20   S    
O8    Zn2   S    
C19   C26   S    
C9    C15   S    
C29   H28   S    
C24   C25   S    
O1    Zn1   S    
C25   H16   S    
C7    C8    S    
C10   C11   A    
O3    Zn1   S    
C15   H6    S    
C24   H17   S    
C6    C22   A    
C11   H3    S    
C16   O5    A    
C26   H27   S    
C23   H20   S    
C7    H12   S    
N1    Zn2   S    
C28   H22   S    
C1    C2    S    
O5    Zn1   S    
C25   H15   S    
C23   H19   S    
C1    O2    A    
C14   C15   S    
C18   C19   D    
C5    C16   S    
C9    C13   A    
C25   H14   S    
C26   C27   S    
O9    C29   S    
O6    Zn2   S    
C12   C21   S    
C20   O9    S    
C27   H25   S    
C3    C4    A    
C18   H1    S    
C17   O8    A    
C4    C5    A    
C10   N1    A    
C8    H13   S    
