data_mof_unit_25714.cif
_audit_creation_date              2013-03-05T15:45:36-0500
_audit_creation_method            fapswitch 2.2
_symmetry_space_group_name_H-M    P1
_symmetry_Int_Tables_number       1
_space_group_crystal_system       triclinic
_cell_length_a                    8.477923
_cell_length_b                    14.923165
_cell_length_c                    18.961825
_cell_angle_alpha                 93.244894
_cell_angle_beta                  94.292968
_cell_angle_gamma                 92.361157
_cell_volume                      2385.94685758

loop_
_atom_site_label
_atom_site_type_symbol
_atom_site_description
_atom_site_fract_x
_atom_site_fract_y
_atom_site_fract_z
_atom_type_partial_charge
P1    P     P_3+3 0.937730 0.712710 0.546710 0.486413
O1    O     O_2   0.108370 0.727470 0.525290 -0.334274
O2    O     O_3   0.865330 0.611210 0.531230 -0.412057
O3    O     O_3   0.346360 0.671710 0.401620 -0.284116
O4    O     O_2   0.252643 0.830845 0.437070 -0.397004
O5    O     O_3   0.920925 0.753119 0.636366 -0.609221
O6    O     O_3   0.306406 0.810771 0.306336 -0.495886
C1    C     C_3   0.400518 0.904465 0.214847 -0.609205
P2    P     P_3+3 0.357970 0.428340 0.344000 0.496600
P3    P     P_3+3 0.911667 0.612636 0.275400 0.525136
O7    O     O_2   0.182890 0.456530 0.332150 -0.359082
O8    O     O_3   0.933230 0.625130 0.368420 -0.395118
O9    O     O_2   0.056500 0.563696 0.250325 -0.340605
O10   O     O_3   0.338498 0.310981 0.332517 -0.518332
O11   O     O_3   0.930820 0.720024 0.243171 -0.445104
C2    C     C_3   0.887181 0.783086 0.295391 0.564492
H1    H     H_    0.976490 0.788012 0.341650 0.120098
H2    H     H_    0.769395 0.763889 0.313370 -0.017012
C3    C     C_3   0.879073 0.875416 0.265351 -0.895553
H3    H     H_    0.000098 0.903976 0.260167 0.283960
H4    H     H_    0.810769 0.870759 0.212873 0.281459
C4    C     C_3   0.803613 0.323414 0.321142 0.413234
H5    H     H_    0.683228 0.340730 0.335098 0.077911
H6    H     H_    0.888614 0.382285 0.328733 0.101764
C5    C     C_3   0.794731 0.292173 0.242109 -0.656135
H7    H     H_    0.737552 0.345327 0.211945 0.112394
Ba1   Ba    Ba6+2 0.150350 0.545800 0.464500 1.607414
C6    C     C_3   0.976271 0.710194 0.697443 0.258900
C7    C     C_3   0.899466 0.753688 0.761895 -0.714354
H8    H     H_    0.919731 0.827444 0.765046 0.306895
H9    H     H_    0.950151 0.729771 0.812940 0.255391
H10   H     H_    0.772138 0.734980 0.759641 0.226100
C8    C     C_3   0.309074 0.273928 0.396734 0.445688
H11   H     H_    0.196710 0.297919 0.415419 0.062065
H12   H     H_    0.407504 0.291350 0.437754 0.124144
C9    C     C_3   0.296529 0.172210 0.384505 -0.848929
H13   H     H_    0.193840 0.151581 0.346501 0.291072
H14   H     H_    0.280828 0.140274 0.434694 0.202921
H15   H     H_    0.406742 0.147898 0.363472 0.284235
P4    P     P_3+3 0.872570 0.287280 0.453240 0.502127
O12   O     O_2   0.701930 0.272470 0.474700 -0.361351
O13   O     O_3   0.944970 0.388780 0.468720 -0.360884
O14   O     O_3   0.463940 0.328280 0.598320 -0.326780
O15   O     O_3   0.857683 0.254741 0.362363 -0.548463
P5    P     P_3+3 0.903028 0.374867 0.723359 0.542898
O16   O     O_3   0.372010 0.546630 0.581240 -0.387842
O17   O     O_3   0.877070 0.374860 0.631520 -0.366450
O18   O     O_2   0.772274 0.433777 0.750391 -0.278571
O19   O     O_3   0.843518 0.269019 0.749121 -0.488631
Ba2   Ba    Ba6+2 0.659830 0.454190 0.535450 1.625354
P6    P     P_3+3 0.378726 0.788089 0.392880 0.497744
C10   C     C_3   0.430714 0.823374 0.261581 0.205739
H16   H     H_    0.546233 0.838738 0.291385 -0.004719
H17   H     H_    0.516698 0.926224 0.196073 0.164992
O20   O     O_3   0.438280 0.453360 0.418700 -0.439185
C11   C     C_3   0.544098 0.740755 0.653403 0.330722
H18   H     H_    0.659738 0.718999 0.639742 0.093997
H19   H     H_    0.466843 0.740883 0.603450 0.127166
C12   C     C_3   0.551189 0.833973 0.693130 -0.717069
H20   H     H_    0.574099 0.827165 0.751046 0.212070
H21   H     H_    0.434687 0.863726 0.687675 0.250338
P7    P     P_3+3 0.452083 0.571662 0.669466 0.507048
O21   O     O_2   0.627420 0.543410 0.667830 -0.331903
O22   O     O_3   0.483473 0.682980 0.701192 -0.575934
H22   H     H_    0.820549 0.922054 0.301494 0.200767
C13   C     C_3   0.969465 0.211321 0.747111 0.217156
H23   H     H_    0.979795 0.187072 0.691143 0.116719
H24   H     H_    0.083072 0.245235 0.768735 0.077985
C14   C     C_3   0.933060 0.131380 0.792336 -0.571132
H25   H     H_    0.815528 0.101730 0.771943 0.164495
P8    P     P_3+3 0.436334 0.214381 0.606653 0.515342
C15   C     C_3   0.449498 0.207085 0.748361 0.240664
H26   H     H_    0.320145 0.202238 0.734754 0.041683
O23   O     O_2   0.546289 0.175266 0.552265 -0.361031
O24   O     O_3   0.530885 0.181633 0.687861 -0.499396
C16   C     C_3   0.492560 0.145971 0.811156 -0.499600
H27   H     H_    0.616150 0.163897 0.831204 0.150287
C17   C     C_R   0.015460 0.946588 0.532819 -0.227884
C18   C     C_R   0.832529 0.805883 0.495495 0.207082
C19   C     C_R   0.675982 0.782490 0.470988 -0.326569
C20   C     C_R   0.583554 0.834685 0.427082 0.197576
C21   C     C_R   0.641484 0.922319 0.415318 -0.347174
C22   C     C_R   0.783960 0.959610 0.451505 0.122285
C23   C     C_R   0.883719 0.901827 0.491717 -0.009813
H28   H     H_    0.619255 0.726230 0.492587 0.127017
C24   C     C_R   0.948578 0.099308 0.494282 0.008028
C25   C     C_R   0.054112 0.041433 0.529147 -0.032264
C26   C     C_R   0.982655 0.197260 0.502879 0.253898
C27   C     C_R   0.118551 0.229629 0.546258 -0.482377
C28   C     C_R   0.230365 0.171456 0.573605 0.123966
C29   C     C_R   0.199559 0.079257 0.561967 -0.190207
C30   C     C_R   0.816475 0.055697 0.453452 -0.128534
H29   H     H_    0.566547 0.964739 0.384226 0.164196
H30   H     H_    0.146529 0.301194 0.552315 0.157238
H31   H     H_    0.734072 0.096663 0.424827 0.179088
C31   C     C_R   0.622088 0.521873 0.295098 -0.516100
C32   C     C_R   0.474046 0.479001 0.275411 0.247571
C33   C     C_R   0.424959 0.465460 0.203358 -0.146022
C34   C     C_R   0.524390 0.492900 0.151195 0.032377
C35   C     C_R   0.674182 0.534902 0.172641 -0.186050
C36   C     C_R   0.722506 0.550416 0.244658 0.149281
C37   C     C_R   0.480898 0.562545 0.035587 -0.195972
C38   C     C_R   0.421165 0.562063 0.964945 -0.133303
C39   C     C_R   0.342545 0.484916 0.931436 0.158314
C40   C     C_R   0.324376 0.408519 0.970477 -0.237537
C41   C     C_R   0.388445 0.406667 0.040822 -0.052100
C42   C     C_R   0.466160 0.485639 0.074775 0.111139
C43   C     C_R   0.145647 0.433825 0.829516 -0.181179
C44   C     C_R   0.100730 0.424376 0.756846 0.228802
C45   C     C_R   0.337423 0.512697 0.733245 0.389784
C46   C     C_R   0.380737 0.522925 0.806032 -0.261579
C47   C     C_R   0.287751 0.481522 0.854809 0.027565
C48   C     C_R   0.199047 0.462061 0.708932 -0.442751
H32   H     H_    0.489594 0.560546 0.824050 0.149346
H33   H     H_    0.434897 0.622697 0.936802 0.148820
H34   H     H_    0.537307 0.624165 0.060041 0.183844
H35   H     H_    0.309021 0.434182 0.188039 0.136555
H36   H     H_    0.265677 0.348347 0.944990 0.193441
H37   H     H_    0.068228 0.405657 0.866223 0.174934
H38   H     H_    0.751230 0.557464 0.133531 0.154132
H39   H     H_    0.163837 0.455724 0.652771 0.140383
C49   C     C_2   0.444892 0.738866 0.215905 0.970674
O25   O     O_2   0.562235 0.728918 0.183100 -0.693401
O26   O     O_R   0.317983 0.675561 0.207077 -0.691579
H40   H     H_    0.328579 0.629843 0.166523 0.313078
C50   C     C_2   0.696496 0.205921 0.224298 0.878722
H41   H     H_    0.684343 0.177939 0.169969 0.004793
O27   O     O_2   0.629781 0.166927 0.269382 -0.572523
C51   C     C_2   0.958168 0.283141 0.217194 0.580708
H42   H     H_    0.006419 0.333535 0.184661 0.006358
O28   O     O_2   0.039108 0.221042 0.234543 -0.517653
C52   C     C_2   0.146901 0.727514 0.709028 1.040962
O29   O     O_2   0.222465 0.713015 0.658549 -0.606299
O30   O     O_R   0.217961 0.760160 0.775256 -0.779107
H43   H     H_    0.336020 0.770733 0.777532 0.359886
C53   C     C_2   0.943087 0.611719 0.694960 0.419119
H44   H     H_    0.947131 0.569198 0.647221 0.087679
O31   O     O_2   0.924127 0.577503 0.750575 -0.582826
C54   C     C_2   0.287528 0.881058 0.150171 1.148147
O32   O     O_2   0.329413 0.894678 0.091228 -0.595541
O33   O     O_R   0.137189 0.842580 0.157484 -0.749367
H45   H     H_    0.073682 0.829406 0.110321 0.340879
C55   C     C_2   0.671587 0.900291 0.672290 1.182170
O34   O     O_2   0.758164 0.941551 0.718401 -0.635693
O35   O     O_R   0.673023 0.923269 0.602617 -0.817888
H46   H     H_    0.735057 0.982048 0.598595 0.343203
C56   C     C_2   0.342659 0.984129 0.256296 0.599978
H47   H     H_    0.312256 0.979289 0.310573 0.065687
O36   O     O_2   0.328112 0.055608 0.228709 -0.513873
C57   C     C_2   0.048928 0.058281 0.784142 1.155073
O37   O     O_2   0.044059 0.993631 0.820952 -0.533284
O38   O     O_R   0.155704 0.061438 0.731825 -0.836474
H48   H     H_    0.217071 0.004914 0.728058 0.362467
C58   C     C_2   0.923611 0.159804 0.870013 1.116375
O39   O     O_2   0.955542 0.237457 0.892366 -0.621144
O40   O     O_R   0.872921 0.096554 0.916098 -0.754385
H49   H     H_    0.869017 0.123002 0.966347 0.326297
C59   C     C_2   0.498632 0.302639 0.772868 1.061875
O41   O     O_2   0.487968 0.360184 0.730578 -0.606966
O42   O     O_R   0.560406 0.325806 0.842492 -0.796454
H50   H     H_    0.592345 0.391886 0.851009 0.340714
C60   C     C_2   0.393907 0.160679 0.873732 0.632562
H51   H     H_    0.426670 0.129964 0.922953 0.084795
O43   O     O_2   0.279067 0.207044 0.870473 -0.666286
C61   C     C_2   0.491226 0.048037 0.789000 0.583798
H52   H     H_    0.532481 0.028746 0.738776 0.131033
O44   O     O_2   0.450188 0.989842 0.827548 -0.557452
C62   C     C_2   0.336328 0.024315 0.565957 1.062328
O45   O     O_2   0.406587 0.013420 0.622938 -0.658219
O46   O     O_R   0.386867 0.986715 0.503688 -0.800677
H53   H     H_    0.469717 0.942720 0.514956 0.351320
C63   C     C_2   0.075763 0.908201 0.598816 1.111658
O47   O     O_2   0.007374 0.922930 0.651812 -0.584691
O48   O     O_R   0.215806 0.863666 0.605014 -0.773355
H54   H     H_    0.270366 0.855871 0.560070 0.327734
C64   C     C_2   0.377189 0.319267 0.074085 0.497661
H55   H     H_    0.288538 0.268228 0.052918 0.060515
O49   O     O_2   0.470198 0.301265 0.122853 -0.608722
C65   C     C_2   0.671099 0.536772 0.369635 1.125064
O50   O     O_2   0.764015 0.488347 0.398457 -0.600081
O51   O     O_R   0.606885 0.604587 0.408384 -0.790973
H56   H     H_    0.611841 0.591971 0.460123 0.339701

loop_
_geom_bond_atom_site_label_1
_geom_bond_atom_site_label_2
_geom_bond_distance
_ccdc_geom_bond_type
C17   C25   1.446341 A    
C13   H24   1.108668 S    
P4    O12   1.542486 D    
C61   H52   1.067374 S    
C25   C29   1.419296 A    
C16   C60   1.513204 S    
C3    H3    1.108104 S    
C15   C16   1.571029 S    
C5    C51   1.505798 S    
O10   C8    1.400372 S    
C32   C33   1.399070 A    
O51   H56   1.007514 S    
C43   C44   1.399523 A    
C22   C30   1.446863 A    
C7    H8    1.104529 S    
O16   P7    1.771263 S    
C1    C54   1.513840 S    
C14   C57   1.507001 S    
C6    C7    1.550173 S    
C3    H4    1.110365 S    
O6    C10   1.414860 S    
C60   H51   1.085562 S    
C7    H10   1.100896 S    
P3    O11   1.752804 S    
P3    C36   1.857385 S    
C5    C50   1.511545 S    
C18   C23   1.486128 A    
C19   C20   1.392810 A    
C24   C26   1.475786 A    
C13   C14   1.542388 S    
C41   C42   1.422699 A    
C55   O34   1.219877 D    
C8    C9    1.520655 S    
C15   C59   1.506623 S    
C11   H18   1.090142 S    
P1    O1    1.542137 D    
C27   H30   1.082207 S    
O48   H54   1.003003 S    
P7    O22   1.737494 S    
C45   C46   1.399524 A    
C10   C49   1.503135 S    
O5    C6    1.413912 S    
C56   H47   1.085130 S    
C52   O29   1.205472 D    
C4    C5    1.539475 S    
C50   O27   1.221039 D    
C11   O22   1.396543 S    
C64   H55   1.085887 S    
O1    Ba1   2.931302 S    
C35   H38   1.082892 S    
P5    O19   1.745525 S    
C1    C10   1.558271 S    
C58   O40   1.398363 S    
Ba1   Ba2   4.642217 S    
C44   C48   1.403243 A    
C62   O46   1.383147 S    
C13   H23   1.112618 S    
C12   C55   1.482878 S    
C12   H20   1.111941 S    
C61   O44   1.222533 D    
C21   H29   1.082261 S    
C31   C36   1.399676 A    
C59   O42   1.402369 S    
Ba2   O21   2.811447 S    
C43   H37   1.082011 S    
C14   H25   1.106706 S    
C15   O24   1.423796 S    
C4    H5    1.110351 S    
C39   C40   1.403460 A    
O2    Ba2   2.870224 S    
C63   O48   1.384947 S    
O35   H46   1.013599 S    
O17   Ba2   2.834341 S    
C60   O43   1.217302 D    
P5    O17   1.738856 S    
C2    C3    1.522648 S    
C4    O15   1.395372 S    
C12   H21   1.099736 S    
O19   C13   1.400390 S    
O8    Ba1   2.833827 S    
P1    O5    1.789238 S    
C29   C62   1.447303 S    
C16   C61   1.496995 S    
O14   P8    1.723944 S    
C16   H27   1.104399 S    
C53   O31   1.215823 D    
C1    H17   1.114255 S    
C39   C47   1.489370 S    
C24   C25   1.422415 A    
C2    H1    1.112100 S    
O3    P6    1.766112 S    
C5    H7    1.110344 S    
C30   H31   1.082770 S    
C20   C21   1.413409 A    
C43   C47   1.411477 A    
P1    O2    1.613481 S    
O40   H49   1.013873 S    
C38   H33   1.082755 S    
P2    O10   1.752019 S    
C19   H28   1.067252 S    
C57   O38   1.393567 S    
P4    O13   1.613482 S    
C34   C35   1.413935 A    
P7    C45   1.846030 S    
O7    Ba1   2.811469 S    
C31   C32   1.400209 A    
P7    O21   1.563789 D    
C17   C63   1.471429 S    
C8    H11   1.107001 S    
C37   C42   1.408388 A    
C10   H16   1.102297 S    
O38   H48   1.011040 S    
P2    O7    1.562969 D    
C45   C48   1.402260 A    
C58   O39   1.223588 D    
P3    O8    1.758107 S    
O13   Ba2   2.984995 S    
P2    O20   1.544058 S    
Ba1   O16   2.793536 S    
C52   O30   1.403799 S    
C62   O45   1.216622 D    
C21   C22   1.420155 A    
C59   O41   1.209204 D    
P1    C18   1.948649 S    
C4    H6    1.108993 S    
C40   H36   1.079634 S    
C22   C23   1.441599 A    
C1    C56   1.507196 S    
C49   O26   1.396253 S    
C9    H14   1.102550 S    
O12   Ba2   2.931902 S    
O3    Ba1   2.829594 S    
C63   O47   1.211209 D    
P2    Ba1   3.434316 S    
C33   H35   1.082800 S    
C51   H42   1.085542 S    
P5    O18   1.542318 D    
C55   O35   1.384348 S    
P6    C20   1.897485 S    
C9    H13   1.109456 S    
P2    C32   1.863623 S    
C46   C47   1.411522 A    
C56   O36   1.221075 D    
C6    C53   1.482261 S    
C9    H15   1.109548 S    
Ba2   O20   2.793104 S    
C15   H26   1.106087 S    
P3    O9    1.545692 D    
P8    O23   1.547212 D    
C54   O32   1.223011 D    
O14   Ba2   2.828895 S    
O30   H43   1.004143 S    
C65   O50   1.211859 D    
C34   C42   1.491958 S    
C40   C41   1.404252 A    
O16   Ba2   3.011647 S    
Ba1   O20   3.012500 S    
C14   C58   1.518383 S    
C11   C12   1.540754 S    
O42   H50   1.012554 S    
P4    C26   1.917448 S    
O2    Ba1   2.984127 S    
C49   O25   1.221900 D    
O6    P6    1.764323 S    
C7    H9    1.112816 S    
C24   C30   1.424899 A    
O33   H45   1.013701 S    
P8    O24   1.784719 S    
C54   O33   1.395940 S    
Ba1   O13   2.869637 S    
C28   C29   1.391903 A    
P8    C28   1.884349 S    
C50   H41   1.085404 S    
P4    Ba2   3.498384 S    
C64   O49   1.218784 D    
C35   C36   1.399607 A    
C8    H12   1.109513 S    
C11   H19   1.110676 S    
C3    H22   1.107080 S    
C46   H32   1.082603 S    
P5    C44   1.855778 S    
C31   C65   1.445190 S    
C37   C38   1.395649 A    
C37   H34   1.082406 S    
C18   C19   1.396564 A    
C17   C23   1.431896 A    
P4    O15   1.757494 S    
C48   H39   1.082021 S    
C26   C27   1.415824 A    
C2    H2    1.110818 S    
C33   C34   1.413811 A    
O46   H53   1.000734 S    
C38   C39   1.401428 A    
P1    Ba1   3.497798 S    
C41   C64   1.483248 S    
C57   O37   1.223497 D    
O4    P6    1.543235 D    
C65   O51   1.371671 S    
C6    C52   1.457006 S    
C27   C28   1.402261 A    
C53   H44   1.079189 S    
O11   C2    1.407497 S    
O26   H40   1.010393 S    
C51   O28   1.221072 D    
