data_mof_unit_43330.cif
_audit_creation_date              2012-12-11T14:48:12-0500
_audit_creation_method            fapswitch 2.2
_symmetry_space_group_name_H-M    P1
_symmetry_Int_Tables_number       1
_space_group_crystal_system       triclinic
_cell_length_a                    11.523886
_cell_length_b                    11.560129
_cell_length_c                    19.542214
_cell_angle_alpha                 90.414572
_cell_angle_beta                  89.992194
_cell_angle_gamma                 60.189519
_cell_volume                      2258.79520965

loop_
_atom_site_label
_atom_site_type_symbol
_atom_type_description
_atom_site_fract_x
_atom_site_fract_y
_atom_site_fract_z
_atom_type_partial_charge
C1    C     C_R   0.640480 0.117048 0.599257 0.542957
C2    C     C_1   0.653208 0.149303 0.668626 0.004280
C3    C     C_R   0.576453 0.633239 0.307706 -0.133971
C4    C     C_R   0.612487 0.745892 0.598588 0.537195
C5    C     C_R   0.578476 0.633433 0.238094 -0.124239
C6    C     C_R   0.686681 0.627701 0.202644 -0.034365
C7    C     C_R   0.799634 0.615840 0.240014 0.006500
C8    C     C_R   0.788887 0.629941 0.312059 -0.000368
C9    C     C_R   0.670221 0.651067 0.343899 -0.050478
C10   C     C_R   0.234427 0.242263 0.288085 -0.119186
C11   C     C_R   0.214505 0.253684 0.218455 -0.146240
C12   C     C_1   0.641198 0.703856 0.667946 0.006085
C13   C     C_R   0.168486 0.178078 0.185325 0.012521
C14   C     C_R   0.174564 0.066804 0.218691 0.269174
C15   C     C_R   0.195453 0.053566 0.290132 -0.005193
C16   C     C_R   0.240962 0.145139 0.598135 0.543599
C17   C     C_R   0.217091 0.148416 0.325702 -0.059777
C18   C     C_R   0.711177 0.034348 0.284377 -0.093330
C19   C     C_R   0.710517 0.058215 0.214857 -0.006450
C20   C     C_R   0.663154 0.188997 0.192420 -0.015379
C21   C     C_R   0.601709 0.295992 0.239012 -0.143365
C22   C     C_R   0.598048 0.271844 0.308344 -0.148498
C23   C     C_1   0.126633 0.199407 0.859300 0.006302
C24   C     C_R   0.657883 0.140439 0.331359 -0.003414
C25   C     C_R   0.081594 0.231638 0.928587 0.546026
C26   C     C_R   0.683892 0.604789 0.929517 0.550332
C27   C     C_R   0.708347 0.207028 0.930132 0.541279
C28   C     C_R   0.644077 0.111041 0.401812 0.536430
C29   C     C_R   0.089779 0.231621 0.122811 0.554511
C30   C     C_R   0.689374 0.600329 0.129405 0.537920
C31   C     C_R   0.706085 0.211694 0.126217 0.520794
C32   C     C_R   0.621890 0.729813 0.406226 0.531599
C33   C     C_R   0.252530 0.136310 0.398531 0.531497
C34   C     C_1   0.171398 0.170218 0.727695 -0.030115
C35   C     C_1   0.670585 0.646724 0.860135 0.004104
C36   C     C_1   0.654827 0.683709 0.728395 -0.030068
C37   C     C_1   0.663629 0.666828 0.799672 -0.030494
C38   C     C_2   0.764787 0.945556 0.166344 0.207600
C39   C     C_2   0.927944 0.586730 0.206090 0.342650
C40   C     C_2   0.897593 0.625560 0.355215 0.321703
C41   C     C_3   0.058598 0.957956 0.190885 -0.005063
C42   C     C_2   0.193829 0.942510 0.326631 0.265164
C43   C     C_1   0.150091 0.182646 0.798939 -0.029830
C44   C     C_1   0.195184 0.160613 0.667337 0.003878
C45   C     C_1   0.678461 0.191580 0.860786 0.004976
C46   C     C_1   0.658712 0.167017 0.729019 -0.030112
C47   C     C_1   0.665649 0.180999 0.800336 -0.029649
Cr1   Cr    Cr6+3 0.404720 0.198220 0.499960 1.040077
Cr2   Cr    Cr6+3 0.698290 0.897110 0.500380 1.052570
Cr3   Cr    Cr6+3 0.396970 0.904720 0.499610 1.047463
Cr4   Cr    Cr6+3 0.926180 0.152240 0.028110 1.043297
Cr5   Cr    Cr6+3 0.921340 0.452070 0.027460 1.030167
Cr6   Cr    Cr6+3 0.626260 0.447120 0.028700 1.044656
H1    H     H_    0.491081 0.636454 0.332724 0.197122
H2    H     H_    0.926251 0.567626 0.401882 0.088064
H3    H     H_    0.031055 0.930792 0.141512 0.195965
H4    H     H_    0.972149 0.052610 0.210290 0.107871
H5    H     H_    0.078324 0.875831 0.226227 0.204880
H6    H     H_    0.135167 0.962131 0.373096 0.113006
H7    H     H_    0.563454 0.397498 0.222394 0.141105
H8    H     H_    0.551303 0.354930 0.343992 0.130081
H9    H     H_    0.494683 0.634680 0.212260 0.185455
H10   H     H_    0.264111 0.308139 0.312233 0.188358
H11   H     H_    0.226435 0.328267 0.191124 0.187508
H12   H     H_    0.748430 0.933018 0.301537 0.200306
H13   H     H_    0.718408 0.955127 0.116805 0.117326
H14   H     H_    0.931766 0.618107 0.154749 0.187211
O1    O     O_R   0.267740 0.231990 0.575440 -0.502976
O2    O     O_R   0.596140 0.579600 0.952720 -0.497781
O3    O     O_R   0.639070 0.321380 0.958660 -0.494044
O4    O     O_R   0.527280 0.186680 0.570530 -0.495000
O5    O     O_R   0.821240 0.124490 0.104360 -0.537709
O6    O     O_R   0.036900 0.167320 0.097830 -0.471242
O7    O     O_R   0.056190 0.349890 0.102870 -0.528605
O8    O     O_R   0.797670 0.565150 0.097930 -0.535857
O9    O     O_R   0.595880 0.584540 0.104260 -0.505582
O10   O     O_R   0.638830 0.325960 0.099140 -0.501849
O11   O     O_3   0.824590 0.350480 0.028090 -0.262066
O12   O     O_R   0.685970 0.784630 0.430010 -0.503670
O13   O     O_R   0.728090 0.003480 0.576380 -0.503344
O14   O     O_R   0.682970 0.789220 0.570490 -0.499390
O15   O     O_R   0.499290 0.771920 0.575530 -0.507078
O16   O     O_R   0.285330 0.030900 0.569730 -0.495040
O17   O     O_R   0.270980 0.227040 0.423900 -0.514312
O18   O     O_R   0.530280 0.182090 0.430050 -0.501930
O19   O     O_R   0.731330 0.998530 0.424830 -0.496991
O20   O     O_2   0.867743 0.844087 0.179858 -0.557429
O21   O     O_2   0.034080 0.529285 0.236128 -0.505698
O22   O     O_2   0.948762 0.693238 0.341643 -0.445696
O23   O     O_R   0.502530 0.766960 0.423990 -0.496923
O24   O     O_3   0.175548 0.965562 0.179627 -0.544704
O25   O     O_2   0.260244 0.827969 0.305943 -0.498555
O26   O     O_R   0.288330 0.026310 0.429250 -0.502625
O27   O     O_3   0.499990 0.000020 0.499980 -0.260097
O28   O     O_R   0.821500 0.119550 0.952820 -0.505596
O29   O     O_R   0.037130 0.162750 0.957360 -0.491705
O30   O     O_R   0.056440 0.344950 0.951330 -0.505974
O31   O     O_R   0.797900 0.560570 0.957460 -0.492518

loop_
_geom_bond_atom_site_label_1
_geom_bond_atom_site_label_2
_ccdc_geom_bond_type
C27   O28   A    
C10   H10   S    
Cr5   O8    S    
Cr6   O2    S    
C7    C8    A    
C2    C46   T    
C18   H12   S    
C1    O4    A    
Cr1   O27   S    
C18   C24   A    
C13   C29   S    
C36   C37   S    
C35   C37   T    
C41   H5    S    
C18   C19   A    
Cr5   O7    S    
C5    C6    A    
C3    H1    S    
C29   O6    A    
C10   C17   A    
Cr5   O30   S    
C23   C43   T    
C1    C2    S    
Cr2   O14   S    
C9    C32   S    
Cr3   O23   S    
C32   O23   A    
C4    O14   A    
C38   H13   S    
C8    C9    A    
C16   O1    A    
Cr2   O27   S    
C12   C36   T    
C16   C44   S    
Cr4   O29   S    
C27   C45   S    
C13   C14   A    
C17   C33   S    
C39   O21   D    
Cr5   O11   S    
Cr6   O3    S    
Cr3   O16   S    
C31   O10   A    
C45   C47   T    
C24   C28   S    
C34   C44   T    
C21   H7    S    
C11   H11   S    
Cr3   O27   S    
C29   O7    A    
C16   O16   A    
Cr2   O12   S    
Cr6   O10   S    
C41   H3    S    
C3    C9    A    
C19   C38   S    
C30   O9    A    
C40   H2    S    
Cr1   O1    S    
C27   O3    A    
C26   O31   A    
C25   O30   A    
C31   O5    A    
C41   O24   S    
C28   O19   A    
C40   O22   D    
C22   C24   A    
Cr6   O9    S    
C4    C12   S    
Cr4   O5    S    
Cr1   O4    S    
Cr3   O15   S    
C15   C17   A    
C46   C47   S    
C6    C30   S    
C14   C15   A    
C39   H14   S    
Cr2   O19   S    
C34   C43   S    
Cr4   O6    S    
C15   C42   S    
C3    C5    A    
C33   O26   A    
C42   H6    S    
Cr3   O26   S    
C6    C7    A    
Cr2   O13   S    
C38   O20   D    
C19   C20   A    
Cr6   O11   S    
Cr4   O11   S    
C41   H4    S    
C32   O12   A    
C30   O8    A    
C11   C13   A    
Cr5   O31   S    
C5    H9    S    
C42   O25   D    
C23   C25   S    
C33   O17   A    
C14   O24   S    
C10   C11   A    
Cr1   O17   S    
C26   C35   S    
C4    O15   A    
C20   C21   A    
C25   O29   A    
C28   O18   A    
C26   O2    A    
C7    C39   S    
Cr1   O18   S    
C1    O13   A    
C8    C40   S    
C21   C22   A    
Cr4   O28   S    
C22   H8    S    
C20   C31   S    
