data_mof_unit_11218.cif
_audit_creation_date              2012-12-11T17:07:50-0500
_audit_creation_method            fapswitch 2.2
_symmetry_space_group_name_H-M    P1
_symmetry_Int_Tables_number       1
_space_group_crystal_system       triclinic
_cell_length_a                    17.160246
_cell_length_b                    17.469722
_cell_length_c                    17.700699
_cell_angle_alpha                 89.301266
_cell_angle_beta                  89.16663
_cell_angle_gamma                 89.547004
_cell_volume                      5305.28485729

loop_
_atom_site_label
_atom_site_type_symbol
_atom_type_description
_atom_site_fract_x
_atom_site_fract_y
_atom_site_fract_z
_atom_type_partial_charge
C1    C     C_R   0.395335 0.308179 0.888728 -0.159666
C2    C     C_R   0.198505 0.890464 0.402290 -0.142127
C3    C     C_R   0.713397 0.832981 0.270280 0.135414
C4    C     C_R   0.137577 0.222023 0.796643 0.092322
C5    C     C_R   0.306526 0.790572 0.677055 0.122679
C6    C     C_R   0.779132 0.686572 0.648157 0.129694
C7    C     C_R   0.706431 0.185000 0.711936 0.144602
C8    C     C_R   0.703764 0.214635 0.784827 0.097872
C9    C     C_R   0.762786 0.657504 0.721299 0.105374
C10   C     C_R   0.320992 0.777595 0.754011 0.101236
C11   C     C_R   0.182669 0.277457 0.835858 0.158112
C12   C     C_R   0.679077 0.798370 0.206277 0.144127
C13   C     C_R   0.102239 0.187367 0.378351 -0.160772
C14   C     C_R   0.815324 0.291312 0.163918 0.119859
C15   C     C_R   0.280572 0.190021 0.156671 0.135208
C16   C     C_R   0.234745 0.664504 0.259825 0.111991
C17   C     C_3   0.825690 0.399900 0.575794 -0.355789
C18   C     C_3   0.895778 0.419192 0.624818 -0.926064
C19   C     C_3   0.581077 0.886151 0.629731 -0.355324
C20   C     C_3   0.586205 0.929044 0.704539 -0.937873
C21   C     C_3   0.102501 0.596893 0.645483 -0.371559
C22   C     C_3   0.047981 0.625162 0.708635 -0.901745
C23   C     C_3   0.304772 0.044864 0.786960 -0.347512
C24   C     C_R   0.815507 0.096331 0.371858 -0.175804
C25   C     C_3   0.246307 0.054793 0.852584 -0.885055
C26   C     C_3   0.948924 0.683779 0.257370 -0.362783
C27   C     C_3   0.953660 0.749413 0.199284 -0.854789
C28   C     C_3   0.812258 0.038766 0.187979 -0.352421
C29   C     C_3   0.868641 0.074491 0.130011 -0.877252
C30   C     C_3   0.041397 0.191359 0.198899 -0.342073
C31   C     C_3   0.088400 0.136153 0.148670 -0.861202
C32   C     C_3   0.361992 0.900255 0.295782 -0.348636
C33   C     C_3   0.305910 0.890782 0.229527 -0.887415
C34   C     C_3   0.501415 0.735103 0.328493 -0.356352
C35   C     C_R   0.889372 0.194398 0.603160 -0.173158
C36   C     C_3   0.488552 0.680369 0.395596 -0.888030
C37   C     C_3   0.088877 0.401437 0.166429 -0.343789
C38   C     C_3   0.120481 0.442011 0.235921 -0.937045
C39   C     C_3   0.607889 0.098957 0.137876 -0.375136
C40   C     C_3   0.557442 0.126311 0.204702 -0.906189
C41   C     C_3   0.779931 0.548217 0.258474 -0.357882
C42   C     C_3   0.708469 0.562171 0.309592 -0.852177
C43   C     C_3   0.436924 0.205573 0.721720 -0.361460
C44   C     C_3   0.411848 0.249554 0.650199 -0.872350
C45   C     C_3   0.298426 0.534366 0.708934 -0.350280
C46   C     C_R   0.167921 0.075949 0.642664 -0.136036
C47   C     C_3   0.368546 0.574756 0.673122 -0.886156
C48   C     C_3   0.537662 0.675534 0.669323 -0.351390
C49   C     C_3   0.582579 0.627808 0.611035 -0.905576
C50   C     C_3   0.638109 0.429826 0.688982 -0.335899
C51   C     C_3   0.579311 0.367373 0.670939 -0.894752
C52   C     C_3   0.157554 0.628449 0.374187 -0.368972
C53   C     C_3   0.179921 0.623334 0.456930 -0.948058
C54   C     C_3   0.324680 0.101273 0.260650 -0.385510
C55   C     C_3   0.372267 0.128787 0.327454 -0.912470
C56   C     C_3   0.866914 0.339310 0.286222 -0.348189
C57   C     C_R   0.106240 0.803260 0.601285 -0.163301
C58   C     C_3   0.816987 0.356201 0.356457 -0.918645
C59   C     C_3   0.688630 0.914764 0.288119 -0.317107
C60   C     C_3   0.622560 0.920358 0.347343 -1.002659
C61   C     C_3   0.052641 0.205432 0.818257 -0.301826
C62   C     C_3   0.994015 0.264903 0.787954 -0.983344
C63   C     C_3   0.369598 0.827792 0.628737 -0.385234
C64   C     C_3   0.372114 0.799773 0.547651 -0.945221
C65   C     C_3   0.814898 0.634670 0.588190 -0.379939
C66   C     C_3   0.789243 0.654347 0.507973 -0.931411
C67   C     C_3   0.648786 0.123207 0.692289 -0.392208
C68   C     C_R   0.801697 0.894879 0.601414 -0.152039
C69   C     C_3   0.606773 0.140781 0.618050 -0.929370
C70   C     C_3   0.694180 0.160865 0.852779 -0.371849
C71   C     C_3   0.757438 0.173409 0.911076 -0.893249
C72   C     C_3   0.823335 0.604791 0.756182 -0.376415
C73   C     C_3   0.864563 0.642610 0.821873 -0.890394
C74   C     C_3   0.361434 0.840831 0.796631 -0.362959
C75   C     C_3   0.320386 0.860248 0.871358 -0.893136
C76   C     C_3   0.141046 0.332771 0.888665 -0.326790
C77   C     C_3   0.162618 0.319187 0.970405 -0.959991
C78   C     C_3   0.610918 0.840183 0.167428 -0.308802
C79   C     C_3   0.754315 0.365189 0.617752 -0.004028
C80   C     C_3   0.637787 0.879907 0.093835 -0.972426
C81   C     C_3   0.873839 0.334299 0.113966 -0.390991
C82   C     C_3   0.870328 0.313519 0.030370 -0.904708
C83   C     C_3   0.317278 0.138257 0.096756 -0.373109
C84   C     C_3   0.299161 0.160723 0.015409 -0.933633
C85   C     C_3   0.174362 0.648730 0.199685 -0.375480
C86   C     C_3   0.175228 0.710003 0.137262 -0.881160
C87   C     C_3   0.609066 0.801660 0.631453 0.003119
C88   C     C_3   0.189150 0.617964 0.654037 -0.020826
C89   C     C_R   0.690720 0.402602 0.878902 -0.191100
C90   C     C_3   0.318554 0.116554 0.735613 -0.052204
C91   C     C_3   0.865173 0.664490 0.286330 -0.038773
C92   C     C_3   0.738151 0.086535 0.207400 -0.061556
C93   C     C_3   0.083198 0.265562 0.223607 -0.050301
C94   C     C_3   0.379654 0.825904 0.341725 -0.058912
C95   C     C_3   0.426764 0.769445 0.293133 -0.045935
C96   C     C_3   0.112130 0.315684 0.159035 -0.040333
C97   C     C_3   0.695164 0.120717 0.140118 0.003585
C98   C     C_3   0.819527 0.621505 0.226216 -0.052714
C99   C     C_3   0.369230 0.176461 0.772529 -0.048154
C100  C     C_R   0.593314 0.680927 0.866954 -0.159924
C101  C     C_3   0.226116 0.585560 0.725461 -0.027592
C102  C     C_3   0.574244 0.751658 0.694276 -0.018885
C103  C     C_3   0.725186 0.406215 0.688525 -0.026509
C104  C     C_R   0.403718 0.688293 0.878191 -0.169070
C105  C     C_R   0.307946 0.403468 0.883037 -0.154075
C106  C     C_R   0.596142 0.314163 0.875247 -0.123279
C107  C     C_R   0.683670 0.588178 0.868878 -0.158607
C108  C     C_R   0.393732 0.304629 0.104672 -0.124368
C109  C     C_R   0.327986 0.579584 0.141374 -0.112177
C110  C     C_R   0.605603 0.696347 0.093295 -0.169026
C111  C     C_R   0.309766 0.599971 0.880974 -0.140444
C112  C     C_R   0.697952 0.395337 0.100669 -0.126211
C113  C     C_R   0.910744 0.183716 0.370187 -0.152630
C114  C     C_R   0.802977 0.895073 0.402609 -0.167540
C115  C     C_R   0.104765 0.804035 0.397170 -0.119730
C116  C     C_R   0.189282 0.091543 0.376327 -0.152649
C117  C     C_R   0.893071 0.803770 0.602101 -0.119115
C118  C     C_R   0.801703 0.100999 0.602133 -0.132212
C119  C     C_R   0.078823 0.170548 0.641138 -0.134722
C120  C     C_R   0.197282 0.893235 0.601081 -0.143329
C121  C     C_R   0.321156 0.328445 0.862700 0.128645
C122  C     C_R   0.414328 0.675809 0.136591 -0.153324
C123  C     C_R   0.669096 0.334431 0.847680 0.130109
C124  C     C_R   0.660126 0.653031 0.829480 0.105023
C125  C     C_R   0.332237 0.669485 0.848838 0.112777
C126  C     C_R   0.352628 0.644699 0.177898 0.106633
C127  C     C_R   0.679074 0.683470 0.117745 0.102275
C128  C     C_R   0.686780 0.317956 0.111528 0.097440
C129  C     C_R   0.315061 0.319255 0.117417 0.093888
C130  C     C_R   0.818629 0.825549 0.371766 0.099620
C131  C     C_R   0.183443 0.814563 0.385225 0.082502
C132  C     C_R   0.171098 0.160866 0.343028 0.114717
C133  C     C_R   0.695907 0.606973 0.102419 -0.114435
C134  C     C_R   0.842395 0.163719 0.335997 0.113680
C135  C     C_R   0.811744 0.175963 0.619402 0.094073
C136  C     C_R   0.136389 0.135895 0.684116 0.096061
C137  C     C_R   0.183715 0.816198 0.615502 0.107676
C138  C     C_R   0.814383 0.817849 0.614418 0.087640
C139  C     C_R   0.747857 0.335067 0.731689 0.029471
C140  C     C_R   0.654765 0.747103 0.725866 0.028642
C141  C     C_R   0.237196 0.667798 0.747054 0.047518
C142  C     C_R   0.299104 0.228432 0.772716 0.079258
C143  C     C_R   0.768806 0.691885 0.221487 0.079139
C144  C     C_R   0.608953 0.303428 0.098212 -0.156637
C145  C     C_R   0.712240 0.198502 0.171543 0.046030
C146  C     C_R   0.194755 0.297632 0.182637 0.068346
C147  C     C_R   0.357491 0.717643 0.297282 0.091102
C148  C     C_R   0.317172 0.765457 0.345523 0.066306
C149  C     C_R   0.167134 0.257400 0.244574 0.052512
C150  C     C_R   0.749905 0.166226 0.231953 0.035822
C151  C     C_R   0.804230 0.726657 0.278193 0.078641
C152  C     C_R   0.255659 0.176911 0.735665 0.076347
C153  C     C_R   0.203693 0.697481 0.682807 0.031042
C154  C     C_R   0.687463 0.789974 0.667172 0.039656
C155  C     C_R   0.301843 0.395354 0.101686 -0.171249
C156  C     C_R   0.774395 0.298191 0.667730 0.029104
C157  C     C_R   0.712758 0.294135 0.791311 -0.009560
C158  C     C_R   0.694437 0.685487 0.759480 -0.010509
C159  C     C_R   0.293527 0.707901 0.786613 -0.011567
C160  C     C_R   0.266355 0.277899 0.825113 -0.092362
C161  C     C_R   0.710345 0.726371 0.179927 -0.075735
C162  C     C_R   0.744705 0.262175 0.135851 -0.014620
C163  C     C_R   0.255026 0.265138 0.139622 -0.022351
C164  C     C_R   0.315566 0.675518 0.244918 -0.055492
C165  C     C_R   0.237703 0.753765 0.361811 -0.007766
C166  C     C_R   0.894753 0.807199 0.391313 -0.132338
C167  C     C_R   0.207053 0.195202 0.275368 -0.015634
C168  C     C_R   0.808223 0.202986 0.270685 -0.004173
C169  C     C_R   0.776316 0.794128 0.308853 -0.080679
C170  C     C_R   0.175962 0.173152 0.744643 -0.057759
C171  C     C_R   0.238328 0.760079 0.646119 -0.011960
C172  C     C_R   0.754082 0.761585 0.630982 -0.011648
C173  C     C_R   0.753473 0.222641 0.656642 -0.020729
C174  C     C_R   0.205465 0.687019 0.330126 0.130209
C175  C     C_R   0.269748 0.162852 0.231619 0.112413
C176  C     C_R   0.834111 0.274454 0.239826 0.086533
H1    H     H_    0.421298 0.252246 0.892863 0.089294
H2    H     H_    0.254648 0.913197 0.415148 0.098254
H3    H     H_    0.562022 0.188936 0.212734 0.260873
H4    H     H_    0.495821 0.113302 0.193096 0.244795
H5    H     H_    0.582772 0.121337 0.084511 0.178270
H6    H     H_    0.603345 0.035850 0.135302 0.204130
H7    H     H_    0.723171 0.599847 0.357226 0.249795
H8    H     H_    0.660410 0.588691 0.276789 0.262885
H9    H     H_    0.687672 0.506692 0.333183 0.243941
H10   H     H_    0.762394 0.510981 0.211543 0.188485
H11   H     H_    0.823793 0.515242 0.291134 0.192943
H12   H     H_    0.372787 0.214642 0.615322 0.249516
H13   H     H_    0.076786 0.243777 0.374759 0.088338
H14   H     H_    0.381760 0.303827 0.665506 0.256290
H15   H     H_    0.463535 0.264422 0.615062 0.245742
H16   H     H_    0.474213 0.243477 0.755339 0.193999
H17   H     H_    0.472539 0.155287 0.705090 0.200813
H18   H     H_    0.353013 0.606536 0.620840 0.250021
H19   H     H_    0.393305 0.614510 0.714205 0.257202
H20   H     H_    0.414099 0.531650 0.658704 0.250465
H21   H     H_    0.317607 0.506431 0.762008 0.199674
H22   H     H_    0.280539 0.487508 0.671126 0.186456
H23   H     H_    0.586996 0.657391 0.555549 0.248983
H24   H     H_    0.761396 0.067016 0.363200 0.099471
H25   H     H_    0.641200 0.612183 0.631255 0.262430
H26   H     H_    0.549975 0.574259 0.601597 0.247663
H27   H     H_    0.527653 0.639381 0.720525 0.201093
H28   H     H_    0.480144 0.689422 0.644878 0.207318
H29   H     H_    0.582954 0.351486 0.610566 0.242252
H30   H     H_    0.587678 0.315630 0.706492 0.265919
H31   H     H_    0.519518 0.389684 0.682063 0.255715
H32   H     H_    0.622799 0.454452 0.744818 0.206499
H33   H     H_    0.631234 0.476319 0.646601 0.191498
H34   H     H_    0.243812 0.614144 0.461906 0.264375
H35   H     H_    0.915206 0.250484 0.603258 0.118360
H36   H     H_    0.162847 0.676458 0.486862 0.261425
H37   H     H_    0.149664 0.573925 0.483826 0.246430
H38   H     H_    0.094204 0.637774 0.367945 0.164389
H39   H     H_    0.168790 0.570707 0.350247 0.199410
H40   H     H_    0.412843 0.174447 0.308048 0.266759
H41   H     H_    0.334938 0.152415 0.373288 0.260661
H42   H     H_    0.407121 0.080347 0.350645 0.245658
H43   H     H_    0.292163 0.048390 0.271122 0.188557
H44   H     H_    0.368305 0.083225 0.217997 0.184519
H45   H     H_    0.756038 0.369134 0.339933 0.264703
H46   H     H_    0.215053 0.038244 0.656967 0.100948
H47   H     H_    0.816917 0.307315 0.396886 0.260841
H48   H     H_    0.840558 0.406696 0.385728 0.242159
H49   H     H_    0.928425 0.330927 0.300316 0.166781
H50   H     H_    0.867252 0.393038 0.252250 0.175476
H51   H     H_    0.564758 0.913117 0.321467 0.251531
H52   H     H_    0.629094 0.876250 0.392559 0.261837
H53   H     H_    0.623063 0.977929 0.373233 0.252649
H54   H     H_    0.738716 0.950624 0.300387 0.163082
H55   H     H_    0.671003 0.945761 0.237005 0.187194
H56   H     H_    0.958694 0.288967 0.835234 0.257559
H57   H     H_    0.077558 0.748926 0.598332 0.118214
H58   H     H_    0.023590 0.312719 0.757438 0.258300
H59   H     H_    0.952695 0.237503 0.749124 0.263081
H60   H     H_    0.035458 0.147982 0.798270 0.189672
H61   H     H_    0.047166 0.200872 0.880803 0.183813
H62   H     H_    0.371168 0.736237 0.546635 0.261938
H63   H     H_    0.322040 0.822895 0.515445 0.265605
H64   H     H_    0.427134 0.819694 0.520636 0.243087
H65   H     H_    0.366939 0.891094 0.630490 0.171126
H66   H     H_    0.426146 0.811593 0.653571 0.193655
H67   H     H_    0.724719 0.654189 0.504446 0.262371
H68   H     H_    0.746072 0.923439 0.596860 0.104609
H69   H     H_    0.811243 0.711278 0.490314 0.267353
H70   H     H_    0.813292 0.610904 0.468633 0.245152
H71   H     H_    0.879341 0.633605 0.590660 0.181278
H72   H     H_    0.795146 0.575302 0.600081 0.194394
H73   H     H_    0.578844 0.197970 0.620989 0.268113
H74   H     H_    0.646896 0.141442 0.568521 0.257277
H75   H     H_    0.561385 0.097217 0.608383 0.251908
H76   H     H_    0.677349 0.066314 0.692328 0.190812
H77   H     H_    0.602789 0.119424 0.736992 0.178015
H78   H     H_    0.816027 0.173741 0.883488 0.266411
H79   H     H_    0.708311 0.350592 0.577012 0.122262
H80   H     H_    0.747438 0.228322 0.940622 0.264219
H81   H     H_    0.755900 0.126370 0.953701 0.237246
H82   H     H_    0.636157 0.166012 0.880146 0.176236
H83   H     H_    0.699649 0.100391 0.834471 0.190501
H84   H     H_    0.897381 0.693329 0.800832 0.262204
H85   H     H_    0.822862 0.661643 0.866325 0.259187
H86   H     H_    0.906427 0.601359 0.847406 0.246220
H87   H     H_    0.800256 0.548214 0.770364 0.162717
H88   H     H_    0.869329 0.590408 0.714877 0.177639
H89   H     H_    0.259254 0.878121 0.860606 0.266340
H90   H     H_    0.607363 0.777496 0.573908 0.119789
H91   H     H_    0.319568 0.811306 0.911582 0.260485
H92   H     H_    0.351430 0.907855 0.898561 0.243802
H93   H     H_    0.424517 0.830599 0.802369 0.157547
H94   H     H_    0.360285 0.894056 0.762357 0.177827
H95   H     H_    0.140699 0.262313 0.988916 0.254071
H96   H     H_    0.225970 0.320480 0.979442 0.283250
H97   H     H_    0.135315 0.365082 0.004483 0.242585
H98   H     H_    0.149357 0.392453 0.870009 0.159785
H99   H     H_    0.077175 0.328366 0.887444 0.215230
H100  H     H_    0.677349 0.927788 0.106342 0.250906
H101  H     H_    0.223101 0.606117 0.601705 0.132478
H102  H     H_    0.670792 0.840468 0.056342 0.266821
H103  H     H_    0.586479 0.902887 0.063240 0.251219
H104  H     H_    0.559412 0.803798 0.162898 0.148756
H105  H     H_    0.579997 0.883152 0.201621 0.186685
H106  H     H_    0.875132 0.250486 0.023732 0.266011
H107  H     H_    0.815305 0.334425 0.004997 0.259831
H108  H     H_    0.919674 0.340688 0.999175 0.247413
H109  H     H_    0.869414 0.397060 0.121083 0.168059
H110  H     H_    0.933109 0.318680 0.132648 0.185101
H111  H     H_    0.235460 0.158150 0.005979 0.266097
H112  H     H_    0.746811 0.429828 0.873545 0.100196
H113  H     H_    0.338471 0.101073 0.677682 0.110112
H114  H     H_    0.320658 0.218560 0.000939 0.269315
H115  H     H_    0.329639 0.119892 0.977438 0.253482
H116  H     H_    0.381310 0.134059 0.103090 0.176573
H117  H     H_    0.293889 0.079545 0.105398 0.192198
H118  H     H_    0.168107 0.767786 0.162119 0.256447
H119  H     H_    0.230317 0.708079 0.103832 0.264862
H120  H     H_    0.126337 0.700158 0.098225 0.245216
H121  H     H_    0.179396 0.591298 0.175279 0.188598
H122  H     H_    0.115013 0.649977 0.225424 0.185887
H123  H     H_    0.864196 0.636479 0.343021 0.108408
H124  H     H_    0.699600 0.060214 0.249924 0.119995
H125  H     H_    0.048379 0.297686 0.265634 0.099230
H126  H     H_    0.406693 0.837444 0.396665 0.122366
H127  H     H_    0.440014 0.794725 0.237243 0.107178
H128  H     H_    0.095864 0.292945 0.103749 0.133067
H129  H     H_    0.723758 0.112004 0.084391 0.121217
H130  H     H_    0.853652 0.611015 0.173399 0.106067
H131  H     H_    0.388232 0.157238 0.829311 0.109255
H132  H     H_    0.563063 0.733903 0.855345 0.089680
H133  H     H_    0.184127 0.556015 0.763965 0.108135
H134  H     H_    0.534015 0.781866 0.733238 0.093317
H135  H     H_    0.761878 0.454701 0.703843 0.107193
H136  H     H_    0.436673 0.739224 0.873003 0.119182
H137  H     H_    0.257748 0.439024 0.874760 0.097783
H138  H     H_    0.561646 0.264772 0.862562 0.075492
H139  H     H_    0.735240 0.554755 0.864806 0.123471
H140  H     H_    0.423979 0.250490 0.105221 0.112651
H141  H     H_    0.287364 0.537195 0.161497 0.097886
H142  H     H_    0.584557 0.746575 0.064424 0.141980
H143  H     H_    0.254366 0.571754 0.876525 0.085972
H144  H     H_    0.751501 0.426511 0.098563 0.100532
H145  H     H_    0.947757 0.231289 0.359455 0.104790
H146  H     H_    0.747946 0.919296 0.419402 0.141983
H147  H     H_    0.073186 0.751561 0.400283 0.102879
H148  H     H_    0.240574 0.056624 0.374357 0.125300
H149  H     H_    0.922675 0.749331 0.599986 0.105029
H150  H     H_    0.748984 0.069799 0.594596 0.118321
H151  H     H_    0.046718 0.222447 0.652361 0.130223
H152  H     H_    0.252022 0.922350 0.598124 0.101083
H153  H     H_    0.883555 0.470082 0.659678 0.244424
H154  H     H_    0.447910 0.725968 0.145337 0.089810
H155  H     H_    0.912135 0.370576 0.662315 0.262947
H156  H     H_    0.946572 0.432780 0.587599 0.248661
H157  H     H_    0.845501 0.358319 0.532438 0.192989
H158  H     H_    0.806728 0.452340 0.544929 0.193311
H159  H     H_    0.549883 0.902746 0.749846 0.245452
H160  H     H_    0.647534 0.932023 0.723292 0.261755
H161  H     H_    0.563178 0.987835 0.696160 0.252470
H162  H     H_    0.615487 0.917719 0.586127 0.182098
H163  H     H_    0.520231 0.888807 0.610164 0.192439
H164  H     H_    0.055205 0.590715 0.761153 0.252677
H165  H     H_    0.752436 0.579854 0.100185 0.081312
H166  H     H_    0.056559 0.686575 0.720928 0.262030
H167  H     H_    0.987727 0.618989 0.689302 0.243743
H168  H     H_    0.081308 0.620508 0.591106 0.185474
H169  H     H_    0.097813 0.533629 0.641896 0.192145
H170  H     H_    0.249219 0.112840 0.876344 0.264777
H171  H     H_    0.186112 0.044785 0.832999 0.255779
H172  H     H_    0.258637 0.012934 0.898478 0.248811
H173  H     H_    0.284163 0.997291 0.751962 0.184540
H174  H     H_    0.361767 0.026044 0.810069 0.187344
H175  H     H_    0.918638 0.736492 0.148841 0.246973
H176  H     H_    0.582311 0.248486 0.092233 0.119702
H177  H     H_    0.932683 0.803796 0.224546 0.261979
H178  H     H_    0.015134 0.757427 0.180931 0.250598
H179  H     H_    0.986976 0.697527 0.305019 0.172171
H180  H     H_    0.975182 0.631561 0.231935 0.178916
H181  H     H_    0.845503 0.071321 0.071993 0.242872
H182  H     H_    0.880902 0.134783 0.143528 0.261495
H183  H     H_    0.924108 0.041534 0.130582 0.247125
H184  H     H_    0.844804 0.026881 0.240526 0.203107
H185  H     H_    0.793899 0.982471 0.166252 0.188178
H186  H     H_    0.119194 0.166189 0.101764 0.249307
H187  H     H_    0.245847 0.423277 0.096061 0.116508
H188  H     H_    0.130738 0.102694 0.182530 0.255652
H189  H     H_    0.048453 0.094515 0.123232 0.240006
H190  H     H_    0.021216 0.159164 0.249765 0.206920
H191  H     H_    0.988421 0.208519 0.168095 0.185279
H192  H     H_    0.323935 0.842809 0.192578 0.255922
H193  H     H_    0.245674 0.880631 0.250404 0.264276
H194  H     H_    0.305621 0.943445 0.193933 0.230573
H195  H     H_    0.340260 0.945276 0.333895 0.180192
H196  H     H_    0.417985 0.922955 0.272778 0.185281
H197  H     H_    0.455313 0.708987 0.441290 0.259143
H198  H     H_    0.921229 0.751471 0.393439 0.097964
H199  H     H_    0.456874 0.628576 0.377819 0.262150
H200  H     H_    0.545914 0.661900 0.417949 0.245079
H201  H     H_    0.533949 0.703418 0.283829 0.198246
H202  H     H_    0.539232 0.782273 0.346502 0.203015
H203  H     H_    0.104213 0.411706 0.289150 0.256264
H204  H     H_    0.184887 0.446759 0.232040 0.257605
H205  H     H_    0.095060 0.500510 0.238654 0.234704
H206  H     H_    0.109096 0.433187 0.115276 0.179225
H207  H     H_    0.024413 0.406375 0.167996 0.180550
H208  H     H_    0.573381 0.096158 0.257824 0.259955
N1    N     N_R   0.425360 0.368540 0.922560 -0.038413
N2    N     N_R   0.131460 0.925360 0.422560 -0.040702
N3    N     N_R   0.074640 0.131460 0.422560 -0.039503
N4    N     N_R   0.868540 0.074640 0.422560 -0.037885
N5    N     N_R   0.925360 0.131460 0.577440 -0.036098
N6    N     N_R   0.131460 0.074640 0.577440 -0.045766
N7    N     N_R   0.074640 0.868540 0.577440 -0.037357
N8    N     N_R   0.868540 0.925360 0.577440 -0.040165
N9    N     N_R   0.425340 0.631500 0.922560 -0.040191
N10   N     N_R   0.368500 0.425340 0.922560 -0.039122
N11   N     N_R   0.574660 0.368500 0.922560 -0.038430
N12   N     N_R   0.631460 0.425360 0.922560 -0.037964
N13   N     N_R   0.631500 0.574660 0.922560 -0.040627
N14   N     N_R   0.425340 0.368500 0.077440 -0.041992
N15   N     N_R   0.368500 0.574660 0.077440 -0.044581
N16   N     N_R   0.574660 0.631500 0.077440 -0.043209
N17   N     N_R   0.631500 0.425340 0.077440 -0.042158
N18   N     N_R   0.925340 0.131500 0.422560 -0.037583
N19   N     N_R   0.868500 0.925340 0.422560 -0.043737
N20   N     N_R   0.074660 0.868500 0.422560 -0.042004
N21   N     N_R   0.131500 0.074660 0.422560 -0.042175
N22   N     N_R   0.925340 0.868500 0.577440 -0.041909
N23   N     N_R   0.574640 0.631460 0.922560 -0.038217
N24   N     N_R   0.868500 0.074660 0.577440 -0.041312
N25   N     N_R   0.074660 0.131500 0.577440 -0.043953
N26   N     N_R   0.131500 0.925340 0.577440 -0.041356
N27   N     N_R   0.368540 0.574640 0.922560 -0.040175
N28   N     N_R   0.425360 0.631460 0.077440 -0.040717
N29   N     N_R   0.631460 0.574640 0.077440 -0.041459
N30   N     N_R   0.574640 0.368540 0.077440 -0.040356
N31   N     N_R   0.368540 0.425360 0.077440 -0.039281
N32   N     N_R   0.925360 0.868540 0.422560 -0.039640
Ni1   Ni    Ni4+2 0.500000 0.369720 0.000000 0.202584
Ni2   Ni    Ni4+2 0.630280 0.500000 0.000000 0.202918
Ni3   Ni    Ni4+2 0.500000 0.630280 0.000000 0.202947
Ni4   Ni    Ni4+2 0.369720 0.500000 0.000000 0.207008
Ni5   Ni    Ni4+2 0.000000 0.869720 0.500000 0.201782
Ni6   Ni    Ni4+2 0.130280 0.000000 0.500000 0.200026
Ni7   Ni    Ni4+2 0.000000 0.130280 0.500000 0.208089
Ni8   Ni    Ni4+2 0.869720 0.000000 0.500000 0.198715

loop_
_geom_bond_atom_site_label_1
_geom_bond_atom_site_label_2
_ccdc_geom_bond_type
C62   H58   S    
C24   N4    A    
C68   C138  A    
C19   C20   S    
C28   H185  S    
C89   N12   A    
C17   H157  S    
C51   H30   S    
C109  N15   A    
C33   H192  S    
C75   H91   S    
C110  N16   A    
C48   H27   S    
C135  C173  S    
C47   H19   S    
C43   C99   S    
C19   C87   S    
C147  C164  A    
C75   H89   S    
N17   Ni2   S    
C82   H107  S    
C63   H65   S    
C80   H100  S    
C41   H11   S    
C37   H206  S    
C18   H156  S    
N30   Ni1   S    
C44   H14   S    
C12   C161  A    
C40   H4    S    
N1    N10   A    
C50   H33   S    
C124  C158  S    
C111  C125  A    
C99   H131  S    
C88   H101  S    
C64   H62   S    
C69   H73   S    
C154  C172  A    
C143  C151  A    
C59   C60   S    
C21   C22   S    
C148  C165  A    
C114  C130  A    
N5    N24   A    
C107  C124  A    
C94   H126  S    
C8    C157  A    
C2    N2    A    
C55   H42   S    
C45   C47   S    
C36   H200  S    
C156  C173  A    
C60   H53   S    
C77   H97   S    
N11   Ni1   S    
C90   C152  S    
C115  H147  S    
C3    C169  A    
N8    Ni8   S    
N22   Ni5   S    
C4    C61   S    
C52   H39   S    
C38   H204  S    
C86   H119  S    
C37   C96   S    
C26   H180  S    
C100  C124  A    
C43   C44   S    
C27   H178  S    
C37   C38   S    
C152  C170  A    
N2    Ni6   S    
C83   H116  S    
C150  C168  A    
C128  C162  S    
C2    C131  A    
C77   H96   S    
C21   H169  S    
C128  C144  A    
C30   H190  S    
C70   H83   S    
C62   H56   S    
C16   C85   S    
C104  N9    A    
C66   H70   S    
C24   C134  A    
C72   H87   S    
C97   C145  S    
C72   C73   S    
N8    N22   A    
C58   H47   S    
C111  H143  S    
C117  N22   A    
C119  C136  A    
C46   H46   S    
C11   C76   S    
N4    N18   A    
N15   N28   A    
C9    C158  A    
C103  H135  S    
C13   C132  A    
C100  N23   A    
C25   H171  S    
N19   Ni8   S    
C69   H75   S    
C87   H90   S    
C107  H139  S    
C68   N8    A    
C84   H114  S    
C139  C157  A    
C95   H127  S    
C14   C81   S    
C143  C161  A    
C50   H32   S    
C147  C148  A    
C9    C72   S    
C82   H108  S    
C6    C9    A    
C74   H94   S    
C29   H181  S    
C7    C8    A    
C6    C172  A    
C85   C86   S    
C16   C164  A    
C129  C163  S    
C4    C170  A    
C56   C176  S    
C34   H201  S    
N5    Ni7   S    
C78   C80   S    
C66   H67   S    
C90   H113  S    
C45   H21   S    
C102  H134  S    
C20   H159  S    
C140  C158  A    
C122  N28   A    
C141  C159  A    
C85   H121  S    
C53   H34   S    
C80   H103  S    
C145  C150  A    
C21   C88   S    
C91   C98   S    
C79   C103  S    
C58   H45   S    
C73   H85   S    
C92   C97   S    
C22   H166  S    
C32   H195  S    
C94   C148  S    
C49   H25   S    
C64   H64   S    
N2    N20   A    
C95   C147  S    
N28   Ni3   S    
C35   C135  A    
C39   C40   S    
C19   H163  S    
C123  C157  S    
C42   H8    S    
C165  C174  A    
C31   H189  S    
C76   H99   S    
C109  H141  S    
C60   H52   S    
C78   H105  S    
C31   H188  S    
C27   H175  S    
C83   C84   S    
C116  C132  A    
C52   H38   S    
C17   C18   S    
C57   C137  A    
C24   H24   S    
C33   H194  S    
C42   H9    S    
C65   H72   S    
C136  C170  S    
C43   H16   S    
C1    N1    A    
C134  C168  S    
C144  H176  S    
C81   H109  S    
C82   H106  S    
C52   C174  S    
C90   C99   S    
C52   C53   S    
N13   N23   A    
C167  C175  A    
C49   H23   S    
C16   C174  A    
C168  C176  A    
C54   C55   S    
C53   H37   S    
C62   H59   S    
N21   Ni6   S    
N4    Ni8   S    
C51   H29   S    
C166  N32   A    
N27   Ni4   S    
C71   H81   S    
C19   H162  S    
C96   C146  S    
C48   H28   S    
C97   H129  S    
C151  C169  A    
C155  H187  S    
C43   H17   S    
C35   N5    A    
C119  N25   A    
C20   H161  S    
C141  C153  A    
C53   H36   S    
N29   Ni2   S    
C104  H136  S    
C56   C58   S    
C41   H10   S    
C34   C36   S    
C61   C62   S    
C1    C121  A    
C39   H6    S    
C7    C67   S    
C63   C64   S    
C109  C126  A    
C50   C103  S    
C117  H149  S    
C131  C165  S    
N10   Ni4   S    
C2    H2    S    
C113  H145  S    
C22   H164  S    
N18   Ni7   S    
C41   C42   S    
C28   H184  S    
C93   C149  S    
C117  C138  A    
C149  C167  A    
C132  C167  S    
C122  H154  S    
N14   Ni1   S    
C54   H43   S    
C55   H41   S    
C112  N17   A    
C36   H197  S    
C29   H183  S    
C26   C27   S    
C56   H49   S    
C28   C29   S    
C30   C31   S    
C31   H186  S    
C39   C97   S    
N6    N25   A    
C46   N6    A    
C144  N30   A    
C166  H198  S    
C38   H205  S    
C86   H120  S    
C5    C63   S    
C142  C152  A    
C27   H177  S    
C14   C176  A    
C47   H18   S    
C6    C65   S    
C104  C125  A    
C121  C160  S    
C77   H95   S    
C70   C71   S    
C23   H174  S    
C30   H191  S    
C67   H76   S    
C59   H55   S    
C80   H102  S    
N20   Ni5   S    
C17   H158  S    
C11   C160  A    
C88   C101  S    
C75   H92   S    
C13   N3    A    
C72   H88   S    
C138  C172  S    
C47   H20   S    
C34   C95   S    
C105  H137  S    
C129  C155  A    
C58   H48   S    
C15   C83   S    
C26   C91   S    
C63   H66   S    
C111  N27   A    
C108  H140  S    
C37   H207  S    
C54   C175  S    
C14   C162  A    
C18   H155  S    
C146  C149  A    
C130  C166  A    
C91   H123  S    
C48   C102  S    
C108  N14   A    
C50   C51   S    
C23   C90   S    
N1    Ni1   S    
C102  C140  S    
C4    C11   A    
C25   H170  S    
C45   C101  S    
C69   H74   S    
C48   C49   S    
C84   H111  S    
C113  C134  A    
C92   C150  S    
N3    N21   A    
C112  H144  S    
C40   H208  S    
C5    C171  A    
N9    Ni3   S    
C36   H199  S    
C105  N10   A    
C8    C70   S    
C110  H142  S    
C127  C133  A    
N11   N12   A    
C125  C159  S    
C15   C175  A    
C18   H153  S    
C38   H203  S    
C86   H118  S    
C26   H179  S    
C32   C33   S    
C34   H202  S    
C119  H151  S    
C51   H31   S    
C94   C95   S    
C112  C128  A    
C20   H160  S    
C155  N31   A    
C70   H82   S    
C89   H112  S    
N31   Ni4   S    
C120  C137  A    
C130  C169  S    
N16   N29   A    
C115  N20   A    
C118  C135  A    
C66   H69   S    
C113  N18   A    
C32   C94   S    
C98   C143  S    
C98   H130  S    
C83   H117  S    
C99   C142  S    
N14   N31   A    
C120  N26   A    
C81   C82   S    
C73   H84   S    
C71   H78   S    
C115  C131  A    
C22   H167  S    
C32   H196  S    
C118  N24   A    
N7    N26   A    
C92   H124  S    
C93   H125  S    
C30   C93   S    
C44   H15   S    
N9    N27   A    
C145  C162  A    
N12   Ni2   S    
C40   H3    S    
C17   C79   S    
C13   H13   S    
C35   H35   S    
C25   H172  S    
C3    C12   A    
C79   C156  S    
C1    H1    S    
C64   H63   S    
C12   C78   S    
C106  C123  A    
N6    Ni6   S    
C33   H193  S    
C110  C127  A    
C65   H71   S    
C133  H165  S    
N13   Ni2   S    
C127  C161  S    
N25   Ni7   S    
C106  N11   A    
C101  C141  S    
C126  C164  S    
N19   N32   A    
N24   Ni8   S    
C74   H93   S    
C29   H182  S    
C133  N29   A    
C67   H77   S    
C87   C154  S    
C74   C75   S    
C76   H98   S    
C76   C77   S    
C55   H40   S    
C57   N7    A    
C89   C123  A    
C45   H22   S    
C15   C163  A    
C46   C136  A    
C67   C69   S    
C100  H132  S    
C122  C126  A    
C103  C139  S    
C87   C102  S    
C85   H122  S    
C153  C171  A    
N7    Ni5   S    
C105  C121  A    
C28   C92   S    
N32   Ni5   S    
C108  C129  A    
C39   H5    S    
C44   H12   S    
C120  H152  S    
C114  N19   A    
C93   C96   S    
N16   Ni3   S    
C10   C159  A    
C116  H148  S    
N15   Ni4   S    
C73   H86   S    
C106  H138  S    
C49   H26   S    
C142  C160  A    
C57   H57   S    
C54   H44   S    
C42   H7    S    
C107  N13   A    
C96   H128  S    
C146  C163  A    
N23   Ni3   S    
C56   H50   S    
C60   H51   S    
C61   H61   S    
C88   C153  S    
C21   H168  S    
C78   H104  S    
C5    C10   A    
C91   C151  S    
N17   N30   A    
C10   C74   S    
C84   H115  S    
C139  C156  A    
C68   H68   S    
C7    C173  A    
C116  N21   A    
C23   C25   S    
C71   H80   S    
C137  C171  S    
N3    Ni7   S    
C118  H150  S    
C101  H133  S    
C65   C66   S    
C61   H60   S    
C79   H79   S    
C41   C98   S    
N26   Ni6   S    
C81   H110  S    
C114  H146  S    
C59   H54   S    
C23   H173  S    
C140  C154  A    
C3    C59   S    
