data_mof_unit_10045.cif
_audit_creation_date              2012-12-11T15:50:41-0500
_audit_creation_method            fapswitch 2.2
_symmetry_space_group_name_H-M    P1
_symmetry_Int_Tables_number       1
_space_group_crystal_system       triclinic
_cell_length_a                    18.928028
_cell_length_b                    10.962269
_cell_length_c                    18.743778
_cell_angle_alpha                 90.125261
_cell_angle_beta                  91.369698
_cell_angle_gamma                 89.990051
_cell_volume                      3888.10341193

loop_
_atom_site_label
_atom_site_type_symbol
_atom_type_description
_atom_site_fract_x
_atom_site_fract_y
_atom_site_fract_z
_atom_type_partial_charge
Br1   Br    Br    0.344802 0.348451 0.896107 -0.536431
Br2   Br    Br    0.654925 0.348569 0.103175 -0.535795
Br3   Br    Br    0.844802 0.848451 0.896107 -0.536431
Br4   Br    Br    0.154925 0.848569 0.103175 -0.535795
C1    C     C_R   0.275459 0.034943 0.856142 0.569099
C2    C     C_R   0.763213 0.561259 0.930301 0.048257
C3    C     C_R   0.229314 0.549650 0.352689 0.548509
C4    C     C_R   0.468241 0.823708 0.645786 0.546617
C5    C     C_R   0.528944 0.823555 0.352353 0.545701
C6    C     C_R   0.968241 0.323707 0.645786 0.546617
C7    C     C_R   0.028944 0.323555 0.352353 0.545701
C8    C     C_R   0.274318 0.690617 0.636952 0.569399
C9    C     C_R   0.726773 0.686546 0.363520 0.566413
C10   C     C_R   0.774318 0.190617 0.636952 0.569399
C11   C     C_R   0.226773 0.186546 0.363520 0.566413
C12   C     C_3   0.478174 0.926289 0.034537 -0.112829
C13   C     C_R   0.736773 0.060809 0.069635 0.047956
C14   C     C_3   0.521948 0.926374 0.965846 -0.113290
C15   C     C_3   0.978174 0.426289 0.034537 -0.112829
C16   C     C_3   0.021948 0.426374 0.965846 -0.113290
C17   C     C_3   0.429085 0.826324 0.002442 -0.143021
C18   C     C_3   0.570992 0.826222 0.997592 -0.143181
C19   C     C_3   0.929085 0.326324 0.002442 -0.143021
C20   C     C_3   0.070992 0.326222 0.997592 -0.143181
C21   C     C_3   0.473545 0.826010 0.935270 0.054067
C22   C     C_3   0.526530 0.825711 0.064758 0.054164
C23   C     C_3   0.973545 0.326010 0.935270 0.054067
C24   C     C_R   0.263213 0.061259 0.930301 0.048257
C25   C     C_3   0.026530 0.325711 0.064758 0.054164
C26   C     C_R   0.303330 0.552586 0.039744 -0.028335
C27   C     C_R   0.696653 0.552915 0.960156 -0.028807
C28   C     C_R   0.803330 0.052586 0.039744 -0.028335
C29   C     C_R   0.196653 0.052915 0.960156 -0.028807
C30   C     C_R   0.311532 0.573146 0.967496 0.015940
C31   C     C_R   0.688448 0.573246 0.032457 0.015503
C32   C     C_R   0.811532 0.073146 0.967496 0.015940
C33   C     C_R   0.724497 0.034658 0.143795 0.568604
C34   C     C_R   0.188448 0.073246 0.032457 0.015503
C35   C     C_R   0.185281 0.598994 0.952331 -0.157740
C36   C     C_R   0.814746 0.598676 0.047708 -0.158398
C37   C     C_R   0.685282 0.098994 0.952331 -0.157740
C38   C     C_R   0.314746 0.098676 0.047708 -0.158398
C39   C     C_R   0.177690 0.584463 0.024914 -0.125481
C40   C     C_R   0.822321 0.584695 0.975073 -0.126315
C41   C     C_R   0.677690 0.084463 0.024914 -0.125481
C42   C     C_R   0.322321 0.084695 0.975073 -0.126315
C43   C     C_3   0.354906 0.449261 0.040655 -0.234693
C44   C     C_R   0.775459 0.534943 0.856142 0.569099
C45   C     C_3   0.645092 0.449566 0.958882 -0.234454
C46   C     C_3   0.854906 0.949261 0.040655 -0.234693
C47   C     C_3   0.145092 0.949566 0.958882 -0.234454
C48   C     C_3   0.367958 0.478349 0.962840 0.029432
C49   C     C_3   0.631962 0.478560 0.036762 0.029409
C50   C     C_3   0.867958 0.978349 0.962840 0.029432
C51   C     C_3   0.131962 0.978560 0.036762 0.029409
C52   C     C_R   0.252113 0.590770 0.922556 0.058993
C53   C     C_R   0.747895 0.590425 0.077437 0.059238
C54   C     C_R   0.752113 0.090770 0.922556 0.058993
C55   C     C_R   0.224497 0.534658 0.143795 0.568604
C56   C     C_R   0.247895 0.090425 0.077437 0.059238
C57   C     C_R   0.494265 0.831043 0.420892 0.022860
C58   C     C_R   0.485713 0.831504 0.570756 0.018177
C59   C     C_R   0.994265 0.331043 0.420892 0.022860
C60   C     C_R   0.985713 0.331504 0.570756 0.018177
C61   C     C_R   0.443221 0.817925 0.863005 0.543257
C62   C     C_R   0.556838 0.817711 0.137006 0.542932
C63   C     C_R   0.943221 0.317925 0.863005 0.543257
C64   C     C_R   0.056838 0.317711 0.137006 0.542932
C65   C     C_R   0.481033 0.723433 0.458397 0.029126
C66   C     C_3   0.522170 0.726328 0.965984 -0.115543
C67   C     C_R   0.479976 0.724633 0.531286 0.025254
C68   C     C_R   0.981033 0.223433 0.458397 0.029126
C69   C     C_R   0.979976 0.224633 0.531286 0.025254
C70   C     C_R   0.485025 0.942702 0.533007 -0.163499
C71   C     C_R   0.488972 0.942485 0.458049 -0.166314
C72   C     C_R   0.985025 0.442702 0.533007 -0.163499
C73   C     C_R   0.988972 0.442485 0.458049 -0.166314
C74   C     C_3   0.516560 0.601059 0.459075 -0.270968
C75   C     C_3   0.517302 0.606052 0.539759 -0.281592
C76   C     C_3   0.016560 0.101059 0.459075 -0.270968
C77   C     C_3   0.477863 0.726243 0.033706 -0.115836
C78   C     C_3   0.017302 0.106052 0.539759 -0.281592
C79   C     C_R   0.252707 0.616344 0.415930 0.026378
C80   C     C_R   0.745309 0.603791 0.582406 0.023740
C81   C     C_R   0.752707 0.116344 0.415930 0.026378
C82   C     C_R   0.245309 0.103791 0.582406 0.023740
C83   C     C_R   0.203950 0.691222 0.450583 0.036422
C84   C     C_R   0.778380 0.707364 0.554904 0.034059
C85   C     C_R   0.703950 0.191222 0.450583 0.036422
C86   C     C_R   0.278380 0.207364 0.554904 0.034059
C87   C     C_R   0.212771 0.718828 0.521703 0.014586
C88   C     C_3   0.022170 0.226328 0.965984 -0.115543
C89   C     C_R   0.771907 0.733372 0.483087 0.012479
C90   C     C_R   0.712771 0.218828 0.521703 0.014586
C91   C     C_R   0.271906 0.233372 0.483087 0.012479
C92   C     C_R   0.325227 0.616049 0.523316 -0.156641
C93   C     C_R   0.696196 0.557913 0.465900 -0.167779
C94   C     C_R   0.825227 0.116049 0.523316 -0.156641
C95   C     C_R   0.196196 0.057913 0.465900 -0.167779
C96   C     C_R   0.317421 0.592216 0.450140 -0.160227
C97   C     C_R   0.699798 0.535343 0.538311 -0.179686
C98   C     C_R   0.817421 0.092216 0.450140 -0.160227
C99   C     C_3   0.977863 0.226244 0.033706 -0.115836
C100  C     C_R   0.199798 0.035343 0.538311 -0.179686
C101  C     C_3   0.125824 0.674988 0.457661 -0.268058
C102  C     C_3   0.854898 0.742828 0.557482 -0.261944
C103  C     C_3   0.625824 0.174988 0.457661 -0.268058
C104  C     C_3   0.354898 0.242828 0.557482 -0.261944
C105  C     C_3   0.135626 0.703084 0.535771 -0.271949
C106  C     C_3   0.848394 0.765625 0.478472 -0.271547
C107  C     C_3   0.635626 0.203084 0.535771 -0.271949
C108  C     C_3   0.348394 0.265625 0.478472 -0.271547
C109  C     C_R   0.261060 0.636355 0.851302 0.572147
C110  C     C_R   0.236772 0.560809 0.069635 0.047956
C111  C     C_R   0.738962 0.636159 0.148727 0.572373
C112  C     C_R   0.761060 0.136355 0.851302 0.572147
C113  C     C_R   0.238962 0.136159 0.148727 0.572373
C114  C     C_R   0.270725 0.673326 0.560333 0.014696
C115  C     C_R   0.732792 0.656968 0.437808 0.021906
C116  C     C_R   0.770725 0.173326 0.560333 0.014696
C117  C     C_R   0.232792 0.156968 0.437808 0.021906
C118  C     C_R   0.270528 0.048240 0.647390 0.555664
C119  C     C_R   0.729314 0.049650 0.352689 0.548509
C120  C     C_R   0.770528 0.548240 0.647390 0.555664
Cr1   Cr    Cr6+3 0.229640 0.835880 0.747370 1.007179
Cr2   Cr    Cr6+3 0.614230 0.677220 0.250660 1.040620
Cr3   Cr    Cr6+3 0.885770 0.177220 0.749340 1.041811
Cr4   Cr    Cr6+3 0.114230 0.177220 0.250660 1.040620
Cr5   Cr    Cr6+3 0.770360 0.835880 0.252630 1.010086
Cr6   Cr    Cr6+3 0.729640 0.335880 0.747370 1.007179
Cr7   Cr    Cr6+3 0.270360 0.335880 0.252630 1.010086
Cr8   Cr    Cr6+3 0.387390 0.989720 0.750850 1.036034
Cr9   Cr    Cr6+3 0.612610 0.989720 0.249150 1.036592
Cr10  Cr    Cr6+3 0.887390 0.489720 0.750850 1.036034
Cr11  Cr    Cr6+3 0.112610 0.489720 0.249150 1.036592
Cr12  Cr    Cr6+3 0.385770 0.677220 0.749340 1.041811
H1    H     H_    0.370441 0.826122 0.002966 0.121496
H2    H     H_    0.985070 0.033442 0.564216 0.133990
H3    H     H_    0.569406 0.604828 0.436625 0.170704
H4    H     H_    0.485070 0.533442 0.564216 0.133990
H5    H     H_    0.482236 0.527586 0.436637 0.123786
H6    H     H_    0.570654 0.618190 0.564435 0.150769
H7    H     H_    0.982236 0.027586 0.436637 0.123786
H8    H     H_    0.070654 0.118190 0.564435 0.150769
H9    H     H_    0.370696 0.581139 0.551973 0.138922
H10   H     H_    0.667205 0.494556 0.431815 0.140757
H11   H     H_    0.870696 0.081139 0.551973 0.138922
H12   H     H_    0.629637 0.825877 0.997068 0.121316
H13   H     H_    0.167205 0.994556 0.431815 0.140757
H14   H     H_    0.358356 0.544758 0.422173 0.119338
H15   H     H_    0.672979 0.456425 0.558318 0.138529
H16   H     H_    0.858356 0.044758 0.422173 0.119338
H17   H     H_    0.172979 0.956425 0.558318 0.138529
H18   H     H_    0.109122 0.579303 0.448239 0.159677
H19   H     H_    0.891762 0.666875 0.569879 0.157729
H20   H     H_    0.609122 0.079303 0.448239 0.159677
H21   H     H_    0.391762 0.166875 0.569879 0.157729
H22   H     H_    0.094889 0.745505 0.427950 0.137938
H23   H     H_    0.870441 0.326122 0.002966 0.121496
H24   H     H_    0.864359 0.827416 0.589158 0.145283
H25   H     H_    0.594889 0.245505 0.427950 0.137938
H26   H     H_    0.364359 0.327416 0.589158 0.145283
H27   H     H_    0.108469 0.788144 0.551732 0.126550
H28   H     H_    0.857382 0.861454 0.464505 0.132962
H29   H     H_    0.608469 0.288144 0.551732 0.126550
H30   H     H_    0.357382 0.361454 0.464505 0.132962
H31   H     H_    0.124494 0.622982 0.570097 0.162772
H32   H     H_    0.878768 0.699005 0.446443 0.153574
H33   H     H_    0.624494 0.122982 0.570097 0.162772
H34   H     H_    0.129637 0.325877 0.997068 0.121316
H35   H     H_    0.378768 0.199005 0.446443 0.153574
H36   H     H_    0.462808 0.008578 0.064793 0.125230
H37   H     H_    0.537342 0.008743 0.935893 0.124900
H38   H     H_    0.962808 0.508578 0.064793 0.125230
H39   H     H_    0.037342 0.508743 0.935893 0.124900
H40   H     H_    0.539370 0.644846 0.936203 0.128364
H41   H     H_    0.460660 0.644717 0.063223 0.128118
H42   H     H_    0.039370 0.144846 0.936203 0.128364
H43   H     H_    0.960660 0.144717 0.063223 0.128118
H44   H     H_    0.139027 0.620011 0.919610 0.134669
H45   H     H_    0.483760 0.028754 0.561213 0.122020
H46   H     H_    0.861012 0.619444 0.080517 0.134701
H47   H     H_    0.639027 0.120011 0.919610 0.134669
H48   H     H_    0.361012 0.119444 0.080517 0.134701
H49   H     H_    0.124841 0.589072 0.045694 0.166926
H50   H     H_    0.875176 0.589359 0.954306 0.166870
H51   H     H_    0.624841 0.089072 0.045694 0.166926
H52   H     H_    0.375176 0.089359 0.954306 0.166870
H53   H     H_    0.828631 0.859958 0.048912 0.183400
H54   H     H_    0.171400 0.860275 0.950405 0.183660
H55   H     H_    0.328632 0.359958 0.048912 0.183400
H56   H     H_    0.493093 0.028376 0.430140 0.122571
H57   H     H_    0.671400 0.360275 0.950405 0.183660
H58   H     H_    0.401333 0.466128 0.076534 0.118210
H59   H     H_    0.598693 0.466425 0.923008 0.117942
H60   H     H_    0.901333 0.966128 0.076534 0.118210
H61   H     H_    0.098693 0.966425 0.923008 0.117942
H62   H     H_    0.420671 0.519287 0.954023 0.135276
H63   H     H_    0.579264 0.519632 0.045629 0.135315
H64   H     H_    0.920671 0.019287 0.954023 0.135276
H65   H     H_    0.079264 0.019632 0.045629 0.135315
H66   H     H_    0.983761 0.528754 0.561213 0.122020
H67   H     H_    0.993093 0.528376 0.430140 0.122571
H68   H     H_    0.069406 0.104828 0.436625 0.170704
O1    O     O_R   0.214300 0.709080 0.827500 -0.534109
O2    O     O_R   0.543340 0.717710 0.330180 -0.526936
O3    O     O_R   0.956660 0.217710 0.669820 -0.521572
O4    O     O_R   0.043340 0.217710 0.330180 -0.526936
O5    O     O_R   0.320590 0.625770 0.672930 -0.499374
O6    O     O_R   0.679410 0.625770 0.327070 -0.504832
O7    O     O_R   0.820590 0.125770 0.672930 -0.499374
O8    O     O_R   0.179410 0.125770 0.327070 -0.504832
O9    O     O_3   0.334270 0.834280 0.749190 -0.303716
O10   O     O_3   0.665730 0.834280 0.250810 -0.300682
O11   O     O_3   0.834270 0.334280 0.749190 -0.303716
O12   O     O_R   0.785700 0.709080 0.172500 -0.533990
O13   O     O_3   0.165730 0.334280 0.250810 -0.300682
O14   O     O_R   0.236190 0.958390 0.823150 -0.513034
O15   O     O_R   0.763810 0.958390 0.176850 -0.513090
O16   O     O_R   0.736190 0.458390 0.823150 -0.513034
O17   O     O_R   0.263810 0.458390 0.176850 -0.513090
O18   O     O_R   0.332090 0.075280 0.831290 -0.481250
O19   O     O_R   0.667910 0.075280 0.168710 -0.481263
O20   O     O_R   0.832090 0.575280 0.831290 -0.481250
O21   O     O_R   0.167910 0.575280 0.168710 -0.481263
O22   O     O_R   0.446280 0.918040 0.826620 -0.501079
O23   O     O_R   0.714300 0.209080 0.827500 -0.534109
O24   O     O_R   0.553720 0.918040 0.173380 -0.501445
O25   O     O_R   0.946280 0.418040 0.826620 -0.501079
O26   O     O_R   0.053720 0.418040 0.173380 -0.501445
O27   O     O_R   0.457080 0.716270 0.831760 -0.511612
O28   O     O_R   0.542920 0.716270 0.168240 -0.511225
O29   O     O_R   0.957080 0.216270 0.831760 -0.511612
O30   O     O_R   0.042920 0.216270 0.168240 -0.511225
O31   O     O_R   0.320980 0.624440 0.823040 -0.475805
O32   O     O_R   0.679020 0.624440 0.176960 -0.475157
O33   O     O_R   0.820980 0.124440 0.823040 -0.475805
O34   O     O_R   0.285700 0.209080 0.172500 -0.533990
O35   O     O_R   0.179020 0.124440 0.176960 -0.475157
O36   O     O_R   0.213880 0.710510 0.665560 -0.516554
O37   O     O_R   0.786120 0.710510 0.334440 -0.510867
O38   O     O_R   0.713880 0.210510 0.665560 -0.516554
O39   O     O_R   0.286120 0.210510 0.334440 -0.510867
O40   O     O_R   0.235800 0.959720 0.673040 -0.524633
O41   O     O_R   0.764200 0.959720 0.326960 -0.518724
O42   O     O_R   0.735800 0.459720 0.673040 -0.524633
O43   O     O_R   0.264200 0.459720 0.326960 -0.518724
O44   O     O_R   0.331670 0.076720 0.669350 -0.515262
O45   O     O_R   0.445900 0.919370 0.676500 -0.504370
O46   O     O_R   0.668330 0.076720 0.330650 -0.513181
O47   O     O_R   0.831670 0.576720 0.669350 -0.515262
O48   O     O_R   0.168330 0.576720 0.330650 -0.513181
O49   O     O_R   0.554100 0.919370 0.323500 -0.505825
O50   O     O_R   0.945900 0.419370 0.676500 -0.504370
O51   O     O_R   0.054100 0.419370 0.323500 -0.505825
O52   O     O_R   0.456660 0.717710 0.669820 -0.521572

loop_
_geom_bond_atom_site_label_1
_geom_bond_atom_site_label_2
_ccdc_geom_bond_type
C6    C60   S    
Cr4   O4    S    
C62   O24   A    
C79   C83   A    
C45   C49   S    
C30   C52   A    
C12   C17   S    
C42   H52   S    
C3    O43   A    
C31   C49   S    
C98   H16   S    
C93   H10   S    
C43   H58   S    
C15   C19   S    
C15   C16   S    
Cr9   O24   S    
C17   H1    S    
Cr11  O48   S    
C16   H39   S    
C82   C100  A    
C74   H3    S    
C67   C75   S    
C35   H44   S    
Cr6   O42   S    
C86   C91   A    
C53   C111  S    
C70   H45   S    
Cr5   O41   S    
C57   C71   A    
Cr4   O35   S    
C92   H9    S    
C95   H13   S    
C24   C42   A    
C46   C50   S    
C2    C44   S    
C10   O7    A    
Cr8   O18   S    
Cr9   O10   S    
C28   C32   A    
C92   C114  A    
C13   C41   A    
C37   C54   A    
C120  O47   A    
C32   C54   A    
C5    O2    A    
C39   C110  A    
C26   C110  A    
Br3   C50   S    
C72   H66   S    
C95   C100  A    
C108  H35   S    
C94   H11   S    
C39   H49   S    
Cr7   O34   S    
C51   H65   S    
Cr12  O31   S    
C62   O28   A    
C90   C107  S    
Cr5   O10   S    
Cr11  O21   S    
C50   H64   S    
C25   C99   S    
Cr1   O40   S    
C38   C42   A    
Cr10  O25   S    
C85   C90   A    
C65   C67   A    
C66   C77   S    
Cr3   O3    S    
C20   C25   S    
C82   C86   A    
C91   C108  S    
C47   H61   S    
C88   C99   S    
Cr6   O23   S    
C10   O38   A    
C90   C116  A    
C81   C85   A    
C19   C99   S    
C34   C51   S    
C16   C20   S    
C4    C58   S    
Cr11  O26   S    
C19   H23   S    
C82   C118  S    
C7    O51   A    
C60   C69   A    
C58   C70   A    
C107  H29   S    
C19   C23   S    
C100  H17   S    
Cr2   O10   S    
Cr5   O15   S    
C47   C51   S    
C103  H20   S    
C89   C106  S    
C95   C117  A    
C1    O18   A    
Cr1   O14   S    
C91   C117  A    
C59   C73   A    
C2    C27   A    
C2    C40   A    
C61   O22   A    
C54   C112  S    
C80   C97   A    
C65   C74   S    
C58   C67   A    
C14   C21   S    
Cr1   O9    S    
Cr10  O47   S    
C27   C45   S    
C73   H67   S    
C111  O32   A    
C9    C115  S    
C64   O26   A    
Cr8   O45   S    
C36   H46   S    
C12   C22   S    
Cr12  O27   S    
C11   O39   A    
C4    O45   A    
Cr3   O29   S    
C70   C71   A    
C26   C30   A    
C112  O23   A    
C49   H63   S    
C103  H25   S    
C26   C43   S    
Cr6   O11   S    
C21   C61   S    
C72   C73   A    
C33   O19   A    
C119  O46   A    
C78   H8    S    
Cr2   O6    S    
C74   H5    S    
C38   C56   A    
C119  O41   A    
C97   H15   S    
C61   O27   A    
C74   C75   S    
C41   H51   S    
C118  O40   A    
C104  H21   S    
C44   O20   A    
Cr9   O46   S    
C96   H14   S    
C94   C98   A    
C104  H26   S    
C112  O33   A    
C4    O52   A    
Cr10  O11   S    
C104  C108  S    
Cr8   O44   S    
C107  H33   S    
C22   C62   S    
C109  O1    A    
C93   C115  A    
Cr2   O28   S    
C6    O3    A    
C11   O8    A    
Cr8   O22   S    
C25   C64   S    
C84   C102  S    
C12   H36   S    
C1    O14   A    
C83   C101  S    
C106  H32   S    
C8    O36   A    
C52   C109  S    
C76   H7    S    
C108  H30   S    
C85   C103  S    
C101  C105  S    
C106  H28   S    
C60   C72   A    
C1    C24   S    
C23   C88   S    
Cr7   O17   S    
C35   C52   A    
C13   C33   S    
Cr6   O16   S    
C47   H54   S    
C28   C46   S    
C45   H57   S    
Cr1   O36   S    
C64   O30   A    
C34   C56   A    
C88   H42   S    
C113  O35   A    
Cr3   O7    S    
C8    C114  S    
C83   C87   A    
C113  O34   A    
Cr3   O33   S    
C22   C77   S    
Cr10  O20   S    
C79   C96   A    
Br4   C51   S    
C56   C113  S    
C20   C88   S    
C5    C57   S    
C46   H53   S    
Cr4   O30   S    
C29   C47   S    
C7    O4    A    
C33   O15   A    
Cr9   O49   S    
C15   C25   S    
C69   C78   S    
Cr2   O32   S    
C118  O44   A    
Cr12  O9    S    
C102  C106  S    
C57   C65   A    
C109  O31   A    
C17   C21   S    
C84   C89   A    
C63   O29   A    
C75   H4    S    
C36   C53   A    
C11   C117  S    
C6    O50   A    
C103  C107  S    
C9    O6    A    
Cr12  O52   S    
C12   C14   S    
C5    O49   A    
C120  O42   A    
C80   C84   A    
C18   H12   S    
C68   C69   A    
Br2   C49   S    
C105  H31   S    
C24   C29   A    
C35   C39   A    
C17   C77   S    
C94   C116  A    
C43   C48   S    
C21   C66   S    
C16   C23   S    
C80   C120  S    
C45   H59   S    
C30   C48   S    
C29   C34   A    
C10   C116  S    
Cr7   O13   S    
C3    O48   A    
C31   C53   A    
C38   H48   S    
C20   H34   S    
C87   C105  S    
Cr5   O12   S    
C14   C18   S    
C71   H56   S    
C15   H38   S    
C86   C104  S    
Cr10  O50   S    
C68   C76   S    
C101  H22   S    
Cr7   O39   S    
Cr7   O43   S    
C105  H27   S    
Cr6   O38   S    
Cr3   O11   S    
C3    C79   S    
C76   H68   S    
Cr5   O37   S    
Cr2   O2    S    
C55   C110  S    
C102  H24   S    
C92   C96   A    
C27   C31   A    
Cr1   O1    S    
Cr9   O19   S    
C76   C78   S    
C55   O17   A    
C111  O12   A    
C81   C119  S    
C99   H43   S    
C43   H55   S    
C55   O21   A    
Br1   C48   S    
C87   C114  A    
C32   C50   S    
C77   H41   S    
Cr12  O5    S    
C75   H6    S    
C14   H37   S    
Cr4   O8    S    
C8    O5    A    
C36   C40   A    
C48   H62   S    
C59   C68   A    
C63   O25   A    
C101  H18   S    
C78   H2    S    
C102  H19   S    
C18   C22   S    
C46   H60   S    
C23   C63   S    
C13   C28   A    
C37   C41   A    
C37   H47   S    
C9    O37   A    
Cr8   O9    S    
C89   C115  A    
Cr11  O51   S    
C7    C59   S    
C66   H40   S    
Cr4   O13   S    
C18   C66   S    
C93   C97   A    
C81   C98   A    
C44   O16   A    
C40   H50   S    
Cr11  O13   S    
