data_mof_unit_31858.cif
_audit_creation_date              2012-12-10T16:45:22-0500
_audit_creation_method            fapswitch 2.2
_symmetry_space_group_name_H-M    P1
_symmetry_Int_Tables_number       1
_space_group_crystal_system       triclinic
_cell_length_a                    7.486522
_cell_length_b                    8.734037
_cell_length_c                    15.771708
_cell_angle_alpha                 95.423426
_cell_angle_beta                  75.417896
_cell_angle_gamma                 103.160265
_cell_volume                      971.084863495

loop_
_atom_site_label
_atom_site_type_symbol
_atom_type_description
_atom_site_fract_x
_atom_site_fract_y
_atom_site_fract_z
_atom_type_partial_charge
C1    C     C_R   0.543331 0.799475 0.503617 0.847480
C2    C     C_R   0.456668 0.200525 0.496383 0.847481
C3    C     C_R   0.302633 0.356852 0.068523 0.357983
C4    C     C_R   0.697369 0.643148 0.931477 0.357984
C5    C     C_R   0.162725 0.335041 0.021405 0.339752
C6    C     C_R   0.837279 0.664956 0.978594 0.339751
C7    C     C_2   0.554127 0.965005 0.517096 0.130036
C8    C     C_2   0.445873 0.034995 0.482904 0.130035
C9    C     C_R   0.385014 0.488183 0.666148 0.797378
C10   C     C_R   0.614986 0.511817 0.333852 0.797379
C11   C     C_R   0.316273 0.473296 0.761414 -0.053739
C12   C     C_R   0.683727 0.526705 0.238586 -0.053738
C13   C     C_R   0.069523 0.384572 0.888897 -0.132791
C14   C     C_R   0.930479 0.615424 0.111102 -0.132793
C15   C     C_R   0.124646 0.422613 0.800857 -0.080847
C16   C     C_R   0.875355 0.577384 0.199143 -0.080850
C17   C     C_R   0.447910 0.502112 0.813124 -0.086424
C18   C     C_R   0.552090 0.497892 0.186876 -0.086424
C19   C     C_R   0.392379 0.484722 0.903878 0.083718
C20   C     C_R   0.607622 0.515280 0.096122 0.083718
C21   C     C_R   0.205064 0.403904 0.939414 -0.033314
C22   C     C_R   0.794939 0.596095 0.060586 -0.033311
C23   C     C_R   0.523353 0.531846 0.957836 -0.158741
C24   C     C_R   0.476648 0.468156 0.042164 -0.158743
Cu1   Cu    Cu3+1 0.322120 0.483240 0.490330 1.174861
Cu2   Cu    Cu3+1 0.677880 0.516760 0.509670 1.174861
H1    H     H_    0.403734 0.471364 0.218748 0.203752
H2    H     H_    0.596265 0.528641 0.781252 0.203754
H3    H     H_    0.980783 0.597466 0.237348 0.183683
H4    H     H_    0.019218 0.402527 0.762651 0.183683
H5    H     H_    0.921253 0.337611 0.916026 0.151890
H6    H     H_    0.078750 0.662381 0.083974 0.151888
N1    N     N_2   0.945180 0.542040 0.524240 0.120731
N2    N     N_2   0.054820 0.457960 0.475760 0.120731
O1    O     O_R   0.384450 0.714270 0.493720 -0.541990
O2    O     O_R   0.615550 0.285730 0.506280 -0.541990
O3    O     O_R   0.684880 0.742590 0.510050 -0.519586
O4    O     O_R   0.315120 0.257410 0.489950 -0.519586
O5    O     O_R   0.265540 0.477900 0.617090 -0.563270
O6    O     O_R   0.734460 0.522100 0.382910 -0.563271
O7    O     O_R   0.565970 0.506210 0.633420 -0.562734
O8    O     O_R   0.434030 0.493790 0.366580 -0.562734
O9    O     O_3   0.992146 0.234801 0.054584 -0.650805
H7    H     H_    0.944192 0.175279 0.005460 0.348359
O10   O     O_3   0.007863 0.765186 0.945411 -0.650806
H8    H     H_    0.055821 0.824710 0.994534 0.348359
Cl1   Cl    Cl    0.266839 0.214476 0.147742 -0.488217
Cl2   Cl    Cl    0.733166 0.785525 0.852258 -0.488221
Cl3   Cl    Cl    0.690935 0.059154 0.592017 -0.489080
Cl4   Cl    Cl    0.309065 0.940846 0.407983 -0.489079
Cl5   Cl    Cl    0.017166 0.667203 0.606391 -0.378082
Cl6   Cl    Cl    0.982834 0.332797 0.393609 -0.378083

loop_
_geom_bond_atom_site_label_1
_geom_bond_atom_site_label_2
_ccdc_geom_bond_type
Cu1   O8    S    
C19   C23   A    
C23   C24   A    
Cu2   O3    S    
C6    O10   S    
Cu1   O4    S    
C10   O8    A    
C2    O4    A    
Cu2   N1    S    
N2    Cl6   S    
C1    O3    A    
Cu1   N2    S    
O9    H7    S    
C14   C22   A    
C11   C15   A    
N1    N2    D    
C5    O9    S    
C13   C21   A    
C7    C8    D    
Cu1   Cu2   S    
O10   H8    S    
Cu1   O5    S    
C9    C11   S    
Cu2   O6    S    
C3    C24   A    
C10   C12   S    
Cu1   O1    S    
C3    Cl1   S    
C19   C21   A    
C20   C22   A    
C18   C20   A    
C13   C15   A    
C14   C16   A    
C4    C6    A    
N1    Cl5   S    
C12   C18   A    
C6    C22   A    
C8    Cl4   S    
Cu2   O2    S    
C5    C21   A    
C7    Cl3   S    
C15   H4    S    
C10   O6    A    
C4    Cl2   S    
C2    O2    A    
C4    C23   A    
C20   C24   A    
C11   C17   A    
C1    O1    A    
C17   C19   A    
C16   H3    S    
C1    C7    S    
C17   H2    S    
C9    O7    A    
C13   H5    S    
C9    O5    A    
C2    C8    S    
C18   H1    S    
C12   C16   A    
Cu2   O7    S    
C14   H6    S    
C3    C5    A    
