data_mof_unit_34403.cif
_audit_creation_date              2012-12-10T17:18:33-0500
_audit_creation_method            fapswitch 2.2
_symmetry_space_group_name_H-M    P1
_symmetry_Int_Tables_number       1
_space_group_crystal_system       monoclinic
_cell_length_a                    21.679189
_cell_length_b                    21.679189
_cell_length_c                    30.056923
_cell_angle_alpha                 90.00001
_cell_angle_beta                  90.0
_cell_angle_gamma                 90.0
_cell_volume                      14126.3701543

loop_
_atom_site_label
_atom_site_type_symbol
_atom_type_description
_atom_site_fract_x
_atom_site_fract_y
_atom_site_fract_z
_atom_type_partial_charge
C1    C     C_R   0.500000 0.120005 0.500000 1.059506
C2    C     C_R   0.282035 0.371984 0.580764 0.403633
C3    C     C_R   0.000000 0.500000 0.413264 0.968969
C4    C     C_R   1.000000 0.500000 0.086746 0.970291
C5    C     C_R   0.500000 0.000000 0.086746 0.970291
C6    C     C_R   1.000000 0.500000 0.913254 0.970292
C7    C     C_R   0.500000 0.000000 0.913254 0.970293
C8    C     C_R   0.461578 0.040381 0.842798 -0.098268
C9    C     C_R   0.040381 0.538422 0.842798 -0.098268
C10   C     C_R   0.538422 0.959619 0.842798 -0.098268
C11   C     C_R   0.959619 0.461578 0.842798 -0.098268
C12   C     C_R   0.461578 0.959619 0.157202 -0.098267
C13   C     C_R   0.371984 0.717965 0.580764 0.403633
C14   C     C_R   0.040381 0.461578 0.157202 -0.098268
C15   C     C_R   0.538422 0.040381 0.157202 -0.098268
C16   C     C_R   0.959619 0.538422 0.157202 -0.098268
C17   C     C_R   0.039070 0.460241 0.342846 -0.130622
C18   C     C_R   0.460241 0.960930 0.342846 -0.130623
C19   C     C_R   0.960930 0.539759 0.342846 -0.130623
C20   C     C_R   0.539759 0.039070 0.342846 -0.130624
C21   C     C_R   0.039070 0.539759 0.657154 -0.130622
C22   C     C_R   0.460241 0.039070 0.657154 -0.130620
C23   C     C_R   0.960930 0.460241 0.657154 -0.130623
C24   C     C_R   0.717965 0.628016 0.580764 0.403633
C25   C     C_R   0.539759 0.960930 0.657154 -0.130618
C26   C     C_R   0.500000 1.000000 0.865422 -0.122083
C27   C     C_R   1.000000 0.500000 0.865422 -0.122082
C28   C     C_R   0.500000 1.000000 0.134578 -0.122082
C29   C     C_R   0.000000 0.500000 0.134578 -0.122082
C30   C     C_R   1.000000 0.500000 0.365451 -0.086814
C31   C     C_R   0.500000 0.000000 0.365451 -0.086813
C32   C     C_R   1.000000 0.500000 0.634549 -0.086814
C33   C     C_R   0.500000 0.000000 0.634549 -0.086819
C34   C     C_R   0.541551 0.961001 0.796447 -0.030039
C35   C     C_R   0.628016 0.717965 0.419236 0.403633
C36   C     C_R   0.961002 0.458449 0.796447 -0.030041
C37   C     C_R   0.458449 0.038998 0.796447 -0.030039
C38   C     C_R   0.038998 0.541551 0.796447 -0.030040
C39   C     C_R   0.541551 0.038998 0.203553 -0.030041
C40   C     C_R   0.961002 0.541551 0.203553 -0.030041
C41   C     C_R   0.458449 0.961002 0.203553 -0.030041
C42   C     C_R   0.038998 0.458449 0.203553 -0.030041
C43   C     C_R   0.957990 0.538532 0.296485 -0.023087
C44   C     C_R   0.538531 0.042010 0.296485 -0.023087
C45   C     C_R   0.042009 0.461468 0.296485 -0.023086
C46   C     C_R   0.282035 0.628016 0.419236 0.403633
C47   C     C_R   0.461468 0.957990 0.296485 -0.023087
C48   C     C_R   0.957990 0.461469 0.703515 -0.023087
C49   C     C_R   0.538531 0.957990 0.703515 -0.023083
C50   C     C_R   0.042010 0.538531 0.703515 -0.023086
C51   C     C_R   0.461469 0.042010 0.703515 -0.023085
C52   C     C_R   0.500000 0.000000 0.773164 -0.027525
C53   C     C_R   1.000000 0.500000 0.773164 -0.027525
C54   C     C_R   0.500000 0.000000 0.226836 -0.027525
C55   C     C_R   1.000000 0.500000 0.226836 -0.027525
C56   C     C_R   1.000000 0.500000 0.273206 0.010856
C57   C     C_R   0.371983 0.282035 0.419236 0.403635
C58   C     C_R   0.500000 0.000000 0.273206 0.010856
C59   C     C_R   1.000000 0.500000 0.726794 0.010855
C60   C     C_R   0.500000 0.000000 0.726794 0.010854
C61   C     C_R   0.583789 0.923068 0.773129 0.325849
C62   C     C_R   0.923069 0.416211 0.773129 0.325850
C63   C     C_R   0.416211 0.076932 0.773129 0.325849
C64   C     C_R   0.076931 0.583789 0.773129 0.325850
C65   C     C_R   0.583789 0.076931 0.226871 0.325851
C66   C     C_R   0.923069 0.583789 0.226871 0.325851
C67   C     C_R   0.416210 0.923069 0.226871 0.325851
C68   C     C_R   0.717965 0.371983 0.419236 0.403633
C69   C     C_R   0.076931 0.416211 0.226871 0.325851
C70   C     C_R   0.915462 0.576148 0.273155 0.202515
C71   C     C_R   0.576148 0.084538 0.273155 0.202516
C72   C     C_R   0.084538 0.423852 0.273155 0.202514
C73   C     C_R   0.423852 0.915462 0.273155 0.202516
C74   C     C_R   0.915462 0.423852 0.726845 0.202515
C75   C     C_R   0.576147 0.915462 0.726845 0.202507
C76   C     C_R   0.084538 0.576148 0.726845 0.202513
C77   C     C_R   0.423853 0.084538 0.726845 0.202509
C78   C     C_R   0.566877 0.189292 0.568313 0.292044
C79   C     C_R   0.125401 0.781880 0.082914 0.391182
C80   C     C_R   0.189292 0.433123 0.568313 0.292046
C81   C     C_R   0.433123 0.810708 0.568313 0.292046
C82   C     C_R   0.810708 0.566877 0.568313 0.292045
C83   C     C_R   0.566877 0.810708 0.431687 0.292045
C84   C     C_R   0.189292 0.566877 0.431687 0.292045
C85   C     C_R   0.433123 0.189292 0.431687 0.292045
C86   C     C_R   0.810708 0.433123 0.431687 0.292046
C87   C     C_R   0.064607 0.689177 0.069402 0.298501
C88   C     C_R   0.689177 0.935393 0.069402 0.298503
C89   C     C_R   0.935393 0.310823 0.069402 0.298502
C90   C     C_R   0.781880 0.874599 0.082914 0.391182
C91   C     C_R   0.310823 0.064607 0.069402 0.298502
C92   C     C_R   0.064607 0.310823 0.930598 0.298502
C93   C     C_R   0.689177 0.064606 0.930598 0.298503
C94   C     C_R   0.935393 0.689177 0.930598 0.298503
C95   C     C_R   0.310823 0.935393 0.930598 0.298501
C96   C     C_R   0.615272 0.220200 0.591010 0.356676
C97   C     C_R   0.220200 0.384728 0.591010 0.356677
C98   C     C_R   0.384728 0.779799 0.591010 0.356677
C99   C     C_R   0.779799 0.615272 0.591010 0.356677
C100  C     C_R   0.615272 0.779800 0.408990 0.356677
C101  C     C_R   0.874599 0.218120 0.082914 0.391181
C102  C     C_R   0.220200 0.615272 0.408990 0.356677
C103  C     C_R   0.384728 0.220200 0.408990 0.356676
C104  C     C_R   0.779799 0.384728 0.408990 0.356676
C105  C     C_R   0.112080 0.720094 0.093092 0.355425
C106  C     C_R   0.720094 0.887920 0.093091 0.355424
C107  C     C_R   0.887920 0.279906 0.093092 0.355424
C108  C     C_R   0.279906 0.112080 0.093092 0.355425
C109  C     C_R   0.112080 0.279905 0.906908 0.355424
C110  C     C_R   0.720094 0.112080 0.906908 0.355424
C111  C     C_R   0.887920 0.720094 0.906908 0.355424
C112  C     C_R   0.120004 0.500000 0.500000 1.059506
C113  C     C_R   0.218120 0.125401 0.082914 0.391181
C114  C     C_R   0.279906 0.887920 0.906908 0.355425
C115  C     C_R   0.125401 0.218120 0.917086 0.391181
C116  C     C_R   0.781880 0.125400 0.917086 0.391181
C117  C     C_R   0.874599 0.781880 0.917086 0.391182
C118  C     C_R   0.218120 0.874599 0.917086 0.391181
C119  C     C_R   0.591111 0.312808 0.549560 -0.361390
C120  C     C_R   0.312808 0.408888 0.549560 -0.361389
C121  C     C_R   0.408889 0.687192 0.549560 -0.361389
C122  C     C_R   0.687192 0.591111 0.549560 -0.361389
C123  C     C_R   0.591111 0.687192 0.450440 -0.361389
C124  C     C_R   0.500000 0.879995 0.500000 1.059507
C125  C     C_R   0.312808 0.591111 0.450440 -0.361389
C126  C     C_R   0.408888 0.312808 0.450440 -0.361389
C127  C     C_R   0.687192 0.408889 0.450440 -0.361390
C128  C     C_R   0.089724 0.812598 0.050932 -0.352978
C129  C     C_R   0.812598 0.910276 0.050932 -0.352977
C130  C     C_R   0.910276 0.187402 0.050932 -0.352977
C131  C     C_R   0.187402 0.089724 0.050932 -0.352977
C132  C     C_R   0.089724 0.187402 0.949068 -0.352977
C133  C     C_R   0.812598 0.089724 0.949068 -0.352977
C134  C     C_R   0.910276 0.812598 0.949068 -0.352977
C135  C     C_R   0.879995 0.500000 0.500000 1.059507
C136  C     C_R   0.187402 0.910276 0.949068 -0.352977
C137  C     C_R   0.543081 0.282116 0.526783 -0.025473
C138  C     C_R   0.282116 0.456919 0.526783 -0.025473
C139  C     C_R   0.456919 0.717884 0.526783 -0.025473
C140  C     C_R   0.717884 0.543081 0.526783 -0.025473
C141  C     C_R   0.543081 0.717884 0.473217 -0.025473
C142  C     C_R   0.282116 0.543081 0.473217 -0.025473
C143  C     C_R   0.456919 0.282116 0.473217 -0.025473
C144  C     C_R   0.717884 0.456919 0.473217 -0.025473
C145  C     C_R   0.042278 0.782014 0.027454 -0.026882
C146  C     C_R   1.000000 0.619985 0.000000 1.058236
C147  C     C_R   0.782014 0.957722 0.027454 -0.026882
C148  C     C_R   0.957722 0.217986 0.027454 -0.026881
C149  C     C_R   0.217986 0.042278 0.027454 -0.026882
C150  C     C_R   0.042278 0.217986 0.972545 -0.026881
C151  C     C_R   0.782014 0.042278 0.972545 -0.026882
C152  C     C_R   0.957722 0.782014 0.972545 -0.026882
C153  C     C_R   0.217986 0.957722 0.972545 -0.026881
C154  C     C_R   0.536833 0.218370 0.531676 -0.036231
C155  C     C_R   0.218370 0.463167 0.531676 -0.036231
C156  C     C_R   0.463167 0.781630 0.531676 -0.036231
C157  C     C_R   0.619985 0.000000 0.000000 1.058236
C158  C     C_R   0.781630 0.536833 0.531676 -0.036231
C159  C     C_R   0.536833 0.781630 0.468324 -0.036231
C160  C     C_R   0.218370 0.536833 0.468324 -0.036231
C161  C     C_R   0.463167 0.218370 0.468324 -0.036231
C162  C     C_R   0.781630 0.463167 0.468324 -0.036231
C163  C     C_R   0.035813 0.718293 0.032271 -0.038057
C164  C     C_R   0.718293 0.964187 0.032271 -0.038057
C165  C     C_R   0.964187 0.281707 0.032271 -0.038057
C166  C     C_R   0.281707 0.035813 0.032271 -0.038057
C167  C     C_R   0.035813 0.281707 0.967729 -0.038057
C168  C     C_R   0.000000 0.380015 0.000000 1.058236
C169  C     C_R   0.718293 0.035813 0.967729 -0.038057
C170  C     C_R   0.964187 0.718293 0.967729 -0.038057
C171  C     C_R   0.281707 0.964187 0.967729 -0.038057
C172  C     C_R   0.500000 0.313844 0.500000 -0.049179
C173  C     C_R   0.313844 0.500000 0.500000 -0.049179
C174  C     C_R   0.500000 0.686156 0.500000 -0.049179
C175  C     C_R   0.686156 0.500000 0.500000 -0.049179
C176  C     C_R   1.000000 0.813781 0.000000 -0.053896
C177  C     C_R   0.813781 0.000000 0.000000 -0.053896
C178  C     C_R   0.000000 0.186219 0.000000 -0.053896
C179  C     C_R   0.380015 0.000000 0.000000 1.058237
C180  C     C_R   0.186219 1.000000 0.000000 -0.053896
C181  C     C_R   0.500000 0.186370 0.500000 -0.084460
C182  C     C_R   0.186370 0.500000 0.500000 -0.084460
C183  C     C_R   0.500000 0.813630 0.500000 -0.084460
C184  C     C_R   0.813630 0.500000 0.500000 -0.084460
C185  C     C_R   1.000000 0.686320 0.000000 -0.082890
C186  C     C_R   0.686320 0.000000 0.000000 -0.082890
C187  C     C_R   0.000000 0.313680 0.000000 -0.082890
C188  C     C_R   0.313680 0.000000 0.000000 -0.082890
C189  C     C_R   0.380084 0.500000 0.500000 0.832627
C190  C     C_R   0.628016 0.282035 0.580764 0.403634
C191  C     C_R   0.500000 0.619916 0.500000 0.832627
C192  C     C_R   0.619916 0.500000 0.500000 0.832627
C193  C     C_R   0.500000 0.380084 0.500000 0.832627
C194  C     C_R   0.880059 0.000000 0.000000 0.838042
C195  C     C_R   0.000000 0.119941 0.000000 0.838042
C196  C     C_R   0.119941 0.000000 0.000000 0.838042
C197  C     C_R   1.000000 0.880059 0.000000 0.838042
C198  C     C_R   0.500000 0.000000 0.586736 0.968968
C199  C     C_R   0.000000 0.500000 0.586736 0.968968
C200  C     C_R   0.500000 0.000000 0.413264 0.968969
H1    H     H_    0.434323 0.072537 0.862022 0.216996
H2    H     H_    0.428648 0.933096 0.362116 0.198002
H3    H     H_    0.933096 0.571352 0.362116 0.198003
H4    H     H_    0.571352 0.066904 0.362116 0.198002
H5    H     H_    0.066904 0.571352 0.637884 0.198005
H6    H     H_    0.428649 0.066904 0.637884 0.198009
H7    H     H_    0.933096 0.428648 0.637884 0.198003
H8    H     H_    0.571351 0.933095 0.637884 0.198012
H9    H     H_    0.601081 0.360793 0.542875 0.173266
H10   H     H_    0.360793 0.398919 0.542875 0.173266
H11   H     H_    0.398919 0.639207 0.542875 0.173266
H12   H     H_    0.072537 0.565677 0.862022 0.216996
H13   H     H_    0.639207 0.601081 0.542875 0.173266
H14   H     H_    0.601081 0.639207 0.457125 0.173266
H15   H     H_    0.360793 0.601081 0.457125 0.173266
H16   H     H_    0.398919 0.360793 0.457125 0.173266
H17   H     H_    0.639207 0.398919 0.457125 0.173266
H18   H     H_    0.100202 0.860464 0.044213 0.174422
H19   H     H_    0.860464 0.899798 0.044213 0.174422
H20   H     H_    0.899798 0.139536 0.044213 0.174422
H21   H     H_    0.139536 0.100202 0.044213 0.174421
H22   H     H_    0.100201 0.139536 0.955787 0.174422
H23   H     H_    0.565677 0.927462 0.862022 0.216996
H24   H     H_    0.860464 0.100202 0.955787 0.174422
H25   H     H_    0.899798 0.860464 0.955787 0.174422
H26   H     H_    0.139536 0.899798 0.955787 0.174422
H27   H     H_    0.739910 0.857139 0.783017 0.416164
H28   H     H_    0.857139 0.260090 0.783018 0.416162
H29   H     H_    0.260090 0.142860 0.783017 0.416163
H30   H     H_    0.142860 0.739911 0.783018 0.416162
H31   H     H_    0.739910 0.142861 0.216982 0.416162
H32   H     H_    0.857140 0.739911 0.216982 0.416162
H33   H     H_    0.260089 0.857140 0.216982 0.416162
H34   H     H_    0.927463 0.434323 0.862022 0.216996
H35   H     H_    0.142860 0.260089 0.216982 0.416162
H36   H     H_    0.911992 0.675550 0.326392 0.351233
H37   H     H_    0.675550 0.088008 0.326393 0.351233
H38   H     H_    0.088008 0.324449 0.326391 0.351235
H39   H     H_    0.324450 0.911992 0.326393 0.351234
H40   H     H_    0.911992 0.324450 0.673607 0.351233
H41   H     H_    0.675555 0.911991 0.673615 0.351243
H42   H     H_    0.088008 0.675552 0.673609 0.351235
H43   H     H_    0.324447 0.088008 0.673613 0.351238
H44   H     H_    0.248046 0.190892 0.339962 0.404450
H45   H     H_    0.434323 0.927463 0.137978 0.216996
H46   H     H_    0.190892 0.751954 0.339962 0.404450
H47   H     H_    0.751954 0.809108 0.339963 0.404450
H48   H     H_    0.809107 0.248046 0.339962 0.404450
H49   H     H_    0.248046 0.809107 0.660038 0.404450
H50   H     H_    0.190892 0.248046 0.660038 0.404449
H51   H     H_    0.751954 0.190892 0.660038 0.404450
H52   H     H_    0.809108 0.751954 0.660038 0.404449
H53   H     H_    0.862152 0.652686 0.797781 0.403913
H54   H     H_    0.652686 0.137847 0.797780 0.403913
H55   H     H_    0.137848 0.347314 0.797781 0.403913
H56   H     H_    0.072537 0.434323 0.137978 0.216996
H57   H     H_    0.347314 0.862152 0.797780 0.403913
H58   H     H_    0.862152 0.347314 0.202219 0.403913
H59   H     H_    0.652686 0.862152 0.202219 0.403913
H60   H     H_    0.137848 0.652686 0.202219 0.403913
H61   H     H_    0.347314 0.137848 0.202219 0.403913
H62   H     H_    0.551894 0.130029 0.615650 0.384113
H63   H     H_    0.130029 0.448106 0.615650 0.384113
H64   H     H_    0.448106 0.869971 0.615650 0.384113
H65   H     H_    0.869971 0.551894 0.615650 0.384113
H66   H     H_    0.551894 0.869971 0.384350 0.384113
H67   H     H_    0.565677 0.072537 0.137978 0.216996
H68   H     H_    0.130029 0.551894 0.384350 0.384113
H69   H     H_    0.448106 0.130029 0.384350 0.384113
H70   H     H_    0.869971 0.448106 0.384350 0.384113
H71   H     H_    0.048428 0.629295 0.116162 0.385801
H72   H     H_    0.629295 0.951572 0.116162 0.385801
H73   H     H_    0.951572 0.370705 0.116162 0.385802
H74   H     H_    0.370705 0.048428 0.116162 0.385801
H75   H     H_    0.048428 0.370705 0.883838 0.385801
H76   H     H_    0.629295 0.048428 0.883838 0.385801
H77   H     H_    0.951572 0.629295 0.883838 0.385801
H78   H     H_    0.927463 0.565677 0.137978 0.216996
H79   H     H_    0.370705 0.951572 0.883838 0.385801
H80   H     H_    0.677778 0.355417 0.591801 0.351428
H81   H     H_    0.355417 0.322222 0.591801 0.351428
H82   H     H_    0.322222 0.644583 0.591801 0.351428
H83   H     H_    0.644583 0.677778 0.591801 0.351429
H84   H     H_    0.677778 0.644583 0.408199 0.351428
H85   H     H_    0.355417 0.677778 0.408199 0.351428
H86   H     H_    0.322222 0.355417 0.408199 0.351428
H87   H     H_    0.644583 0.322222 0.408199 0.351428
H88   H     H_    0.174960 0.855218 0.094628 0.349050
H89   H     H_    0.066904 0.428648 0.362116 0.198004
H90   H     H_    0.855218 0.825040 0.094628 0.349051
H91   H     H_    0.825040 0.144782 0.094628 0.349051
H92   H     H_    0.144782 0.174960 0.094628 0.349050
H93   H     H_    0.174960 0.144782 0.905372 0.349050
H94   H     H_    0.855218 0.174960 0.905371 0.349051
H95   H     H_    0.825040 0.855218 0.905372 0.349051
H96   H     H_    0.144782 0.825040 0.905371 0.349051
O1    O     O_R   0.448270 0.091550 0.500010 -0.594007
O2    O     O_R   0.591550 0.051730 0.000010 -0.593736
O3    O     O_2   0.185142 0.629648 0.324429 -0.256037
O4    O     O_2   0.114314 0.668012 0.381662 -0.280293
O5    O     O_3   0.212718 0.731791 0.365000 -0.413273
O6    O     O_2   0.629649 0.814858 0.324429 -0.256037
O7    O     O_2   0.668012 0.885686 0.381662 -0.280293
O8    O     O_3   0.731791 0.787282 0.365000 -0.413273
O9    O     O_2   0.814858 0.370352 0.324429 -0.256037
O10   O     O_2   0.885686 0.331988 0.381662 -0.280293
O11   O     O_3   0.787282 0.268209 0.365000 -0.413273
O12   O     O_2   0.370352 0.814858 0.675571 -0.256037
O13   O     O_R   0.051730 0.408450 0.000010 -0.593735
O14   O     O_2   0.331988 0.885686 0.618338 -0.280293
O15   O     O_3   0.268209 0.787282 0.635000 -0.413273
O16   O     O_2   0.185142 0.370351 0.675571 -0.256037
O17   O     O_2   0.114314 0.331988 0.618338 -0.280294
O18   O     O_3   0.212718 0.268209 0.635000 -0.413272
O19   O     O_2   0.629649 0.185142 0.675571 -0.256037
O20   O     O_2   0.668012 0.114314 0.618338 -0.280293
O21   O     O_3   0.731791 0.212718 0.635000 -0.413273
O22   O     O_2   0.814858 0.629649 0.675571 -0.256037
O23   O     O_2   0.885686 0.668012 0.618338 -0.280293
O24   O     O_R   0.408450 0.948270 0.000010 -0.593735
O25   O     O_3   0.787282 0.731791 0.635000 -0.413273
O26   O     O_2   0.834297 0.614863 0.879653 -0.266722
O27   O     O_2   0.782472 0.710683 0.858428 -0.146585
O28   O     O_3   0.884056 0.681892 0.817603 -0.520387
O29   O     O_2   0.614863 0.165703 0.879653 -0.266722
O30   O     O_2   0.710683 0.217528 0.858428 -0.146585
O31   O     O_3   0.681892 0.115944 0.817603 -0.520388
O32   O     O_2   0.165703 0.385137 0.879653 -0.266722
O33   O     O_2   0.217528 0.289317 0.858428 -0.146585
O34   O     O_3   0.115944 0.318108 0.817603 -0.520388
O35   O     O_R   0.948270 0.408450 0.999990 -0.593735
O36   O     O_2   0.385136 0.834297 0.879653 -0.266722
O37   O     O_2   0.289317 0.782472 0.858428 -0.146585
O38   O     O_3   0.318108 0.884056 0.817603 -0.520388
O39   O     O_2   0.834297 0.385136 0.120347 -0.266722
O40   O     O_2   0.782472 0.289317 0.141572 -0.146585
O41   O     O_3   0.884056 0.318108 0.182397 -0.520388
O42   O     O_2   0.614864 0.834297 0.120347 -0.266722
O43   O     O_2   0.710683 0.782472 0.141572 -0.146585
O44   O     O_3   0.681892 0.884056 0.182397 -0.520387
O45   O     O_2   0.165703 0.614864 0.120347 -0.266722
O46   O     O_R   0.591550 0.948270 0.999990 -0.593735
O47   O     O_2   0.217528 0.710683 0.141572 -0.146585
O48   O     O_3   0.115944 0.681892 0.182397 -0.520387
O49   O     O_2   0.385136 0.165703 0.120347 -0.266722
O50   O     O_2   0.289317 0.217528 0.141572 -0.146585
O51   O     O_3   0.318108 0.115944 0.182397 -0.520387
O52   O     O_3   0.545138 0.133154 0.583179 -0.752120
O53   O     O_3   0.133154 0.454862 0.583179 -0.752120
O54   O     O_3   0.454862 0.866846 0.583179 -0.752120
O55   O     O_3   0.866846 0.545138 0.583179 -0.752120
O56   O     O_3   0.545138 0.866845 0.416821 -0.752120
O57   O     O_R   0.051730 0.591550 0.999990 -0.593735
O58   O     O_3   0.133154 0.545138 0.416821 -0.752120
O59   O     O_3   0.454862 0.133154 0.416821 -0.752120
O60   O     O_3   0.866845 0.454862 0.416821 -0.752120
O61   O     O_3   0.042596 0.632834 0.083631 -0.755470
O62   O     O_3   0.632834 0.957404 0.083631 -0.755471
O63   O     O_3   0.957404 0.367166 0.083631 -0.755470
O64   O     O_3   0.367165 0.042596 0.083631 -0.755471
O65   O     O_3   0.042596 0.367165 0.916369 -0.755470
O66   O     O_3   0.632834 0.042596 0.916369 -0.755471
O67   O     O_3   0.957404 0.632834 0.916369 -0.755471
O68   O     O_R   0.408450 0.051730 0.999990 -0.593735
O69   O     O_3   0.367165 0.957404 0.916369 -0.755470
O70   O     O_3   0.674862 0.312433 0.602904 -0.618448
O71   O     O_3   0.312433 0.325138 0.602904 -0.618447
O72   O     O_3   0.325138 0.687567 0.602904 -0.618448
O73   O     O_3   0.687567 0.674862 0.602904 -0.618447
O74   O     O_3   0.674862 0.687567 0.397096 -0.618448
O75   O     O_3   0.312433 0.674861 0.397096 -0.618449
O76   O     O_3   0.325138 0.312433 0.397096 -0.618449
O77   O     O_3   0.687566 0.325138 0.397096 -0.618448
O78   O     O_3   0.171589 0.812285 0.105765 -0.652972
O79   O     O_R   0.448260 0.999910 0.566090 -0.591573
O80   O     O_3   0.812285 0.828411 0.105765 -0.652973
O81   O     O_3   0.828411 0.187715 0.105765 -0.652973
O82   O     O_3   0.187715 0.171589 0.105765 -0.652971
O83   O     O_3   0.171589 0.187715 0.894235 -0.652971
O84   O     O_3   0.812285 0.171589 0.894235 -0.652972
O85   O     O_3   0.828411 0.812285 0.894235 -0.652972
O86   O     O_3   0.187715 0.828411 0.894235 -0.652972
O87   O     O_R   0.999910 0.551740 0.566090 -0.591574
O88   O     O_R   0.551740 0.000090 0.566090 -0.591573
O89   O     O_R   0.091550 0.551730 0.500010 -0.594008
O90   O     O_R   0.000090 0.448260 0.566090 -0.591575
O91   O     O_R   0.448260 0.000090 0.433910 -0.591574
O92   O     O_R   0.999910 0.448260 0.433910 -0.591574
O93   O     O_R   0.551740 0.999910 0.433910 -0.591575
O94   O     O_R   0.000090 0.551740 0.433910 -0.591575
O95   O     O_R   0.948260 0.499910 0.066090 -0.587326
O96   O     O_R   0.499910 0.051740 0.066090 -0.587326
O97   O     O_R   0.051740 0.500090 0.066090 -0.587326
O98   O     O_R   0.500090 0.948260 0.066090 -0.587326
O99   O     O_R   0.948260 0.500090 0.933910 -0.587326
O100  O     O_R   0.551730 0.908450 0.500010 -0.594007
O101  O     O_R   0.499910 0.948260 0.933910 -0.587326
O102  O     O_R   0.051740 0.499910 0.933910 -0.587326
O103  O     O_R   0.500090 0.051740 0.933910 -0.587326
O104  O     O_R   0.408410 0.499950 0.462690 -0.612113
O105  O     O_R   0.499950 0.591590 0.462690 -0.612114
O106  O     O_R   0.591590 0.500050 0.462690 -0.612114
O107  O     O_R   0.500050 0.408410 0.462690 -0.612113
O108  O     O_R   0.408410 0.500050 0.537310 -0.612114
O109  O     O_R   0.499950 0.408410 0.537310 -0.612114
O110  O     O_R   0.591590 0.499950 0.537310 -0.612114
O111  O     O_R   0.908450 0.448270 0.500010 -0.594008
O112  O     O_R   0.500050 0.591590 0.537310 -0.612114
O113  O     O_R   0.908410 0.999950 0.962690 -0.615219
O114  O     O_R   0.999950 0.091590 0.962690 -0.615220
O115  O     O_R   0.091590 0.000050 0.962690 -0.615220
O116  O     O_R   0.000050 0.908410 0.962690 -0.615219
O117  O     O_R   0.908410 0.000050 0.037310 -0.615220
O118  O     O_R   0.999950 0.908410 0.037310 -0.615220
O119  O     O_R   0.091590 0.999950 0.037310 -0.615220
O120  O     O_R   0.000050 0.091590 0.037310 -0.615220
O121  O     O_2   0.672980 0.937623 0.834990 -0.297533
O122  O     O_R   0.448270 0.908450 0.499990 -0.594008
O123  O     O_2   0.632222 0.833351 0.823949 -0.209931
O124  O     O_3   0.707955 0.878419 0.765146 -0.461110
O125  O     O_2   0.937624 0.327020 0.834990 -0.297535
O126  O     O_2   0.833352 0.367778 0.823949 -0.209933
O127  O     O_3   0.878419 0.292045 0.765146 -0.461094
O128  O     O_2   0.327020 0.062376 0.834990 -0.297534
O129  O     O_2   0.367778 0.166649 0.823949 -0.209931
O130  O     O_3   0.292045 0.121581 0.765146 -0.461106
O131  O     O_2   0.062376 0.672980 0.834990 -0.297534
O132  O     O_2   0.166648 0.632222 0.823949 -0.209932
O133  O     O_R   0.091550 0.448270 0.499990 -0.594008
O134  O     O_3   0.121581 0.707955 0.765146 -0.461098
O135  O     O_2   0.672980 0.062376 0.165009 -0.297535
O136  O     O_2   0.632222 0.166648 0.176051 -0.209933
O137  O     O_3   0.707955 0.121581 0.234853 -0.461093
O138  O     O_2   0.937624 0.672980 0.165009 -0.297535
O139  O     O_2   0.833352 0.632222 0.176051 -0.209933
O140  O     O_3   0.878419 0.707955 0.234853 -0.461094
O141  O     O_2   0.327020 0.937624 0.165009 -0.297535
O142  O     O_2   0.367777 0.833352 0.176051 -0.209933
O143  O     O_3   0.292044 0.878419 0.234853 -0.461093
O144  O     O_R   0.551730 0.091550 0.499990 -0.594008
O145  O     O_2   0.062376 0.327020 0.165009 -0.297535
O146  O     O_2   0.166648 0.367777 0.176051 -0.209933
O147  O     O_3   0.121581 0.292044 0.234853 -0.461096
O148  O     O_2   0.797354 0.618084 0.268613 -0.121403
O149  O     O_2   0.826096 0.560486 0.334794 -0.269767
O150  O     O_3   0.866427 0.672572 0.327240 -0.438885
O151  O     O_2   0.618084 0.202646 0.268613 -0.121403
O152  O     O_2   0.560486 0.173904 0.334794 -0.269767
O153  O     O_3   0.672572 0.133573 0.327240 -0.438886
O154  O     O_2   0.202646 0.381916 0.268613 -0.121403
O155  O     O_R   0.908450 0.551730 0.499990 -0.594008
O156  O     O_2   0.173904 0.439514 0.334793 -0.269766
O157  O     O_3   0.133572 0.327428 0.327240 -0.438887
O158  O     O_2   0.381916 0.797354 0.268613 -0.121403
O159  O     O_2   0.439514 0.826096 0.334794 -0.269767
O160  O     O_3   0.327427 0.866427 0.327240 -0.438886
O161  O     O_2   0.797354 0.381917 0.731387 -0.121403
O162  O     O_2   0.826096 0.439514 0.665206 -0.269767
O163  O     O_3   0.866427 0.327428 0.672760 -0.438885
O164  O     O_2   0.618085 0.797354 0.731386 -0.121403
O165  O     O_2   0.560483 0.826095 0.665207 -0.269760
O166  O     O_R   0.948270 0.591550 0.000010 -0.593735
O167  O     O_3   0.672569 0.866427 0.672758 -0.438896
O168  O     O_2   0.202646 0.618084 0.731387 -0.121403
O169  O     O_2   0.173904 0.560485 0.665207 -0.269765
O170  O     O_3   0.133572 0.672572 0.672759 -0.438888
O171  O     O_2   0.381916 0.202646 0.731386 -0.121403
O172  O     O_2   0.439516 0.173905 0.665207 -0.269762
O173  O     O_3   0.327430 0.133573 0.672759 -0.438891
O174  O     O_2   0.370351 0.185142 0.324429 -0.256037
O175  O     O_2   0.331988 0.114313 0.381662 -0.280293
O176  O     O_3   0.268209 0.212718 0.365000 -0.413273
S1    S     S_3+6 0.649973 0.892299 0.800935 0.100863
S2    S     S_3+6 0.606276 0.151177 0.300982 0.139840
S3    S     S_3+6 0.151177 0.393723 0.300982 0.139841
S4    S     S_3+6 0.393723 0.848823 0.300982 0.139840
S5    S     S_3+6 0.848823 0.393724 0.699018 0.139840
S6    S     S_3+6 0.606275 0.848822 0.699017 0.139840
S7    S     S_3+6 0.151177 0.606276 0.699018 0.139841
S8    S     S_3+6 0.393724 0.151177 0.699018 0.139841
S9    S     S_3+6 0.338846 0.181024 0.368878 0.108366
S10   S     S_3+6 0.181024 0.661154 0.368878 0.108366
S11   S     S_3+6 0.661154 0.818976 0.368878 0.108366
S12   S     S_3+6 0.892299 0.350027 0.800935 0.100867
S13   S     S_3+6 0.818976 0.338846 0.368878 0.108366
S14   S     S_3+6 0.338846 0.818976 0.631122 0.108366
S15   S     S_3+6 0.181024 0.338846 0.631122 0.108366
S16   S     S_3+6 0.661154 0.181024 0.631122 0.108366
S17   S     S_3+6 0.818976 0.661154 0.631122 0.108366
S18   S     S_3+6 0.844200 0.680706 0.865601 0.114304
S19   S     S_3+6 0.680706 0.155799 0.865601 0.114304
S20   S     S_3+6 0.155800 0.319294 0.865602 0.114304
S21   S     S_3+6 0.319294 0.844201 0.865601 0.114304
S22   S     S_3+6 0.844201 0.319294 0.134399 0.114304
S23   S     S_3+6 0.350027 0.107701 0.800935 0.100864
S24   S     S_3+6 0.680706 0.844200 0.134398 0.114304
S25   S     S_3+6 0.155800 0.680706 0.134398 0.114304
S26   S     S_3+6 0.319294 0.155800 0.134398 0.114304
S27   S     S_3+6 0.107701 0.649973 0.800935 0.100865
S28   S     S_3+6 0.649973 0.107701 0.199065 0.100867
S29   S     S_3+6 0.892299 0.649973 0.199065 0.100866
S30   S     S_3+6 0.350027 0.892299 0.199065 0.100867
S31   S     S_3+6 0.107701 0.350027 0.199065 0.100866
S32   S     S_3+6 0.848823 0.606276 0.300982 0.139841
Zn1   Zn    Zn3+2 0.430920 0.000000 0.500000 1.137544
Zn2   Zn    Zn3+2 0.500000 0.500000 0.549800 1.045817
Zn3   Zn    Zn3+2 0.000000 0.000000 0.950200 1.022708
Zn4   Zn    Zn3+2 0.000000 0.000000 0.049800 1.022708
Zn5   Zn    Zn3+2 1.000000 0.569080 0.500000 1.137543
Zn6   Zn    Zn3+2 0.569080 0.000000 0.500000 1.137545
Zn7   Zn    Zn3+2 1.000000 0.430920 0.500000 1.137543
Zn8   Zn    Zn3+2 0.930920 0.500000 0.000000 1.156289
Zn9   Zn    Zn3+2 0.500000 0.069080 0.000000 1.156289
Zn10  Zn    Zn3+2 0.069080 0.500000 0.000000 1.156289
Zn11  Zn    Zn3+2 0.500000 0.930920 0.000000 1.156289
Zn12  Zn    Zn3+2 0.500000 0.500000 0.450200 1.045817

loop_
_geom_bond_atom_site_label_1
_geom_bond_atom_site_label_2
_ccdc_geom_bond_type
H54   O31   S    
C101  C107  A    
O27   S18   D    
C110  C116  A    
O11   S13   S    
C132  C150  A    
C91   C166  A    
O103  Zn9   S    
O152  S2    D    
C176  C197  S    
C18   C47   A    
C111  S18   S    
C155  C182  A    
C41   C67   A    
H36   O150  S    
C165  C187  A    
C81   C156  A    
C166  C188  A    
C50   C59   A    
O118  Zn4   S    
O119  Zn4   S    
C164  C186  A    
C147  C164  A    
O142  S30   D    
O17   S15   D    
C92   C109  A    
O114  Zn3   S    
C12   H45   S    
O165  S6    D    
C7    O101  A    
C8    C26   A    
O163  S5    S    
C168  O13   A    
O102  Zn10  S    
O40   S22   D    
O174  S9    D    
H87   O77   S    
C16   H78   S    
C82   O55   S    
C77   S8    S    
O139  S29   D    
C45   C56   A    
C78   C96   A    
O42   S24   D    
C142  C173  A    
C85   C103  A    
O3    S10   D    
C93   C110  A    
O90   Zn7   S    
C153  C180  A    
C168  C187  S    
O149  S32   D    
O37   S21   D    
C17   C30   A    
C39   C65   A    
C36   C62   A    
C83   O56   S    
O151  S2    D    
C31   C200  S    
C37   C63   A    
C156  C183  A    
C69   S31   S    
C38   C64   A    
C120  H10   S    
O153  S2    S    
H55   O34   S    
C48   C74   A    
C92   O65   S    
H91   O81   S    
H64   O54   S    
O8    S11   S    
C1    C181  S    
O141  S30   D    
C179  C188  S    
H53   O28   S    
C34   C61   A    
O175  S9    D    
C108  C113  A    
C134  H25   S    
C50   C76   A    
C42   C55   A    
O23   S17   D    
C152  C170  A    
O168  S7    D    
C11   C27   A    
C40   C55   A    
H96   O86   S    
H42   O170  S    
C19   H3    S    
C130  H20   S    
C49   C60   A    
C15   C39   A    
H77   O67   S    
O28   S18   S    
C124  C183  S    
H60   O48   S    
H75   O65   S    
O38   S21   S    
C83   C100  A    
O169  S7    D    
C131  C149  A    
O100  Zn6   S    
O34   S20   S    
C128  H18   S    
C175  C192  S    
C118  C136  A    
C35   O74   S    
O111  Zn7   S    
C23   H7    S    
O20   S16   D    
O150  S32   S    
C194  O117  A    
O93   Zn6   S    
C6    O102  A    
C118  O86   S    
O176  S9    S    
C122  H13   S    
O79   Zn1   S    
C16   C29   A    
C24   O73   S    
C106  S24   S    
C150  C178  A    
C94   C170  A    
C136  C153  A    
C125  H15   S    
O12   S14   D    
C66   C70   A    
C38   C53   A    
C170  C185  A    
C1    O144  A    
C124  O122  A    
O5    S10   S    
C128  C145  A    
O46   Zn11  S    
C129  C147  A    
O137  S28   S    
C14   H56   S    
O126  S12   D    
C123  H14   S    
O1    Zn1   S    
H59   O44   S    
C18   C31   A    
C95   C114  A    
O157  S3    S    
C19   C30   A    
C143  C161  A    
C179  O24   A    
C73   S4    S    
C133  C151  A    
C195  O120  A    
H95   O85   S    
O121  S1    D    
C68   O77   S    
C3    C30   S    
C196  O119  A    
C84   C102  A    
C126  C143  A    
C146  C185  S    
O106  Zn12  S    
C86   C104  A    
C157  O46   A    
C23   C48   A    
O113  Zn3   S    
C7    C26   S    
O26   S18   D    
C17   C45   A    
C143  C172  A    
C32   C199  S    
C140  C175  A    
C82   C158  A    
O47   S25   D    
C39   C54   A    
O138  S29   D    
C133  H24   S    
O41   S22   S    
C22   H6    S    
C96   C190  A    
O107  Zn12  S    
O18   S15   S    
C52   C60   A    
O92   Zn7   S    
C140  C158  A    
C90   C129  A    
C141  C159  A    
H46   O5    S    
H31   O137  S    
C49   C75   A    
C36   C53   A    
C57   O76   S    
C25   H8    S    
O145  S31   D    
C84   O58   S    
C197  O118  A    
O105  Zn12  S    
O68   Zn9   S    
O44   S24   S    
C135  O111  A    
O19   S16   D    
C20   C44   A    
O57   Zn10  S    
O128  S23   D    
H76   O66   S    
C115  C132  A    
H63   O53   S    
C93   O66   S    
C135  O155  A    
C109  S20   S    
O132  S27   D    
O35   Zn8   S    
C108  S26   S    
O48   S25   S    
C37   C52   A    
C2    C120  A    
C145  C163  A    
C88   C164  A    
O32   S20   D    
C66   S29   S    
C69   C72   A    
H92   O82   S    
H30   O134  S    
C13   C121  A    
C147  C177  A    
C87   C105  A    
H66   O56   S    
C91   O64   S    
C146  O166  A    
O101  Zn11  S    
C5    O98   A    
C199  O90   A    
C199  O87   A    
C200  O93   A    
H84   O74   S    
O134  S27   S    
C46   O75   S    
H72   O62   S    
C61   S1    S    
O144  Zn6   S    
C141  C174  A    
C67   S30   S    
C191  O112  A    
C14   C29   A    
C35   C100  A    
O117  Zn4   S    
H83   O73   S    
C80   C155  A    
C148  C178  A    
O158  S4    D    
O159  S4    D    
C180  C196  S    
O24   Zn11  S    
H70   O60   S    
O154  S3    D    
C174  C191  S    
O108  Zn2   S    
C151  C169  A    
C111  C117  A    
C121  C139  A    
H50   O18   S    
C35   C123  A    
C112  O133  A    
H73   O63   S    
C122  C140  A    
C101  C130  A    
O127  S12   S    
C158  C184  A    
C33   C198  S    
H62   O52   S    
C9    C38   A    
O148  S32   D    
C161  C181  A    
C2    O71   S    
H35   O147  S    
O167  S6    S    
C95   O69   S    
C139  C174  A    
C40   C66   A    
C51   C60   A    
C25   C33   A    
C138  C155  A    
C100  S11   S    
C55   C56   A    
C148  C165  A    
C85   C161  A    
C82   C99   A    
C46   C125  A    
O15   S14   S    
C119  C190  A    
O161  S5    D    
C79   C128  A    
O112  Zn2   S    
C84   C160  A    
H38   O157  S    
C93   C169  A    
C171  C188  A    
C12   C28   A    
C114  S21   S    
C132  H22   S    
C1    O1    A    
C8    H1    S    
C169  C186  A    
C15   H67   S    
C63   C77   A    
C80   C97   A    
C62   S12   S    
C81   C98   A    
C9    H12   S    
C154  C181  A    
C110  S19   S    
O10   S13   D    
C72   S3    S    
O120  Zn4   S    
O146  S31   D    
O33   S20   D    
O147  S31   S    
H93   O83   S    
C2    C97   A    
C44   C58   A    
O6    S11   D    
C67   C73   A    
O31   S19   S    
O95   Zn8   S    
C103  S9    S    
H65   O55   S    
C189  O104  A    
C4    C29   S    
O164  S6    D    
H85   O75   S    
O166  Zn8   S    
H29   O130  S    
O87   Zn5   S    
O162  S5    D    
C172  C193  S    
C97   S15   S    
C117  C134  A    
C19   C43   A    
O110  Zn2   S    
C96   S16   S    
H90   O80   S    
O135  S28   D    
C57   C103  A    
C119  H9    S    
C177  C194  S    
H80   O70   S    
C20   H4    S    
H88   O78   S    
O115  Zn3   S    
C78   C154  A    
C149  C180  A    
O16   S15   D    
O36   S21   D    
H69   O59   S    
C5    O96   A    
C51   C77   A    
C162  C184  A    
C12   C41   A    
C146  O57   A    
C145  C176  A    
C94   C111  A    
C134  C152  A    
C89   C107  A    
C138  C173  A    
C24   C122  A    
C18   H2    S    
H74   O64   S    
H71   O61   S    
C68   C127  A    
C47   C73   A    
H61   O51   S    
C10   H23   S    
O89   Zn5   S    
C13   O72   S    
O50   S26   D    
C63   S23   S    
C99   S17   S    
C8    C37   A    
C192  O110  A    
H27   O124  S    
O156  S3    D    
C127  H17   S    
O172  S8    D    
O109  Zn2   S    
O43   S24   D    
O131  S27   D    
C91   C108  A    
C191  O105  A    
C113  O82   S    
C68   C104  A    
O94   Zn5   S    
H52   O25   S    
C116  C133  A    
C112  O89   A    
H51   O21   S    
C34   C52   A    
C190  O70   S    
C198  O79   A    
H44   O176  S    
C23   C32   A    
O99   Zn8   S    
C129  H19   S    
C92   C167  A    
C15   C28   A    
C81   O54   S    
O133  Zn7   S    
C195  O114  A    
C150  C167  A    
H41   O167  S    
C105  S25   S    
C189  O108  A    
C137  C154  A    
H82   O72   S    
C127  C144  A    
O125  S12   D    
C65   S28   S    
C25   C49   A    
C94   O67   S    
C115  O83   S    
C90   C106  A    
O7    S11   D    
C198  O88   A    
O49   S26   D    
C62   C74   A    
H58   O41   S    
O39   S22   D    
C78   O52   S    
C95   C171  A    
O14   S14   D    
H94   O84   S    
O124  S1    S    
C87   C163  A    
O130  S23   S    
H37   O153  S    
C85   O59   S    
H47   O8    S    
C193  O107  A    
C24   C99   A    
C168  O35   A    
C53   C59   A    
O116  Zn3   S    
H86   O76   S    
O97   Zn10  S    
C61   C75   A    
C46   C102  A    
C4    O95   A    
O25   S17   S    
C11   C36   A    
O122  Zn1   S    
O173  S8    S    
C197  O116  A    
O140  S29   S    
O21   S16   S    
C79   C105  A    
C44   C71   A    
C151  C177  A    
C21   H5    S    
C13   C98   A    
C160  C182  A    
H57   O38   S    
O88   Zn6   S    
C86   C162  A    
C157  O2    A    
C116  O84   S    
H68   O58   S    
C9    C27   A    
O136  S28   D    
C3    O94   A    
C10   C26   A    
C11   H34   S    
O22   S17   D    
H33   O143  S    
C45   C72   A    
O30   S19   D    
C123  C141  A    
C104  S13   S    
C135  C184  S    
O45   S25   D    
C21   C50   A    
C124  O100  A    
H79   O69   S    
C21   C32   A    
C130  C148  A    
C119  C137  A    
C157  C186  S    
C200  O91   A    
C131  H21   S    
C57   C126  A    
C109  C115  A    
H49   O15   S    
O13   Zn10  S    
C112  C182  S    
C192  O106  A    
C80   O53   S    
C65   C71   A    
C117  O85   S    
C42   C69   A    
C126  H16   S    
C70   S32   S    
C179  O68   A    
O143  S30   S    
C194  O113  A    
C5    C28   S    
C88   C106  A    
C88   O62   S    
C6    C27   S    
C137  C172  A    
O51   S26   S    
C125  C142  A    
C167  C187  A    
C153  C171  A    
C7    O103  A    
C64   C76   A    
C48   C59   A    
C10   C34   A    
C64   S27   S    
H32   O140  S    
C74   S5    S    
C89   C165  A    
C114  C118  A    
C71   S2    S    
O2    Zn9   S    
O123  S1    D    
H48   O11   S    
C16   C40   A    
C43   C70   A    
O155  Zn5   S    
C193  O109  A    
H39   O160  S    
C120  C138  A    
C79   O78   S    
C102  S10   S    
C54   C58   A    
C6    O99   A    
C22   C33   A    
C136  H26   S    
O98   Zn11  S    
O170  S7    S    
C113  C131  A    
H40   O163  S    
C144  C162  A    
C4    O97   A    
C98   S14   S    
C149  C166  A    
C75   S6    S    
C142  C160  A    
C86   O60   S    
C178  C195  S    
C14   C42   A    
C163  C185  A    
C196  O115  A    
O29   S19   D    
C89   O63   S    
C47   C58   A    
C17   H89   S    
C139  C156  A    
H28   O127  S    
O160  S4    S    
O171  S8    D    
C144  C175  A    
C173  C189  S    
C121  H11   S    
C76   S7    S    
O9    S13   D    
O104  Zn12  S    
C107  S22   S    
C41   C54   A    
H81   O71   S    
C3    O92   A    
C152  C176  A    
C43   C56   A    
C83   C159  A    
H43   O173  S    
O129  S23   D    
O96   Zn9   S    
C159  C183  A    
O4    S10   D    
C101  O81   S    
O91   Zn1   S    
C90   O80   S    
C22   C51   A    
C20   C31   A    
C87   O61   S    
