data_mof_unit_37324.cif
_audit_creation_date              2013-03-05T16:02:42-0500
_audit_creation_method            fapswitch 2.2
_symmetry_space_group_name_H-M    P1
_symmetry_Int_Tables_number       1
_space_group_crystal_system       triclinic
_cell_length_a                    14.908981
_cell_length_b                    14.070065
_cell_length_c                    15.744362
_cell_angle_alpha                 89.914356
_cell_angle_beta                  89.114787
_cell_angle_gamma                 90.321343
_cell_volume                      3302.24980492

loop_
_atom_site_label
_atom_site_type_symbol
_atom_site_description
_atom_site_fract_x
_atom_site_fract_y
_atom_site_fract_z
_atom_type_partial_charge
O1    O     O_R   0.367860 0.580280 0.500020 -0.594559
O2    O     O_R   0.367860 0.419720 0.500020 -0.588254
C1    C     C_R   0.327089 0.499744 0.501038 0.871059
O3    O     O_R   0.500020 0.580310 0.377140 -0.632227
O4    O     O_R   0.500020 0.419690 0.377140 -0.607472
C2    C     C_R   0.499250 0.500058 0.338330 0.929348
Zn1   Zn    Zn3+2 0.500020 0.607200 0.499990 1.044489
Zn2   Zn    Zn3+2 0.500020 0.392800 0.499990 1.047629
O5    O     O_R   0.632160 0.580270 0.499980 -0.601288
O6    O     O_R   0.632160 0.419730 0.499980 -0.598612
O7    O     O_R   0.500010 0.580240 0.622850 -0.564736
O8    O     O_R   0.500010 0.419760 0.622850 -0.590228
C3    C     C_R   0.673068 0.500456 0.500646 1.017089
C4    C     C_R   0.499720 0.499935 0.661694 0.953014
C5    C     C_3   0.449784 0.590188 0.047889 -0.013032
C6    C     C_3   0.452686 0.405833 0.048854 -0.000440
C7    C     C_3   0.461313 0.403421 0.950443 -0.370456
C8    C     C_3   0.439032 0.580913 0.950760 -0.366283
H1    H     H_    0.367920 0.565927 0.934450 0.217407
H2    H     H_    0.395645 0.387785 0.920546 0.207326
H3    H     H_    0.489500 0.343514 0.073970 0.207726
H4    H     H_    0.493292 0.652600 0.058836 0.223905
H5    H     H_    0.507156 0.344937 0.930922 0.211998
H6    H     H_    0.457993 0.649491 0.919717 0.197157
C9    C     C_1   0.499268 0.499791 0.750435 -0.027783
C10   C     C_3   0.499127 0.499313 0.082633 0.089630
C11   C     C_3   0.499049 0.499417 0.917008 0.118927
C12   C     C_3   0.596235 0.514351 0.948541 -0.456080
C13   C     C_3   0.600317 0.498991 0.047541 0.416083
C14   C     C_1   0.498977 0.499641 0.825657 0.001083
C15   C     C_1   0.499015 0.499803 0.174355 0.015825
C16   C     C_1   0.499022 0.500092 0.249592 -0.074422
H7    H     H_    0.617777 0.587475 0.930484 0.223888
H8    H     H_    0.643496 0.468192 0.912658 0.243560
C17   C     C_R   0.815028 0.475413 0.425726 0.212003
C18   C     C_R   0.768975 0.503832 0.499175 -0.290427
C19   C     C_R   0.812487 0.541305 0.569735 0.252151
C20   C     C_R   0.906159 0.553374 0.566774 -0.022955
C21   C     C_R   0.953982 0.520115 0.493709 -0.081149
C22   C     C_R   0.908321 0.488360 0.420398 -0.020264
C23   C     C_R   0.953705 0.597742 0.633922 0.056371
C24   C     C_R   0.047414 0.590253 0.635885 0.303246
C25   C     C_R   0.093825 0.548566 0.567224 -0.028939
C26   C     C_R   0.047635 0.517301 0.494280 0.019779
C27   C     C_R   0.095453 0.479242 0.423431 0.105753
C28   C     C_R   0.050455 0.455131 0.348042 0.173068
C29   C     C_R   0.957381 0.470130 0.344120 0.147779
C30   C     C_R   0.186398 0.538508 0.569550 -0.097195
C31   C     C_R   0.231935 0.499985 0.500826 -0.035390
C32   C     C_R   0.188291 0.470070 0.428726 -0.222012
H9    H     H_    0.224404 0.560530 0.624303 0.201855
H10   H     H_    0.228603 0.443348 0.376299 0.142959
C33   C     C_R   0.559905 0.798865 0.449462 -0.101170
C34   C     C_R   0.559501 0.202042 0.449028 -0.093869
N1    N     N_R   0.500070 0.750030 0.500040 -0.159142
N2    N     N_R   0.500070 0.249970 0.500040 -0.167929
C35   C     C_R   0.440029 0.797833 0.550928 0.402195
C36   C     C_R   0.440478 0.201435 0.551485 0.399375
C37   C     C_R   0.439158 0.898561 0.552398 -0.083133
C38   C     C_R   0.439275 0.100680 0.552600 -0.080953
C39   C     C_R   0.500251 0.949486 0.500334 0.068336
C40   C     C_R   0.500193 0.050622 0.500298 0.066459
C41   C     C_R   0.561251 0.899404 0.448235 0.014297
C42   C     C_R   0.561032 0.101563 0.448010 0.006954
C43   C     C_R   0.378892 0.949497 0.604584 -0.124566
C44   C     C_R   0.379004 0.048859 0.604736 -0.130425
C45   C     C_R   0.621742 0.050948 0.396165 -0.142141
C46   C     C_R   0.621891 0.950920 0.396320 -0.162987
H11   H     H_    0.606471 0.759335 0.409850 0.166583
H12   H     H_    0.605787 0.242265 0.409121 0.201887
H13   H     H_    0.331288 0.913023 0.645919 0.213792
H14   H     H_    0.331442 0.084640 0.646105 0.207200
H15   H     H_    0.669173 0.088716 0.355475 0.178892
H16   H     H_    0.669424 0.913863 0.355734 0.162832
N3    N     N_R   0.095267 0.624634 0.708306 0.190133
O9    O     O_R   0.148065 0.698196 0.700906 -0.326206
O10   O     O_R   0.078041 0.589431 0.783297 -0.355465
C47   C     C_3   0.101648 0.414372 0.272300 -0.884022
H17   H     H_    0.139547 0.350639 0.292299 0.249763
H18   H     H_    0.057703 0.389784 0.220578 0.262502
H19   H     H_    0.148861 0.468563 0.245909 0.235410
C48   C     C_3   0.914456 0.481276 0.257912 -0.669724
H20   H     H_    0.961212 0.517720 0.212765 0.223249
H21   H     H_    0.895704 0.410904 0.231633 0.283003
H22   H     H_    0.855118 0.528314 0.261336 0.274365
N4    N     N_R   0.376445 0.745553 0.601428 0.212182
O11   O     O_R   0.394179 0.727812 0.680479 -0.376239
O12   O     O_R   0.293664 0.741112 0.576820 -0.374200
N5    N     N_R   0.379170 0.253063 0.604387 0.212446
O13   O     O_R   0.296105 0.260802 0.581360 -0.385935
O14   O     O_R   0.398973 0.267555 0.683496 -0.393204
C49   C     C_3   0.360982 0.619089 0.092402 -0.858506
H23   H     H_    0.304631 0.570700 0.078910 0.260427
H24   H     H_    0.368959 0.624457 0.162168 0.242574
H25   H     H_    0.341097 0.690523 0.069397 0.257393
C50   C     C_3   0.354888 0.388507 0.078700 -0.854115
H26   H     H_    0.344061 0.410388 0.145737 0.244914
H27   H     H_    0.306412 0.425146 0.037464 0.256758
H28   H     H_    0.339085 0.311400 0.074497 0.250056
N6    N     N_R   0.654893 0.575851 0.086305 0.200689
O15   O     O_R   0.717428 0.555480 0.140087 -0.298776
O16   O     O_R   0.647726 0.664066 0.062440 -0.420174
N7    N     N_R   0.642892 0.406209 0.067681 0.203547
O17   O     O_R   0.672972 0.349479 0.008647 -0.377820
O18   O     O_R   0.649803 0.378809 0.146344 -0.307596
N8    N     N_R   0.768047 0.422471 0.362113 0.208469
O19   O     O_R   0.702176 0.460854 0.321405 -0.371748
O20   O     O_R   0.787811 0.333769 0.348571 -0.366307
N9    N     N_R   0.762640 0.550466 0.648144 0.179447
O21   O     O_R   0.703508 0.617424 0.657741 -0.399861
O22   O     O_R   0.769153 0.485015 0.706143 -0.374982
C51   C     C_3   0.907898 0.662410 0.698076 -0.635891
H29   H     H_    0.855118 0.704830 0.667051 0.239565
H30   H     H_    0.879643 0.620397 0.751905 0.286158
H31   H     H_    0.954691 0.715961 0.724455 0.247334

loop_
_geom_bond_atom_site_label_1
_geom_bond_atom_site_label_2
_geom_bond_distance
_ccdc_geom_bond_type
C22   C29   1.420892 A    
C2    C16   1.397182 S    
C6    H3    1.112439 S    
C5    C8    1.545709 S    
C23   C24   1.402485 A    
C17   C18   1.395882 A    
Zn1   N1    2.009625 S    
N3    O9    1.300823 A    
C33   H11   1.082715 S    
Zn2   N2    2.009632 S    
C51   H30   1.108976 S    
C1    C31   1.418726 S    
C27   C28   1.413255 A    
Zn1   O7    1.970636 S    
C24   N3    1.437353 S    
C7    H5    1.113234 S    
N8    O20   1.301110 A    
C8    H6    1.114033 S    
C12   C13   1.575439 S    
C5    H4    1.104127 S    
N9    O22   1.300981 A    
C20   C21   1.425017 A    
O7    C4    1.283937 A    
C47   H18   1.107628 S    
C35   C37   1.417608 A    
N8    O19   1.300487 A    
C36   C38   1.417718 A    
C50   H28   1.111175 S    
C7    H2    1.113828 S    
C35   N4    1.427941 S    
C13   N7    1.490609 S    
C38   C40   1.408844 A    
C8    H1    1.113787 S    
C29   C48   1.517800 S    
C39   C41   1.407962 A    
O5    C3    1.281024 A    
C49   H23   1.101810 S    
C40   C42   1.407843 A    
C5    C49   1.545185 S    
C41   C46   1.406729 A    
C30   H9    1.083571 S    
C44   H14   1.082238 S    
C6    C7    1.553197 S    
C23   C51   1.517543 S    
C50   H27   1.107834 S    
C32   H10   1.082609 S    
C45   H15   1.083332 S    
N5    O14   1.300576 A    
C25   C30   1.389236 A    
C19   N9    1.437394 S    
C38   C44   1.407449 A    
C10   C15   1.444114 S    
C11   C14   1.438277 S    
O3    Zn1   1.971406 S    
N6    O16   1.301728 A    
C51   H29   1.109185 S    
C33   N1    1.368063 A    
C6    C10   1.579687 S    
C34   N2    1.367921 A    
C6    C50   1.542961 S    
C37   C39   1.408116 A    
C45   C46   1.407417 A    
C7    C11   1.548605 S    
C42   C45   1.406726 A    
C3    C18   1.430216 S    
O3    C2    1.284760 A    
C21   C22   1.420466 A    
C28   C47   1.520636 S    
C47   H17   1.110340 S    
C5    C10   1.579930 S    
C43   H13   1.082243 S    
C49   H25   1.111248 S    
O1    C1    1.282843 A    
C25   C26   1.417474 A    
C19   C20   1.405946 A    
C15   C16   1.184570 T    
C34   H12   1.082784 S    
Zn2   O8    1.971749 S    
C50   H26   1.109545 S    
C49   H24   1.109307 S    
N7    O18   1.302336 A    
N3    O10   1.301069 A    
C20   C23   1.424786 A    
C30   C31   1.381542 A    
O8    C4    1.283985 A    
C12   H7    1.111354 S    
C31   C32   1.382143 A    
C48   H21   1.109697 S    
N1    C35   1.371787 A    
C24   C25   1.405261 A    
C11   C12   1.552154 S    
C26   C27   1.421537 A    
N4    O11   1.300484 A    
C9    C14   1.184264 T    
Zn1   O5    2.008265 S    
C28   C29   1.407041 A    
C18   C19   1.397566 A    
C13   N6    1.487107 S    
O1    Zn1   2.004350 S    
O2    Zn2   2.008522 S    
C8    C11   1.548052 S    
O6    C3    1.286334 A    
O4    Zn2   1.970296 S    
C21   C26   1.397227 A    
C48   H22   1.108507 S    
O2    C1    1.282552 A    
C17   N8    1.437575 S    
N9    O21   1.301242 A    
C37   C43   1.407899 A    
C33   C41   1.414716 A    
C47   H19   1.110614 S    
O4    C2    1.284703 A    
C34   C42   1.414176 A    
C27   C32   1.394611 A    
N6    O15   1.301940 A    
N2    C36   1.371521 A    
C17   C22   1.402986 A    
N4    O12   1.300465 A    
C43   C44   1.398031 A    
C4    C9    1.397086 S    
C39   C40   1.422990 A    
C36   N5    1.429196 S    
C12   H8    1.109675 S    
C10   C13   1.598626 S    
Zn2   O6    2.004091 S    
C48   H20   1.110716 S    
N7    O17   1.302108 A    
N5    O13   1.300866 A    
C46   H16   1.083290 S    
C51   H31   1.109449 S    
