data_mof_unit_22566.cif
_audit_creation_date              2012-12-10T17:02:16-0500
_audit_creation_method            fapswitch 2.2
_symmetry_space_group_name_H-M    P1
_symmetry_Int_Tables_number       1
_space_group_crystal_system       triclinic
_cell_length_a                    10.627143
_cell_length_b                    10.738006
_cell_length_c                    10.083173
_cell_angle_alpha                 89.839256
_cell_angle_beta                  89.678784
_cell_angle_gamma                 90.245382
_cell_volume                      1150.60124304

loop_
_atom_site_label
_atom_site_type_symbol
_atom_type_description
_atom_site_fract_x
_atom_site_fract_y
_atom_site_fract_z
_atom_type_partial_charge
C1    C     C_R   0.498041 0.262831 0.499964 0.957291
C2    C     C_R   0.065987 0.613812 0.550669 0.096895
C3    C     C_R   0.128576 0.508647 0.500441 -0.165636
C4    C     C_R   0.065334 0.407169 0.447084 -0.319644
C5    C     C_R   0.935745 0.406983 0.443179 0.518546
C6    C     C_R   0.871820 0.507944 0.498673 -0.227273
C7    C     C_2   0.505299 0.933446 0.387786 -0.157064
C8    C     C_2   0.517932 0.868557 0.499865 -0.335985
C9    C     C_2   0.513019 0.067438 0.388906 -0.143111
C10   C     C_2   0.488801 0.130977 0.499757 -0.328265
C11   C     C_2   0.599234 0.516667 0.927092 -0.025877
C12   C     C_R   0.260810 0.502040 0.500300 0.890707
C13   C     C_2   0.600985 0.494161 0.074399 -0.160827
C14   C     C_R   0.503501 0.737109 0.499815 0.892239
C15   C     C_R   0.739238 0.501913 0.499659 0.949987
C16   C     C_R   0.131129 0.719540 0.598710 -0.157293
C17   C     C_R   0.065324 0.822385 0.646273 -0.140448
C18   C     C_R   0.934390 0.822032 0.646025 -0.126421
C19   C     C_R   0.868889 0.718883 0.598113 -0.158082
C20   C     C_R   0.934231 0.613393 0.550144 0.018267
H1    H     H_    0.117106 0.327039 0.411370 0.156666
H2    H     H_    0.458444 0.087499 0.591721 0.140713
H3    H     H_    0.686692 0.546534 0.880828 0.131501
H4    H     H_    0.690664 0.475711 0.120945 0.160114
H5    H     H_    0.423714 0.542178 0.106300 0.190566
H6    H     H_    0.232776 0.724294 0.598737 0.142612
H7    H     H_    0.116082 0.902852 0.682625 0.135499
H8    H     H_    0.883383 0.902240 0.682161 0.139459
H9    H     H_    0.767320 0.723423 0.597649 0.136319
H10   H     H_    0.489236 0.888352 0.292994 0.174197
H11   H     H_    0.542406 0.910837 0.593815 0.151317
H12   H     H_    0.536424 0.113937 0.296059 0.172331
N1    N     N_2   0.501340 0.501330 0.852150 -0.054330
N2    N     N_2   0.501380 0.501360 0.147810 -0.200432
O1    O     O_R   0.499980 0.319060 0.613040 -0.624562
O2    O     O_R   0.500020 0.319100 0.386900 -0.604007
O3    O     O_R   0.316750 0.499980 0.613090 -0.623377
O4    O     O_R   0.316790 0.500020 0.386950 -0.618299
O5    O     O_R   0.499980 0.680900 0.613100 -0.625938
O6    O     O_R   0.500020 0.680940 0.386960 -0.611914
O7    O     O_R   0.683210 0.499980 0.613050 -0.628685
O8    O     O_R   0.683250 0.500020 0.386910 -0.602766
Zn1   Zn    Zn3+2 0.499970 0.499970 0.650990 0.938945
Zn2   Zn    Zn3+2 0.500030 0.500030 0.349010 0.943554
C21   C     C_3   0.397759 0.421754 0.896253 -0.592995
H13   H     H_    0.364479 0.365030 0.812001 0.238873
H14   H     H_    0.425552 0.352971 0.973101 0.183126
H15   H     H_    0.316986 0.479466 0.928858 0.175684
O9    O     O_3   0.869463 0.303562 0.399012 -0.605595
C22   C     C_3   0.894581 0.284152 0.263059 -0.290513
H16   H     H_    0.888708 0.371995 0.204347 0.146046
H17   H     H_    0.822490 0.219300 0.223573 0.188298
H18   H     H_    0.987897 0.239840 0.248632 0.159586

loop_
_geom_bond_atom_site_label_1
_geom_bond_atom_site_label_2
_ccdc_geom_bond_type
O3    Zn1   S    
C22   H17   S    
O4    Zn2   S    
C2    C16   A    
N1    C21   S    
C9    C10   D    
C15   O8    A    
C19   C20   A    
C11   N1    D    
H5    N2    S    
O1    Zn1   S    
C17   C18   A    
C14   O5    A    
N2    Zn2   S    
C13   N2    D    
C7    H10   S    
C21   H13   S    
C10   H2    S    
C12   O4    A    
C4    H1    S    
O7    Zn1   S    
C5    O9    S    
O8    Zn2   S    
C6    C20   A    
C4    C5    A    
C11   H3    S    
C2    C3    A    
C21   H14   S    
C1    O2    A    
C16   H6    S    
C5    C6    A    
C11   C13   S    
C19   H9    S    
O2    Zn2   S    
C22   H18   S    
C7    C8    D    
C15   O7    A    
C2    C20   A    
C3    C4    A    
C17   H7    S    
O6    Zn2   S    
C18   H8    S    
C1    O1    A    
O9    C22   S    
C21   H15   S    
C12   O3    A    
C7    C9    S    
C18   C19   A    
C8    C14   S    
C3    C12   S    
C9    H12   S    
C22   H16   S    
C6    C15   S    
O5    Zn1   S    
C8    H11   S    
C14   O6    A    
C1    C10   S    
C13   H4    S    
C16   C17   A    
N1    Zn1   S    
