data_mof_unit_31366.cif
_audit_creation_date              2013-03-05T15:44:24-0500
_audit_creation_method            fapswitch 2.2
_symmetry_space_group_name_H-M    P1
_symmetry_Int_Tables_number       1
_space_group_crystal_system       triclinic
_cell_length_a                    19.414837
_cell_length_b                    10.980524
_cell_length_c                    18.747438
_cell_angle_alpha                 89.984751
_cell_angle_beta                  90.577121
_cell_angle_gamma                 89.326602
_cell_volume                      3996.19507616

loop_
_atom_site_label
_atom_site_type_symbol
_atom_site_description
_atom_site_fract_x
_atom_site_fract_y
_atom_site_fract_z
_atom_type_partial_charge
O1    O     O_R   0.784320 0.290430 0.830510 -0.399567
O2    O     O_R   0.215680 0.290430 0.169490 -0.424994
O3    O     O_R   0.284320 0.790430 0.830510 -0.403174
O4    O     O_R   0.715680 0.790430 0.169490 -0.431680
O5    O     O_R   0.762640 0.040960 0.825200 -0.478402
O6    O     O_R   0.237360 0.040960 0.174800 -0.457893
O7    O     O_R   0.262640 0.540960 0.825200 -0.473750
O8    O     O_R   0.737360 0.540960 0.174800 -0.456308
C1    C     C_R   0.725588 0.954775 0.853715 0.566834
C2    C     C_R   0.269905 0.945955 0.151401 0.636569
C3    C     C_R   0.229105 0.448428 0.850145 0.557626
C4    C     C_R   0.770542 0.449344 0.149614 0.627198
O9    O     O_R   0.667400 0.923970 0.829950 -0.466525
O10   O     O_R   0.332600 0.923970 0.170050 -0.417251
O11   O     O_R   0.167400 0.423970 0.829950 -0.464298
O12   O     O_R   0.832600 0.423970 0.170050 -0.421203
O13   O     O_R   0.553960 0.081340 0.821780 -0.417085
O14   O     O_R   0.446040 0.081340 0.178220 -0.423769
O15   O     O_R   0.053960 0.581340 0.821780 -0.423988
O16   O     O_R   0.946040 0.581340 0.178220 -0.449924
C5    C     C_R   0.561262 0.182081 0.857472 0.529412
C6    C     C_R   0.470354 0.178068 0.150018 0.605717
C7    C     C_R   0.059625 0.682190 0.858004 0.524589
C8    C     C_R   0.971883 0.676936 0.151630 0.598497
O17   O     O_R   0.543180 0.283240 0.826740 -0.426792
O18   O     O_R   0.456820 0.283240 0.173260 -0.490489
O19   O     O_R   0.043180 0.783240 0.826740 -0.430932
O20   O     O_R   0.956820 0.783240 0.173260 -0.460340
O21   O     O_R   0.678360 0.375140 0.822710 -0.488046
O22   O     O_R   0.321640 0.375140 0.177290 -0.460428
O23   O     O_R   0.178360 0.875140 0.822710 -0.468127
O24   O     O_R   0.821640 0.875140 0.177290 -0.473359
C9    C     C_R   0.726342 0.316503 0.860761 0.527699
C10   C     C_R   0.271796 0.324875 0.139283 0.587149
C11   C     C_R   0.227710 0.822587 0.861142 0.541527
C12   C     C_R   0.762426 0.862531 0.147154 0.629919
O25   O     O_R   0.785050 0.289380 0.670560 -0.436324
O26   O     O_R   0.214950 0.289380 0.329440 -0.439257
O27   O     O_R   0.285050 0.789380 0.670560 -0.435652
O28   O     O_R   0.714950 0.789380 0.329440 -0.438826
O29   O     O_R   0.763320 0.039990 0.676930 -0.493657
O30   O     O_R   0.236680 0.039990 0.323070 -0.497794
O31   O     O_R   0.263320 0.539990 0.676930 -0.494679
O32   O     O_R   0.736680 0.539990 0.323070 -0.499974
C13   C     C_R   0.726636 0.953847 0.647999 0.553948
C14   C     C_R   0.273476 0.953104 0.352052 0.547659
C15   C     C_R   0.226632 0.453889 0.647984 0.551693
C16   C     C_R   0.773474 0.453102 0.352052 0.548328
O33   O     O_R   0.668130 0.922920 0.670000 -0.468346
O34   O     O_R   0.331870 0.922920 0.330000 -0.476847
O35   O     O_R   0.168130 0.422920 0.670000 -0.465058
O36   O     O_R   0.831870 0.422920 0.330000 -0.475605
O37   O     O_R   0.554640 0.080370 0.673500 -0.441674
O38   O     O_R   0.445360 0.080370 0.326500 -0.458286
O39   O     O_R   0.054640 0.580370 0.673500 -0.443296
O40   O     O_R   0.945360 0.580370 0.326500 -0.462023
C17   C     C_R   0.531041 0.178637 0.644323 0.606466
C18   C     C_R   0.469943 0.177736 0.354925 0.584296
C19   C     C_R   0.031061 0.678647 0.644312 0.598720
C20   C     C_R   0.969932 0.677740 0.354928 0.579383
O41   O     O_R   0.543920 0.282180 0.666790 -0.487266
O42   O     O_R   0.456080 0.282180 0.333210 -0.497362
O43   O     O_R   0.043920 0.782180 0.666790 -0.490484
O44   O     O_R   0.956080 0.782180 0.333210 -0.497724
O45   O     O_R   0.679040 0.374160 0.674430 -0.459453
O46   O     O_R   0.320960 0.374160 0.325570 -0.464531
O47   O     O_R   0.179040 0.874160 0.674430 -0.456206
O48   O     O_R   0.820960 0.874160 0.325570 -0.468573
C21   C     C_R   0.726939 0.311731 0.638268 0.546074
C22   C     C_R   0.273514 0.312772 0.361586 0.541372
C23   C     C_R   0.226944 0.811740 0.638268 0.544644
C24   C     C_R   0.773506 0.812800 0.361583 0.539353
Cr1   Cr    Cr6+3 0.769270 0.163730 0.750710 1.166361
Cr2   Cr    Cr6+3 0.230730 0.163730 0.249290 1.187382
Cr3   Cr    Cr6+3 0.269270 0.663730 0.750710 1.174943
Cr4   Cr    Cr6+3 0.730730 0.663730 0.249290 1.192253
Cr5   Cr    Cr6+3 0.612620 0.009790 0.748780 1.188572
Cr6   Cr    Cr6+3 0.387380 0.009790 0.251220 1.214944
Cr7   Cr    Cr6+3 0.112620 0.509790 0.748780 1.193475
Cr8   Cr    Cr6+3 0.887380 0.509790 0.251220 1.204903
Cr9   Cr    Cr6+3 0.614160 0.322500 0.747710 1.138798
Cr10  Cr    Cr6+3 0.385840 0.322500 0.252290 1.152452
Cr11  Cr    Cr6+3 0.114160 0.822500 0.747710 1.150205
Cr12  Cr    Cr6+3 0.885840 0.822500 0.252290 1.163563
O49   O     O_3   0.665350 0.165340 0.749070 -0.403568
O50   O     O_3   0.334650 0.165340 0.250930 -0.373108
O51   O     O_3   0.165350 0.665340 0.749070 -0.400571
O52   O     O_3   0.834650 0.665340 0.250930 -0.359787
C25   C     C_2   0.539033 0.172395 0.929884 -0.052645
C26   C     C_2   0.497450 0.175505 0.077953 -0.062276
C27   C     C_2   0.038174 0.679600 0.931782 -0.122819
C28   C     C_2   0.005502 0.664210 0.083545 -0.066850
C29   C     C_2   0.461129 0.122346 0.024905 0.188955
C30   C     C_2   0.473590 0.149157 0.948760 0.240376
C31   C     C_2   0.973995 0.600839 0.031338 0.208397
C32   C     C_2   0.003281 0.587502 0.960347 0.197230
H1    H     H_    0.535448 0.244069 0.065835 0.107579
H2    H     H_    0.580853 0.169916 0.968714 0.016641
H3    H     H_    0.054276 0.709253 0.075733 0.099717
H4    H     H_    0.046630 0.762382 0.961972 0.105924
C33   C     C_R   0.681313 0.409113 0.972820 -0.154743
C34   C     C_R   0.322612 0.387825 0.023035 -0.120424
C35   C     C_R   0.178134 0.896971 0.976627 -0.158700
C36   C     C_R   0.812225 0.891270 0.029164 -0.075159
H5    H     H_    0.638469 0.446616 0.942206 0.211152
H6    H     H_    0.371303 0.401303 0.050413 0.203212
H7    H     H_    0.131269 0.921268 0.948030 0.208121
H8    H     H_    0.862894 0.873835 0.051953 0.209595
C37   C     C_R   0.686138 0.434744 0.045914 0.150003
C38   C     C_R   0.318085 0.403447 0.948438 0.189762
C39   C     C_R   0.181864 0.912432 0.051288 0.151761
C40   C     C_R   0.804515 0.894230 0.954916 0.203804
C41   C     C_R   0.742114 0.385623 0.085978 0.008687
C42   C     C_R   0.254348 0.380581 0.914091 -0.001167
C43   C     C_R   0.243690 0.879199 0.087426 0.008656
C44   C     C_R   0.737993 0.909521 0.926456 -0.037057
C45   C     C_R   0.781685 0.290948 0.056311 0.192294
C46   C     C_R   0.205336 0.311206 0.950504 0.173695
C47   C     C_R   0.290644 0.801635 0.052407 0.176259
C48   C     C_R   0.679771 0.899084 0.971908 0.113585
C49   C     C_R   0.783696 0.279099 0.981551 0.165411
C50   C     C_R   0.204110 0.318673 0.024673 0.166947
C51   C     C_R   0.292632 0.805500 0.977788 0.180710
C52   C     C_R   0.688395 0.913994 0.045056 0.166523
C53   C     C_R   0.732063 0.338867 0.938827 -0.079297
C54   C     C_R   0.264680 0.352922 0.062279 -0.054739
C55   C     C_R   0.234428 0.849543 0.938685 -0.060973
C56   C     C_R   0.754875 0.903984 0.074017 -0.025619
C57   C     C_R   0.505352 0.294989 0.534920 0.024093
C58   C     C_R   0.500348 0.293892 0.461997 0.032429
C59   C     C_R   0.005459 0.795044 0.534892 0.025338
C60   C     C_R   0.000341 0.793932 0.461979 0.033584
C61   C     C_R   0.496695 0.178675 0.426291 -0.036626
C62   C     C_R   0.506050 0.180479 0.572142 -0.047927
C63   C     C_R   0.996666 0.678694 0.426291 -0.035915
C64   C     C_R   0.006090 0.680526 0.572130 -0.046962
C65   C     C_R   0.502359 0.067686 0.462888 0.141955
C66   C     C_R   0.499507 0.068833 0.536442 0.138618
C67   C     C_R   0.002323 0.567709 0.462896 0.143008
C68   C     C_R   0.999492 0.568874 0.536443 0.139089
C69   C     C_R   0.797950 0.293825 0.525024 0.103258
C70   C     C_R   0.208450 0.287658 0.477549 0.096797
C71   C     C_R   0.298025 0.794056 0.525068 0.103357
C72   C     C_R   0.708414 0.787731 0.477515 0.098793
C73   C     C_R   0.803795 0.314545 0.452034 0.117540
C74   C     C_R   0.203149 0.308402 0.550440 0.115725
C75   C     C_R   0.303875 0.814723 0.452077 0.117216
C76   C     C_R   0.703115 0.808387 0.550412 0.116426
C77   C     C_R   0.755674 0.392091 0.418912 -0.000692
C78   C     C_R   0.246894 0.392282 0.582026 -0.003308
C79   C     C_R   0.255699 0.892123 0.418924 -0.000763
C80   C     C_R   0.746897 0.892155 0.582063 -0.002123
C81   C     C_R   0.689156 0.377482 0.440604 0.068840
C82   C     C_R   0.312925 0.393092 0.557300 0.058596
C83   C     C_R   0.189187 0.877325 0.440595 0.070285
C84   C     C_R   0.812892 0.893204 0.557260 0.059298
C85   C     C_R   0.678721 0.352537 0.513739 -0.142158
C86   C     C_R   0.323552 0.367492 0.484127 -0.151716
C87   C     C_R   0.178754 0.852279 0.513715 -0.142578
C88   C     C_R   0.823518 0.867596 0.484097 -0.150705
H9    H     H_    0.628797 0.335451 0.533059 0.149680
H10   H     H_    0.374137 0.370218 0.462516 0.166345
H11   H     H_    0.128886 0.834588 0.532969 0.149054
H12   H     H_    0.874101 0.870356 0.462485 0.166455
C89   C     C_R   0.735501 0.328777 0.559613 -0.045609
C90   C     C_R   0.267380 0.329927 0.440608 -0.045790
C91   C     C_R   0.235536 0.828838 0.559624 -0.046314
C92   C     C_R   0.767352 0.829999 0.440590 -0.044797
N1    N     N_R   0.407839 0.039783 0.041582 0.114051
O53   O     O_R   0.346466 0.082219 0.054520 -0.386112
O54   O     O_R   0.424747 0.929281 0.059930 -0.191139
N2    N     N_R   0.416534 0.142816 0.897480 0.143600
O55   O     O_R   0.425530 0.148790 0.828946 -0.207238
O56   O     O_R   0.353448 0.135363 0.919418 -0.265736
N3    N     N_R   0.908279 0.547219 0.042566 0.101596
O57   O     O_R   0.853367 0.615506 0.047744 -0.385676
O58   O     O_R   0.902485 0.430277 0.036713 -0.220962
N4    N     N_R   0.980371 0.487729 0.917526 0.152112
O59   O     O_R   0.014694 0.385443 0.918478 -0.182549
O60   O     O_R   0.929707 0.503692 0.872336 -0.205171
I1    I     I_    0.846348 0.173238 0.386609 -0.079152
I2    I     I_    0.166870 0.167748 0.618567 -0.068720
I3    I     I_    0.346468 0.673351 0.386719 -0.082110
I4    I     I_    0.666463 0.667871 0.618419 -0.092467
I5    I     I_    0.636811 0.286655 0.356695 -0.191845
I6    I     I_    0.375101 0.329217 0.643044 -0.126417
I7    I     I_    0.136760 0.786799 0.356649 -0.201294
I8    I     I_    0.875420 0.830583 0.643008 -0.145542
N5    N     N_R   0.632760 0.506252 0.078878 0.100410
O61   O     O_R   0.609176 0.474204 0.140774 -0.280252
O62   O     O_R   0.599128 0.588480 0.042147 -0.199890
N6    N     N_R   0.379680 0.424417 0.908012 0.142269
O63   O     O_R   0.379886 0.409269 0.839176 -0.230758
O64   O     O_R   0.438237 0.442196 0.940639 -0.268740
N7    N     N_R   0.120884 0.946955 0.090025 0.106072
O65   O     O_R   0.116819 0.924672 0.158035 -0.290627
O66   O     O_R   0.064676 0.977589 0.055687 -0.227379
N8    N     N_R   0.863567 0.876703 0.909812 0.133339
O67   O     O_R   0.856270 0.834610 0.845326 -0.260538
O68   O     O_R   0.925554 0.889527 0.935546 -0.260227
N9    N     N_R   0.821928 0.212362 0.102592 0.101834
O69   O     O_R   0.888838 0.209105 0.099154 -0.155157
O70   O     O_R   0.792445 0.162636 0.157207 -0.315208
N10   N     N_R   0.160049 0.230185 0.911854 0.121484
O71   O     O_R   0.104547 0.187738 0.940497 -0.184424
O72   O     O_R   0.180557 0.182380 0.852043 -0.256655
N11   N     N_R   0.335092 0.720349 0.093245 0.104416
O73   O     O_R   0.393237 0.679556 0.068327 -0.180254
O74   O     O_R   0.313730 0.676998 0.153661 -0.305401
N12   N     N_R   0.614477 0.857199 0.945075 0.141484
O75   O     O_R   0.557523 0.914608 0.959785 -0.255945
O76   O     O_R   0.611410 0.752854 0.912338 -0.217061
N13   N     N_R   0.842004 0.218397 0.950059 0.124534
O77   O     O_R   0.885349 0.281521 0.913507 -0.139742
O78   O     O_R   0.863405 0.114583 0.974767 -0.264037
N14   N     N_R   0.139193 0.308860 0.059796 0.140856
O79   O     O_R   0.118522 0.204730 0.083889 -0.175670
O80   O     O_R   0.102926 0.406700 0.072302 -0.309689
N15   N     N_R   0.356023 0.776649 0.942944 0.159652
O81   O     O_R   0.393152 0.863704 0.917078 -0.171948
O82   O     O_R   0.369745 0.665212 0.924897 -0.234645
N16   N     N_R   0.629843 0.929152 0.090788 0.103582
O83   O     O_R   0.629216 0.017000 0.137349 -0.316162
O84   O     O_R   0.583895 0.844210 0.095055 -0.156748
I9    I     I_    0.519870 0.479037 0.583026 -0.096108
I10   I     I_    0.496669 0.475792 0.409304 -0.096362
I11   I     I_    0.020401 0.979118 0.582892 -0.096439
I12   I     I_    0.996569 0.975860 0.409274 -0.094006
N17   N     N_R   0.510307 0.954736 0.425048 0.119576
O85   O     O_R   0.468803 0.864982 0.436519 -0.247275
O86   O     O_R   0.555447 0.945532 0.374409 -0.266790
N18   N     N_R   0.491530 0.957181 0.575199 0.119601
O87   O     O_R   0.535617 0.868181 0.567518 -0.245903
O88   O     O_R   0.445600 0.950920 0.625128 -0.264011
N19   N     N_R   0.010233 0.454731 0.425073 0.120168
O89   O     O_R   0.968704 0.365017 0.436560 -0.247287
O90   O     O_R   0.055418 0.445416 0.374485 -0.275173
N20   N     N_R   0.991540 0.457211 0.575201 0.120024
O91   O     O_R   0.035662 0.368255 0.567544 -0.246012
O92   O     O_R   0.945566 0.450874 0.625083 -0.265948
I13   I     I_    0.881857 0.195334 0.572066 -0.024690
I14   I     I_    0.126052 0.189123 0.432988 -0.033197
I15   I     I_    0.381901 0.695588 0.572132 -0.023360
I16   I     I_    0.625968 0.689345 0.432900 -0.031406

loop_
_geom_bond_atom_site_label_1
_geom_bond_atom_site_label_2
_geom_bond_distance
_ccdc_geom_bond_type
C18   O42   1.242465 A    
Cr11  O51   1.981305 S    
O4    C12   1.284598 A    
C61   C65   1.401056 A    
C29   C30   1.480365 S    
O39   C19   1.287076 A    
O20   Cr12  2.075472 S    
N19   O90   1.301627 A    
N1    O53   1.299457 A    
C70   C74   1.390065 A    
O15   C7    1.304353 A    
C31   C32   1.459248 S    
C38   C42   1.414322 A    
C36   H8    1.083505 S    
C64   C68   1.403385 A    
C31   N3    1.428915 S    
O26   C22   1.309627 A    
N4    O59   1.299246 A    
C24   C92   1.498995 S    
O1    C9    1.294613 A    
N3    O58   1.294905 A    
C5    C25   1.432922 S    
N13   O77   1.297412 A    
O15   Cr7   1.948896 S    
C71   C75   1.393009 A    
N6    O64   1.302304 A    
C82   I6    2.115072 S    
C29   N1    1.420740 S    
C70   I14   2.107589 S    
C72   C92   1.425585 A    
O24   C12   1.284794 A    
O40   C20   1.289157 A    
N14   O80   1.300242 A    
C57   C58   1.369659 A    
O25   C21   1.295868 A    
C22   C90   1.499200 S    
O35   Cr7   2.064294 S    
O30   C14   1.300640 A    
C70   C90   1.425597 A    
C9    C53   1.487324 S    
C33   C37   1.401438 A    
C73   I1    2.141444 S    
C19   C64   1.432909 S    
O8    Cr4   1.945415 S    
O23   Cr11  1.961315 S    
C35   C39   1.411239 A    
C46   C50   1.393337 A    
C85   H9    1.056978 S    
C38   N6    1.442954 S    
C25   C30   1.349551 D    
N5    O62   1.300973 A    
C3    C42   1.487094 S    
C1    O9    1.260205 A    
O44   Cr12  2.073856 S    
O17   Cr9   2.082028 S    
C77   C81   1.369064 A    
C73   C77   1.397424 A    
C30   N2    1.461688 S    
C27   C32   1.338476 D    
C74   C78   1.388832 A    
C3    O11   1.284196 A    
O11   Cr7   2.068305 S    
O16   C8    1.272495 A    
O21   C9    1.327974 A    
C37   N5    1.437516 S    
C39   N7    1.442096 S    
C33   C53   1.402478 A    
N19   O89   1.299592 A    
C32   N4    1.430843 S    
N8    O67   1.301389 A    
C87   H11   1.056807 S    
O27   Cr3   2.067216 S    
C27   H4    1.084192 S    
O3    Cr3   2.064199 S    
Cr4   O52   2.017800 S    
C26   H1    1.085820 S    
O47   C23   1.338787 A    
O2    Cr2   2.059028 S    
C72   C76   1.390032 A    
C52   C56   1.398320 A    
C10   C54   1.480792 S    
O2    C10   1.293337 A    
N13   O78   1.292814 A    
C14   C79   1.467284 S    
O42   Cr10  2.073856 S    
Cr5   O49   2.001602 S    
O18   Cr10  2.075472 S    
C23   C91   1.497454 S    
Cr7   O51   2.001602 S    
C48   N12   1.439632 S    
N9    O70   1.301149 A    
C12   C56   1.450072 S    
C51   N15   1.431407 S    
C87   C91   1.412951 A    
C45   N9    1.441520 S    
O34   Cr6   2.075605 S    
C40   N8    1.442544 S    
N2    O56   1.299411 A    
C14   O34   1.251690 A    
O6    Cr2   1.945415 S    
O9    Cr5   2.068305 S    
C84   I8    2.114528 S    
C18   C61   1.430417 S    
O31   Cr3   1.942721 S    
C4    O12   1.287945 A    
O24   Cr12  1.952441 S    
O16   Cr8   1.959367 S    
N20   O92   1.301651 A    
O30   Cr2   1.940306 S    
C33   H5    1.083104 S    
C74   I2    2.134334 S    
C83   C87   1.415094 A    
N11   O73   1.300819 A    
O48   Cr12  1.953022 S    
C80   C84   1.367627 A    
C84   C88   1.416856 A    
N14   O79   1.298700 A    
C65   N17   1.436483 S    
C59   C64   1.437964 A    
C2    O10   1.283189 A    
C85   C89   1.413124 A    
N15   O81   1.300581 A    
C36   C40   1.398808 A    
O22   C10   1.321998 A    
O7    Cr3   1.946994 S    
Cr10  O50   2.001561 S    
C78   C82   1.367712 A    
C28   C31   1.347080 D    
C69   I13   2.128459 S    
C44   C48   1.428060 A    
C43   C47   1.407664 A    
O43   Cr11  2.080861 S    
O48   C24   1.336231 A    
O12   Cr8   2.080032 S    
C49   N13   1.438844 S    
C50   C54   1.419574 A    
O37   Cr5   1.951014 S    
O5    C1    1.312369 A    
N17   O85   1.299575 A    
C15   O35   1.262733 A    
N15   O82   1.295038 A    
O39   Cr7   1.951014 S    
O7    C3    1.302454 A    
N3    O57   1.300610 A    
C36   C56   1.407693 A    
C15   C78   1.464718 S    
O3    C11   1.290788 A    
O8    C4    1.281070 A    
Cr1   O49   2.017384 S    
O13   Cr5   1.948896 S    
C13   O33   1.262576 A    
C6    C26   1.454922 S    
O36   Cr8   2.075605 S    
O47   Cr11  1.961390 S    
Cr2   O50   2.017800 S    
C11   C55   1.488385 S    
C37   C41   1.416220 A    
C20   C63   1.430245 S    
C71   C91   1.429178 A    
C42   C46   1.407700 A    
C41   C45   1.403722 A    
Cr3   O51   2.017384 S    
O14   Cr6   1.959367 S    
C52   N16   1.438843 S    
O21   Cr9   1.961315 S    
C7    O19   1.290036 A    
C67   N19   1.436500 S    
C8    C28   1.445519 S    
C8    O20   1.267720 A    
C7    C27   1.448874 S    
C17   C62   1.433016 S    
C34   C38   1.410668 A    
C58   C61   1.433635 A    
C47   N11   1.447662 S    
C45   C49   1.408511 A    
C59   C60   1.369606 A    
C88   H12   1.066884 S    
C51   C55   1.420747 A    
C40   C44   1.400658 A    
C35   C55   1.405066 A    
N2    O55   1.300151 A    
C86   C90   1.420537 A    
C26   C29   1.350144 D    
C35   H7    1.082072 S    
C4    C41   1.487870 S    
O26   Cr2   2.062938 S    
O25   Cr1   2.067216 S    
C75   I3    2.141534 S    
C19   O43   1.239808 A    
C5    O17   1.294391 A    
N20   O91   1.300539 A    
N16   O84   1.301185 A    
O37   C17   1.287028 A    
O22   Cr10  1.952441 S    
O28   C24   1.309521 A    
O29   C13   1.305555 A    
N18   O88   1.301666 A    
O14   C6    1.283351 A    
C1    C44   1.467929 S    
C69   C89   1.429288 A    
O5    Cr1   1.946994 S    
C46   N10   1.447573 S    
C76   C80   1.388951 A    
C88   C92   1.420439 A    
N10   O72   1.302232 A    
N8    O68   1.301246 A    
C34   C54   1.407082 A    
C60   I12   2.228533 S    
C62   C66   1.403350 A    
N4    O60   1.301946 A    
C67   C68   1.380528 A    
C17   O41   1.239920 A    
C47   C51   1.400489 A    
C49   C53   1.430123 A    
C65   C66   1.380659 A    
C63   C67   1.401084 A    
N12   O76   1.301635 A    
C79   C83   1.369099 A    
O40   Cr8   1.961794 S    
N9    O69   1.301362 A    
C25   H2    1.085101 S    
C20   O44   1.242401 A    
C13   C80   1.464798 S    
O1    Cr1   2.064199 S    
N6    O63   1.301262 A    
O19   Cr11  2.082028 S    
C68   N20   1.435756 S    
N17   O86   1.301651 A    
O32   C16   1.300637 A    
O41   Cr9   2.080861 S    
O33   Cr5   2.064294 S    
O46   Cr10  1.953022 S    
C39   C43   1.416395 A    
C76   I4    2.134380 S    
Cr6   O50   1.980959 S    
O46   C22   1.336291 A    
Cr12  O52   2.001561 S    
C81   I5    2.120032 S    
C60   C63   1.433710 A    
O45   C21   1.338758 A    
C75   C79   1.397417 A    
C72   I16   2.107837 S    
O23   C11   1.320225 A    
C66   N18   1.435702 S    
C69   C73   1.393078 A    
O38   Cr6   1.961794 S    
C50   N14   1.433004 S    
C34   H6    1.082840 S    
C71   I15   2.128032 S    
O10   Cr6   2.080032 S    
C81   C85   1.415153 A    
N5    O61   1.301630 A    
C21   C89   1.497524 S    
C57   C62   1.437729 A    
O4    Cr4   2.059028 S    
O6    C2    1.292391 A    
C86   H10   1.066898 S    
O29   Cr1   1.942721 S    
N7    O65   1.301575 A    
C59   I11   2.233561 S    
C16   O36   1.251720 A    
O38   C18   1.289181 A    
N10   O71   1.300035 A    
C58   I10   2.228142 S    
Cr8   O52   1.980959 S    
N12   O75   1.298442 A    
C6    O18   1.260166 A    
O28   Cr4   2.062938 S    
C57   I9    2.232986 S    
N11   O74   1.302035 A    
C82   C86   1.417040 A    
O27   C23   1.295789 A    
O45   Cr9   1.961390 S    
C83   I7    2.119717 S    
O32   Cr4   1.940306 S    
C16   C77   1.467356 S    
O31   C15   1.305378 A    
N16   O83   1.301133 A    
Cr9   O49   1.981305 S    
C2    C43   1.493916 S    
C48   C52   1.389800 A    
C28   H3    1.084686 S    
N18   O87   1.300511 A    
N7    O66   1.302121 A    
N1    O54   1.298649 A    
O13   C5    1.301410 A    
