data_mof_unit_49984.cif
_audit_creation_date              2013-03-05T15:52:18-0500
_audit_creation_method            fapswitch 2.2
_symmetry_space_group_name_H-M    P1
_symmetry_Int_Tables_number       1
_space_group_crystal_system       triclinic
_cell_length_a                    21.42979
_cell_length_b                    7.249192
_cell_length_c                    14.838045
_cell_angle_alpha                 90.375915
_cell_angle_beta                  73.774806
_cell_angle_gamma                 89.973452
_cell_volume                      2213.20762822

loop_
_atom_site_label
_atom_site_type_symbol
_atom_site_description
_atom_site_fract_x
_atom_site_fract_y
_atom_site_fract_z
_atom_type_partial_charge
O1    O     O_R   0.464160 0.506670 0.130070 -0.572522
O2    O     O_R   0.535840 0.006670 0.869930 -0.575711
O3    O     O_R   0.589710 0.179080 0.006710 -0.600561
O4    O     O_R   0.410290 0.679080 0.993290 -0.607110
C1    C     C_R   0.616080 0.344460 0.003123 0.918297
C2    C     C_R   0.383807 0.844974 0.997386 0.923099
O5    O     O_R   0.467940 0.177220 0.138010 -0.583332
O6    O     O_R   0.532060 0.677220 0.861990 -0.590649
O7    O     O_R   0.413200 0.002810 0.002170 -0.568250
O8    O     O_R   0.586800 0.502810 0.997830 -0.549933
C3    C     C_R   0.456537 0.346223 0.174490 0.967842
C4    C     C_R   0.543786 0.845003 0.825575 0.945211
O9    O     O_3   0.482180 0.337850 0.955280 -0.293834
O10   O     O_3   0.517820 0.837850 0.044720 -0.267740
V1    V     V_3+5 0.503310 0.064600 0.008300 1.225659
V2    V     V_3+5 0.496690 0.564600 0.991700 1.217884
C5    C     C_R   0.569963 0.853126 0.723609 -0.140201
C6    C     C_R   0.430782 0.358764 0.276609 -0.146889
C7    C     C_R   0.927231 0.869763 0.276325 -0.127240
C8    C     C_R   0.073625 0.362250 0.724564 -0.102119
C9    C     C_R   0.553368 0.873938 0.568684 0.651946
C10   C     C_R   0.445978 0.430957 0.429178 0.651940
C11   C     C_R   0.528342 0.865221 0.666814 -0.336779
C12   C     C_R   0.471238 0.408246 0.331529 -0.339323
C13   C     C_R   0.636916 0.856264 0.683820 -0.094269
C14   C     C_R   0.364484 0.336910 0.317836 -0.092891
C15   C     C_R   0.664103 0.884515 0.586746 -0.001459
C16   C     C_R   0.335852 0.383860 0.412954 -0.006086
C17   C     C_R   0.621910 0.877627 0.527652 -0.072998
C18   C     C_R   0.377684 0.417036 0.470971 -0.071383
C19   C     C_R   0.732471 0.910284 0.547023 -0.065919
C20   C     C_R   0.266797 0.392146 0.451919 -0.072599
C21   C     C_R   0.759732 0.883234 0.448538 0.014278
C22   C     C_R   0.240274 0.391316 0.551381 0.016512
C23   C     C_R   0.716943 0.865390 0.391875 -0.340775
C24   C     C_R   0.283112 0.413840 0.607671 -0.277801
C25   C     C_R   0.649172 0.871184 0.429456 0.556892
C26   C     C_R   0.350406 0.434100 0.568927 0.554446
C27   C     C_R   0.774390 0.967066 0.601740 0.367988
C28   C     C_R   0.223225 0.407627 0.395065 0.377860
C29   C     C_R   0.841618 0.960617 0.563217 -0.348551
C30   C     C_R   0.156774 0.381776 0.434426 -0.338371
C31   C     C_R   0.869165 0.919346 0.468766 0.112450
C32   C     C_R   0.130576 0.364789 0.530799 0.103730
C33   C     C_R   0.828899 0.883022 0.409386 0.125499
C34   C     C_R   0.171446 0.374900 0.591199 0.135143
C35   C     C_R   0.937052 0.927122 0.431997 -0.118425
C36   C     C_R   0.062843 0.349751 0.567479 -0.122689
C37   C     C_R   0.965768 0.905855 0.336104 -0.186438
C38   C     C_R   0.034507 0.349747 0.663950 -0.182139
C39   C     C_R   0.859826 0.852581 0.312703 -0.163352
C40   C     C_R   0.141258 0.370343 0.689105 -0.094868
H1    H     H_    0.833203 0.820346 0.263014 0.156793
H2    H     H_    0.168327 0.374271 0.740268 0.125726
H3    H     H_    0.017910 0.921100 0.308212 0.114094
H4    H     H_    0.982107 0.342439 0.691352 0.113287
H5    H     H_    0.872793 0.001796 0.606174 0.177562
H6    H     H_    0.124481 0.389509 0.389813 0.178676
H7    H     H_    0.476273 0.864700 0.699029 0.131898
H8    H     H_    0.522774 0.425938 0.298346 0.130246
H9    H     H_    0.667198 0.833040 0.729961 0.134995
H10   H     H_    0.335787 0.284898 0.273861 0.160482
H11   H     H_    0.734740 0.852779 0.316864 0.171829
H12   H     H_    0.265524 0.422506 0.682862 0.152466
H13   H     H_    0.967847 0.957066 0.477105 0.121511
H14   H     H_    0.031595 0.342643 0.521346 0.120935
C41   C     C_3   0.229984 0.765422 0.908331 0.292702
C42   C     C_3   0.785095 0.158518 0.014732 0.292869
H15   H     H_    0.213329 0.619330 0.910798 0.065202
H16   H     H_    0.813727 0.074983 0.953745 0.103823
C43   C     C_3   0.303052 0.761945 0.907443 -0.617280
C44   C     C_3   0.713265 0.154045 0.012506 -0.526433
H17   H     H_    0.334098 0.832050 0.844266 0.198606
H18   H     H_    0.682197 0.086355 0.076510 0.210224
H19   H     H_    0.319961 0.616073 0.903060 0.172743
H20   H     H_    0.709628 0.067813 0.951794 0.218356
H21   H     H_    0.178924 0.612361 0.083005 0.190558
H22   H     H_    0.830615 0.345130 0.848617 0.181653
H23   H     H_    0.285547 0.608166 0.084345 0.177339
H24   H     H_    0.723199 0.356119 0.849990 0.215782
C45   C     C_3   0.196508 0.756496 0.084435 -0.426289
C46   C     C_3   0.802975 0.433531 0.908004 -0.439083
C47   C     C_3   0.214795 0.062787 0.005236 -0.394445
C48   C     C_3   0.770115 0.485377 0.081540 -0.390379
C49   C     C_3   0.187696 0.864692 0.998874 -0.123562
C50   C     C_3   0.812190 0.360644 0.001828 -0.117081
H25   H     H_    0.186653 0.128844 0.072315 0.201019
H26   H     H_    0.785832 0.630471 0.066896 0.234351
H27   H     H_    0.207537 0.152349 0.948550 0.172076
H28   H     H_    0.778351 0.452477 0.150282 0.167368
C51   C     C_3   0.312651 0.854906 0.997432 -0.056329
C52   C     C_3   0.687131 0.351949 0.003715 -0.037825
C53   C     C_3   0.269062 0.753286 0.084042 -0.202142
C54   C     C_3   0.729936 0.435556 0.910762 -0.279931
C55   C     C_3   0.287873 0.058316 0.000631 0.422418
C56   C     C_3   0.696458 0.469569 0.087584 0.387879
H29   H     H_    0.316019 0.128622 0.935074 0.059475
H30   H     H_    0.670708 0.399056 0.154229 0.066935
H31   H     H_    0.166772 0.821061 0.150848 0.182653
H32   H     H_    0.822835 0.575656 0.894248 0.199139
H33   H     H_    0.273965 0.820909 0.149080 0.233101
H34   H     H_    0.714446 0.579833 0.903278 0.197283
O11   O     O_R   0.913210 0.208550 0.002110 -0.561500
O12   O     O_R   0.086790 0.708550 0.997890 -0.598720
O13   O     O_R   0.032060 0.539960 0.861980 -0.574731
O14   O     O_R   0.967940 0.039960 0.138020 -0.575545
C57   C     C_R   0.044332 0.371894 0.825680 0.914410
C58   C     C_R   0.955918 0.873217 0.174630 0.982219
O15   O     O_R   0.910290 0.538020 0.993280 -0.578303
O16   O     O_R   0.089710 0.038020 0.006720 -0.600062
O17   O     O_R   0.964160 0.712340 0.130090 -0.589884
O18   O     O_R   0.035840 0.212340 0.869910 -0.583125
C59   C     C_R   0.883799 0.369648 0.999283 0.893749
C60   C     C_R   0.116118 0.870294 0.001179 0.921514
O19   O     O_3   0.017820 0.379210 0.044690 -0.300109
O20   O     O_3   0.982180 0.879210 0.955310 -0.262895
V3    V     V_3+5 0.996690 0.652500 0.991710 1.218621
V4    V     V_3+5 0.003310 0.152500 0.008290 1.218007
O21   O     O_3   0.609130 0.863034 0.370778 -0.696176
H35   H     H_    0.635705 0.863863 0.304351 0.312292
O22   O     O_3   0.390136 0.465631 0.626648 -0.693780
H36   H     H_    0.363506 0.476416 0.692891 0.309189
N1    N     N_R   0.221623 0.847762 0.822205 0.232420
O23   O     O_R   0.246692 0.007434 0.792888 -0.441639
O24   O     O_R   0.191417 0.756130 0.771500 -0.428057
N2    N     N_R   0.792085 0.072715 0.100946 0.229204
O25   O     O_R   0.756250 0.124444 0.183324 -0.470203
O26   O     O_R   0.831283 0.933389 0.094964 -0.447000
O27   O     O_3   0.297301 0.151744 0.079198 -0.728412
H37   H     H_    0.298310 0.285330 0.064839 0.322919
O28   O     O_3   0.669797 0.646842 0.087536 -0.741657
H38   H     H_    0.667317 0.703366 0.149552 0.314484
O29   O     O_3   0.511561 0.880803 0.512669 -0.669095
H39   H     H_    0.465961 0.876088 0.552601 0.334433
O30   O     O_3   0.487197 0.469295 0.483807 -0.671841
H40   H     H_    0.532676 0.474376 0.443458 0.329879
N3    N     N_R   0.750309 0.059617 0.690637 0.217929
O31   O     O_R   0.778210 0.033702 0.757028 -0.476374
O32   O     O_R   0.707283 0.190486 0.700185 -0.430950
N4    N     N_R   0.243503 0.480406 0.301706 0.221075
O33   O     O_R   0.215971 0.424371 0.238601 -0.447967
O34   O     O_R   0.281490 0.623563 0.284378 -0.441064

loop_
_geom_bond_atom_site_label_1
_geom_bond_atom_site_label_2
_geom_bond_distance
_ccdc_geom_bond_type
C47   H25   1.114329 S    
C27   N3    1.436678 S    
C3    C6    1.462752 S    
N2    O25   1.301381 A    
C46   C54   1.554332 S    
C15   C17   1.425284 A    
C21   C33   1.432935 A    
C57   O18   1.321010 A    
O1    C3    1.328159 A    
C44   H20   1.113677 S    
O2    C4    1.327662 A    
O16   V4    2.022785 S    
C2    O7    1.317400 A    
O15   V3    2.023614 S    
O30   H40   0.991934 S    
C27   C29   1.394233 A    
O5    C3    1.330704 A    
N3    O32   1.301808 A    
C5    C11   1.390813 A    
C48   H28   1.110040 S    
C50   C59   1.525896 S    
C6    C12   1.391262 A    
C49   C60   1.525209 S    
O11   C59   1.333254 A    
C48   C50   1.555249 S    
H23   C53   1.110019 S    
C44   C52   1.559302 S    
N1    O24   1.300877 A    
C33   C39   1.417887 A    
C2    C51   1.526321 S    
C34   C40   1.416160 A    
C52   C56   1.562331 S    
C42   C50   1.569429 S    
O20   V3    1.787289 S    
C18   C26   1.411512 A    
C48   C56   1.560082 S    
H22   C46   1.112914 S    
C8    C38   1.392912 A    
C32   C34   1.418973 A    
C16   C18   1.425226 A    
C56   H30   1.116077 S    
C4    C5    1.460879 S    
C19   C21   1.426268 A    
C22   C34   1.432775 A    
O16   C60   1.333206 A    
C22   C24   1.412048 A    
C12   H8    1.084271 S    
C8    C57   1.456811 S    
C7    C58   1.462067 S    
O13   C57   1.324978 A    
C36   C38   1.389960 A    
O6    V2    2.037461 S    
C43   H19   1.113241 S    
O14   V4    2.037474 S    
O13   V3    2.027052 S    
C30   H6    1.084774 S    
C30   C32   1.388870 A    
C16   C20   1.431475 A    
C9    O29   1.382957 S    
C40   H2    1.076784 S    
C47   H27   1.110563 S    
C41   C49   1.565375 S    
C15   C19   1.431076 A    
C1    C52   1.526062 S    
N1    O23   1.301620 A    
N4    O33   1.301466 A    
C44   H18   1.113118 S    
C53   H33   1.110481 S    
C43   H17   1.112528 S    
C45   H31   1.113098 S    
C37   H3    1.083669 S    
C9    C17   1.424564 A    
C38   H4    1.083633 S    
C42   C44   1.549205 S    
C41   H15   1.115291 S    
C20   C22   1.425660 A    
O4    V2    2.022710 S    
C11   H7    1.084221 S    
C51   C53   1.552084 S    
C45   C53   1.553360 S    
C7    C37   1.394193 A    
C25   O21   1.383747 S    
H21   C45   1.112983 S    
O6    C4    1.329468 A    
O19   V4    1.781026 S    
C47   C55   1.548663 S    
C6    C14   1.390561 A    
C52   C54   1.554200 S    
O1    V2    2.022240 S    
C13   H9    1.080686 S    
O2    V1    2.016505 S    
C31   C33   1.418533 A    
O22   H36   0.991666 S    
C56   O28   1.406216 S    
O12   C60   1.337627 A    
O4    C2    1.323316 A    
C47   C49   1.561400 S    
C9    C11   1.405909 A    
O29   H39   0.991913 S    
C10   C12   1.406411 A    
O11   V4    2.000072 S    
C13   C15   1.411063 A    
H24   C54   1.109780 S    
O28   H38   0.992565 S    
C42   N2    1.470789 S    
O3    V1    2.023538 S    
O27   H37   0.991863 S    
N2    O26   1.299991 A    
C10   C18   1.424940 A    
C23   C25   1.403224 A    
C46   H32   1.113063 S    
C29   C31   1.390719 A    
C48   H26   1.108786 S    
N4    O34   1.301179 A    
C28   C30   1.393185 A    
O3    C1    1.320655 A    
C41   N1    1.469489 S    
C23   H11   1.074260 S    
O21   H35   0.991080 S    
C55   H29   1.117447 S    
O15   C59   1.339321 A    
C35   C37   1.390946 A    
N3    O31   1.301796 A    
O12   V3    2.000191 S    
C14   C16   1.412037 A    
C58   O17   1.323828 A    
C10   O30   1.382722 S    
O17   V3    2.019476 S    
C5    C13   1.390873 A    
C24   C26   1.403452 A    
C14   H10   1.080431 S    
C29   H5    1.085071 S    
C1    O8    1.321227 A    
C8    C40   1.398295 A    
C46   C50   1.555459 S    
O18   V4    2.025393 S    
O14   C58   1.324094 A    
C28   N4    1.435117 S    
O5    V1    2.027032 S    
C21   C23   1.412071 A    
C19   C27   1.427976 A    
C41   C43   1.562409 S    
C20   C28   1.427406 A    
O7    V1    2.009042 S    
C26   O22   1.384113 S    
C51   C55   1.562941 S    
C7    C39   1.399528 A    
C43   C51   1.556010 S    
C54   H34   1.112749 S    
C42   H16   1.115470 S    
O9    V2    1.781397 S    
C17   C25   1.410618 A    
C55   O27   1.407114 S    
C36   H14   1.084160 S    
O10   V1    1.787661 S    
O8    V2    2.008905 S    
C39   H1    1.075467 S    
C24   H12   1.074642 S    
C31   C35   1.405080 A    
C35   H13   1.084282 S    
C45   C49   1.552266 S    
C32   C36   1.405135 A    
