data_mof_unit_39794.cif
_audit_creation_date              2012-12-11T14:25:50-0500
_audit_creation_method            fapswitch 2.2
_symmetry_space_group_name_H-M    P1
_symmetry_Int_Tables_number       1
_space_group_crystal_system       triclinic
_cell_length_a                    6.953274
_cell_length_b                    14.748594
_cell_length_c                    16.182504
_cell_angle_alpha                 90.578825
_cell_angle_beta                  89.874795
_cell_angle_gamma                 89.902322
_cell_volume                      1659.4410929

loop_
_atom_site_label
_atom_site_type_symbol
_atom_type_description
_atom_site_fract_x
_atom_site_fract_y
_atom_site_fract_z
_atom_type_partial_charge
O1    O     O_R   0.494490 0.416160 0.413410 -0.523297
O2    O     O_R   0.823830 0.407240 0.585990 -0.535035
O3    O     O_R   0.994160 0.583840 0.586590 -0.552967
C1    C     C_R   0.654592 0.385437 0.613839 0.750319
O4    O     O_R   0.824200 0.405280 0.414020 -0.494897
O5    O     O_R   0.994530 0.581860 0.413390 -0.545628
C2    C     C_R   0.656024 0.381250 0.387072 0.820628
O6    O     O_R   0.494110 0.418140 0.586610 -0.545558
O7    O     O_3   0.660810 0.557940 0.500000 -0.397276
V1    V     V_3+5 0.935650 0.489250 0.500000 1.553211
O8    O     O_R   0.324250 0.592760 0.414010 -0.549897
C3    C     C_R   0.155605 0.614302 0.385701 0.741076
O9    O     O_R   0.323880 0.594720 0.585980 -0.554491
C4    C     C_R   0.155113 0.617588 0.613932 0.653553
V2    V     V_3+5 0.435660 0.510750 0.500000 1.471445
O10   O     O_3   0.160630 0.442060 0.500000 -0.328741
C5    C     C_3   0.089519 0.641914 0.765260 -0.336369
H1    H     H_    0.949882 0.605941 0.757766 0.148224
H2    H     H_    0.198584 0.590011 0.782006 0.129253
C6    C     C_3   0.071967 0.713295 0.835686 -0.397061
H3    H     H_    0.147845 0.690309 0.891299 0.138206
H4    H     H_    0.920780 0.714209 0.856071 0.161130
H5    H     H_    0.851849 0.731049 0.653568 0.159697
H6    H     H_    0.831777 0.825306 0.764046 0.201192
C7    C     C_3   0.995090 0.762508 0.664503 -0.292791
C8    C     C_3   0.346328 0.733314 0.697103 -0.311148
C9    C     C_3   0.146509 0.687740 0.683352 0.004883
H7    H     H_    0.402750 0.757893 0.637049 0.180043
H8    H     H_    0.451639 0.680768 0.716300 0.127407
C10   C     C_3   0.128183 0.810579 0.806030 -0.035376
C11   C     C_3   0.977463 0.831276 0.737649 -0.284993
C12   C     C_3   0.336544 0.811676 0.762840 0.656822
H9    H     H_    0.034223 0.798126 0.606764 0.193874
H10   H     H_    0.987148 0.901946 0.715448 0.234833
C13   C     C_2   0.986066 0.708372 0.281641 -0.122976
C14   C     C_2   0.150599 0.681613 0.318374 -0.297530
H11   H     H_    0.850376 0.680361 0.302688 0.133280
H12   H     H_    0.287924 0.708975 0.299370 0.129865
C15   C     C_2   0.973743 0.775474 0.213262 -0.128293
C16   C     C_2   0.126592 0.812931 0.175371 -0.299438
H13   H     H_    0.830046 0.794012 0.193304 0.135041
H14   H     H_    0.271408 0.795040 0.193534 0.130262
C17   C     C_2   0.779691 0.205490 0.778743 -0.141425
C18   C     C_2   0.614627 0.175573 0.812765 -0.276490
H15   H     H_    0.915840 0.178661 0.800507 0.158908
H16   H     H_    0.476511 0.200052 0.791766 0.146723
C19   C     C_2   0.791183 0.273983 0.711807 -0.100424
C20   C     C_2   0.638516 0.317897 0.680190 -0.285575
H17   H     H_    0.933972 0.288840 0.688262 0.152663
H18   H     H_    0.494608 0.304898 0.702682 0.130185
C21   C     C_2   0.774454 0.196296 0.220012 -0.243737
C22   C     C_2   0.611067 0.174139 0.180235 -0.349368
H19   H     H_    0.908812 0.167368 0.197694 0.188656
H20   H     H_    0.473259 0.198370 0.202997 0.177683
C23   C     C_2   0.784855 0.252800 0.297025 0.428094
C24   C     C_2   0.646872 0.315085 0.317219 -0.359221
H21   H     H_    0.520936 0.321295 0.278333 0.133213
O11   O     O_R   0.770850 0.076180 0.907410 -0.542783
O12   O     O_R   0.440600 0.088970 0.079950 -0.544410
O13   O     O_R   0.270430 0.912340 0.080550 -0.545309
C25   C     C_R   0.608477 0.110166 0.109073 0.762159
O14   O     O_R   0.441120 0.087010 0.907980 -0.523907
O15   O     O_R   0.270950 0.910370 0.907350 -0.520795
C26   C     C_R   0.609783 0.108336 0.879712 0.792551
O16   O     O_R   0.770320 0.078150 0.080620 -0.541363
O17   O     O_3   0.604200 0.936340 0.994000 -0.384966
V3    V     V_3+5 0.329300 0.004970 0.993950 1.476962
O18   O     O_R   0.941240 0.899420 0.907920 -0.553158
C27   C     C_R   0.111224 0.878495 0.878040 0.739160
O19   O     O_R   0.940720 0.901380 0.079890 -0.544257
C28   C     C_R   0.109934 0.879873 0.108162 0.734460
V4    V     V_3+5 0.829310 0.983370 0.993880 1.423885
O20   O     O_3   0.104280 0.052120 0.993920 -0.370748
S1    S     S_3+6 0.376518 0.919322 0.708402 -0.059497
O21   O     O_2   0.283845 0.918533 0.624565 -0.339405
O22   O     O_2   0.296423 0.997861 0.757393 -0.367447
O23   O     O_3   0.613050 0.936356 0.694692 -0.532382
H22   H     H_    0.624478 0.000142 0.676753 0.378723
S2    S     S_3+6 0.990080 0.233067 0.359715 0.028518
O24   O     O_2   0.132817 0.308035 0.347014 -0.323613
O25   O     O_2   0.934116 0.230238 0.449468 -0.318050
O26   O     O_3   0.095293 0.134108 0.333289 -0.493733
H23   H     H_    0.000086 0.086990 0.347916 0.343298
N1    N     N_2   0.497327 0.801741 0.821293 -0.530867
H24   H     H_    0.562344 0.861076 0.840481 0.305471
C29   C     C_3   0.501197 0.732704 0.884371 -0.610301
H25   H     H_    0.645557 0.729470 0.912251 0.188531
H26   H     H_    0.467202 0.664840 0.858364 0.196676
H27   H     H_    0.405489 0.751734 0.936536 0.196229

loop_
_geom_bond_atom_site_label_1
_geom_bond_atom_site_label_2
_ccdc_geom_bond_type
C7    C11   S    
C10   C12   S    
C23   C24   D    
C8    C12   S    
C16   C28   S    
O2    C1    A    
C13   C14   D    
C1    O6    A    
C15   H13   S    
C6    C10   S    
O23   H22   S    
C18   C26   S    
C8    C9    S    
S1    O22   D    
O14   V3    S    
C13   H11   S    
N1    C29   S    
C22   C25   S    
O5    C3    A    
C10   C11   S    
C29   H26   S    
V2    O10   S    
C5    C6    S    
C24   H21   S    
O14   C26   A    
O12   V3    S    
O8    V2    S    
O17   V4    S    
O15   C27   A    
O13   V3    S    
C22   H20   S    
O18   C27   A    
S1    O23   S    
O19   C28   A    
V3    O20   S    
C4    C9    S    
C3    C14   S    
O7    V1    S    
C16   H14   S    
O17   V3    S    
O9    C4    A    
C2    C24   S    
C18   H16   S    
O11   C26   A    
C12   N1    S    
O15   V3    S    
O12   C25   A    
S1    O21   D    
C21   C22   D    
C5    C9    S    
N1    H24   S    
C19   H17   S    
C15   C16   D    
S2    O25   D    
C29   H25   S    
O13   C28   A    
C21   H19   S    
C13   C15   S    
C17   C18   D    
C23   S2    S    
C19   C20   D    
O18   V4    S    
C5    H1    S    
C11   H10   S    
C17   H15   S    
O3    C4    A    
O1    V2    S    
C6    H4    S    
O6    V2    S    
O9    V2    S    
O2    V1    S    
C10   C27   S    
O4    C2    A    
C1    C20   S    
O1    C2    A    
V4    O20   S    
C29   H27   S    
O5    V1    S    
S2    O26   S    
O8    C3    A    
C7    C9    S    
O16   V4    S    
C8    H7    S    
C14   H12   S    
O7    V2    S    
H6    C11   S    
O4    V1    S    
O3    V1    S    
V1    O10   S    
C12   S1    S    
O11   V4    S    
C20   H18   S    
C5    H2    S    
C21   C23   S    
H5    C7    S    
S2    O24   D    
C25   O16   A    
C6    H3    S    
C8    H8    S    
O26   H23   S    
O19   V4    S    
C17   C19   S    
C7    H9    S    
