data_mof_unit_14291.cif
_audit_creation_date              2012-12-10T20:47:08-0500
_audit_creation_method            fapswitch 2.2
_symmetry_space_group_name_H-M    P1
_symmetry_Int_Tables_number       1
_space_group_crystal_system       triclinic
_cell_length_a                    10.679283
_cell_length_b                    8.931968
_cell_length_c                    8.118119
_cell_angle_alpha                 90.105604
_cell_angle_beta                  89.999698
_cell_angle_gamma                 90.000276
_cell_volume                      774.361815525

loop_
_atom_site_label
_atom_site_type_symbol
_atom_type_description
_atom_site_fract_x
_atom_site_fract_y
_atom_site_fract_z
_atom_type_partial_charge
C1    C     C_R   0.500000 0.218054 0.499887 0.952109
C2    C     C_R   0.065575 0.560578 0.668598 0.031163
C3    C     C_R   0.129271 0.563547 0.514751 -0.108578
C4    C     C_R   0.870730 0.563545 0.514750 -0.108577
C5    C     C_R   0.064727 0.603700 0.372333 -0.195085
C6    C     C_R   0.935276 0.603699 0.372332 -0.195087
C7    C     C_1   0.500000 0.065189 0.499877 -0.169036
C8    C     C_1   0.500000 0.934779 0.500154 -0.140262
C9    C     C_R   0.500000 0.781962 0.500075 0.932921
C10   C     C_R   0.260156 0.520014 0.502294 0.879994
C11   C     C_R   0.739845 0.520013 0.502293 0.879993
C12   C     C_R   0.126580 0.552534 0.823757 0.201412
C13   C     C_R   0.873418 0.552529 0.823755 0.201413
C14   C     C_R   0.064929 0.484413 0.954642 -0.220249
C15   C     C_R   0.935068 0.484409 0.954641 -0.220249
C16   C     C_R   0.934426 0.560577 0.668597 0.031165
H1    H     H_    0.114595 0.629380 0.260253 0.181120
H2    H     H_    0.885410 0.629378 0.260252 0.181121
H3    H     H_    0.115199 0.456238 0.065642 0.172968
H4    H     H_    0.884795 0.456233 0.065639 0.172968
I1    I     I_    0.251283 0.726479 0.896706 -0.313672
I2    I     I_    0.748723 0.726481 0.896702 -0.313673
N1    N     N_1   0.500000 0.500000 0.073640 -0.005632
N2    N     N_1   0.500000 0.500000 0.926360 0.005205
O1    O     O_R   0.500000 0.285350 0.636850 -0.605897
O2    O     O_R   0.500000 0.714650 0.636850 -0.586779
O3    O     O_R   0.500000 0.285360 0.363100 -0.609823
O4    O     O_R   0.500000 0.714640 0.363100 -0.611833
O5    O     O_R   0.316770 0.500000 0.636900 -0.612008
O6    O     O_R   0.683230 0.500000 0.636900 -0.612008
O7    O     O_R   0.316780 0.500000 0.363150 -0.621490
O8    O     O_R   0.683220 0.500000 0.363150 -0.621490
Zn1   Zn    Zn3+2 0.500000 0.500000 0.682780 1.032216
Zn2   Zn    Zn3+2 0.500000 0.500000 0.317220 1.015658

loop_
_geom_bond_atom_site_label_1
_geom_bond_atom_site_label_2
_ccdc_geom_bond_type
C4    C16   A    
N1    N2    T    
C2    C16   A    
O2    Zn1   S    
N2    Zn1   S    
N1    Zn2   S    
C2    C12   A    
C2    C3    A    
O7    Zn2   S    
O4    Zn2   S    
C7    C8    T    
C3    C10   S    
C4    C11   S    
C1    O1    A    
C10   O5    A    
C5    C6    A    
C13   I2    S    
C12   I1    S    
C12   C14   A    
C9    O2    A    
C10   O7    A    
C11   O8    A    
C13   C15   A    
O3    Zn2   S    
C15   H4    S    
C6    H2    S    
C5    H1    S    
O5    Zn1   S    
C11   O6    A    
C4    C6    A    
C13   C16   A    
C1    O3    A    
C14   C15   A    
O6    Zn1   S    
C1    C7    S    
C14   H3    S    
C9    O4    A    
O1    Zn1   S    
C8    C9    S    
C3    C5    A    
O8    Zn2   S    
