data_mof_unit_5853.cif
_audit_creation_date              2012-12-11T17:37:42-0500
_audit_creation_method            fapswitch 2.2
_symmetry_space_group_name_H-M    P1
_symmetry_Int_Tables_number       1
_space_group_crystal_system       triclinic
_cell_length_a                    13.045767
_cell_length_b                    13.044696
_cell_length_c                    15.426504
_cell_angle_alpha                 117.742443
_cell_angle_beta                  63.523708
_cell_angle_gamma                 97.881098
_cell_volume                      2071.55713146

loop_
_atom_site_label
_atom_site_type_symbol
_atom_type_description
_atom_site_fract_x
_atom_site_fract_y
_atom_site_fract_z
_atom_type_partial_charge
C1    C     C_R   0.997874 0.832912 0.060145 -0.117147
C2    C     C_R   0.672565 0.556857 0.320691 0.039633
C3    C     C_R   0.662722 0.458671 0.925783 0.159047
C4    C     C_R   0.093681 0.787657 0.293879 0.103533
C5    C     C_R   0.338312 0.516579 0.951010 -0.113966
C6    C     C_R   0.963826 0.177867 0.779771 -0.149998
C7    C     C_R   0.206906 0.492183 0.689888 -0.144022
C8    C     C_R   0.052181 0.254728 0.086002 -0.126448
C9    C     C_R   0.949254 0.171731 0.993873 -0.118152
C10   C     C_R   0.301918 0.589346 0.789508 -0.149567
C11   C     C_R   0.259107 0.417636 0.048019 -0.134552
C12   C     C_R   0.679210 0.477123 0.219479 -0.135803
C13   C     C_R   0.045605 0.275835 0.683086 -0.130936
C14   C     C_R   0.361777 0.435920 0.975592 0.144845
C15   C     C_R   0.031516 0.163752 0.674207 0.107716
C16   C     C_R   0.302502 0.551590 0.689676 0.060108
C17   C     C_R   0.006368 0.151060 0.042456 0.031702
C18   C     C_R   0.441590 0.892721 0.098983 -0.132959
C19   C     C_R   0.362416 0.885096 0.193160 -0.144983
C20   C     C_R   0.272340 0.973138 0.273549 0.162228
C21   C     C_R   0.263356 0.068807 0.257757 -0.181067
C22   C     C_R   0.342799 0.076078 0.163471 -0.116678
C23   C     C_R   0.755876 0.518755 0.893220 -0.173839
C24   C     C_R   0.431861 0.988169 0.084199 -0.093670
C25   C     C_R   0.158255 0.061845 0.475301 -0.237653
C26   C     C_R   0.083465 0.054171 0.571696 -0.000837
C27   C     C_R   0.064348 0.941417 0.565076 -0.189493
C28   C     C_R   0.107243 0.844659 0.463719 0.673202
C29   C     C_R   0.143515 0.859324 0.370723 -0.122457
C30   C     C_R   0.188926 0.964642 0.373618 -0.037324
C31   C     C_R   0.028676 0.912684 0.724472 -0.128150
C32   C     C_R   0.953533 0.893599 0.813106 -0.187146
C33   C     C_R   0.838053 0.878365 0.833390 -0.118255
C34   C     C_R   0.025705 0.696883 0.297810 -0.131912
C35   C     C_R   0.797972 0.880415 0.764073 -0.136316
C36   C     C_R   0.872617 0.900028 0.675659 -0.154545
C37   C     C_R   0.987661 0.918437 0.656917 0.222304
C38   C     C_R   0.860817 0.360841 0.356204 -0.122125
C39   C     C_R   0.745376 0.396478 0.398846 -0.105543
C40   C     C_R   0.703127 0.511645 0.478158 0.125820
C41   C     C_R   0.773150 0.586708 0.522877 -0.220636
C42   C     C_R   0.889299 0.551917 0.476996 -0.124060
C43   C     C_R   0.933851 0.440266 0.391428 -0.106899
C44   C     C_R   0.500677 0.566230 0.592278 -0.246531
C45   C     C_R   0.676583 0.421264 0.990008 -0.121055
C46   C     C_R   0.390220 0.573284 0.602803 0.068746
C47   C     C_R   0.370823 0.585670 0.524525 0.002151
C48   C     C_R   0.465166 0.590811 0.436591 -0.235949
C49   C     C_R   0.576096 0.575173 0.422965 0.067264
C50   C     C_R   0.593149 0.558433 0.500116 0.018658
C51   C     C_R   0.242542 0.464575 0.445427 -0.134102
C52   C     C_R   0.132948 0.425905 0.465873 -0.142007
C53   C     C_R   0.037909 0.495007 0.560702 -0.148834
C54   C     C_R   0.051033 0.606380 0.631147 -0.071942
C55   C     C_R   0.160876 0.645130 0.611977 -0.049191
C56   C     C_R   0.104386 0.796051 0.204213 -0.157654
C57   C     C_R   0.257714 0.571035 0.522404 0.122017
C58   C     C_2   0.474760 0.395003 0.948134 -0.196992
C59   C     C_2   0.567707 0.438619 0.897287 -0.203393
C60   C     C_2   0.824953 0.957241 0.108924 -0.192268
C61   C     C_2   0.823522 0.046473 0.199711 -0.169791
C62   C     C_R   0.783127 0.576175 0.309835 -0.091545
C63   C     C_R   0.895495 0.747768 0.965378 -0.166748
C64   C     C_R   0.906672 0.852466 0.044485 0.122447
H1    H     H_    0.026885 0.894125 0.119491 0.097452
H2    H     H_    0.927748 0.114339 0.807512 0.123743
H3    H     H_    0.179626 0.451843 0.626843 0.125798
H4    H     H_    0.090886 0.274013 0.140284 0.082830
H5    H     H_    0.890535 0.115840 0.965350 0.112259
H6    H     H_    0.356900 0.649609 0.821126 0.094458
H7    H     H_    0.248602 0.364195 0.087230 0.092028
H8    H     H_    0.086453 0.299525 0.617998 0.093205
H9    H     H_    0.493287 0.993946 0.011269 0.097743
H10   H     H_    0.510606 0.824670 0.037515 0.106090
H11   H     H_    0.371451 0.810707 0.203495 0.125371
H12   H     H_    0.608965 0.440356 0.198909 0.099024
H13   H     H_    0.194003 0.136783 0.317498 0.102415
H14   H     H_    0.335098 0.149812 0.151768 0.100978
H15   H     H_    0.190958 0.143361 0.477871 0.135533
H16   H     H_    0.117459 0.926026 0.710149 0.114855
H17   H     H_    0.985177 0.892115 0.866325 0.138181
H18   H     H_    0.779120 0.865110 0.902595 0.097852
H19   H     H_    0.708932 0.867693 0.779350 0.106044
H20   H     H_    0.840749 0.902375 0.622607 0.106023
H21   H     H_    0.024921 0.415376 0.351498 0.120752
H22   H     H_    0.778463 0.547113 0.831718 0.093386
H23   H     H_    0.894733 0.273672 0.292342 0.117172
H24   H     H_    0.691142 0.337436 0.364891 0.115857
H25   H     H_    0.741013 0.675474 0.584441 0.124768
H26   H     H_    0.945188 0.613405 0.505266 0.206879
H27   H     H_    0.515945 0.550500 0.648955 0.128525
H28   H     H_    0.452545 0.597263 0.374328 0.139633
H29   H     H_    0.316214 0.405838 0.376458 0.107136
H30   H     H_    0.122414 0.339979 0.411094 0.101201
H31   H     H_    0.953875 0.462339 0.579592 0.126761
H32   H     H_    0.976856 0.658714 0.704177 0.120983
H33   H     H_    0.008784 0.656270 0.348865 0.174866
H34   H     H_    0.171593 0.725904 0.673076 0.091588
H35   H     H_    0.477462 0.348809 0.990137 0.122285
H36   H     H_    0.566080 0.481330 0.852108 0.125054
H37   H     H_    0.760154 0.960708 0.084264 0.135196
H38   H     H_    0.883788 0.048810 0.231208 0.127664
H39   H     H_    0.629429 0.358853 0.017100 0.081519
H40   H     H_    0.160414 0.848335 0.168382 0.119718
H41   H     H_    0.808804 0.638121 0.371226 0.112199
H42   H     H_    0.828580 0.730463 0.938787 0.103562
H43   H     H_    0.397361 0.554747 0.900884 0.087909
N1    N     N_R   0.037320 0.720000 0.995830 -0.044941
N2    N     N_R   0.946240 0.290870 0.848020 -0.043392
N3    N     N_R   0.146160 0.501170 0.788610 -0.038556
N4    N     N_R   0.025750 0.332680 0.063570 -0.036427
N5    N     N_R   0.962680 0.280000 0.004170 -0.043182
N6    N     N_R   0.209230 0.553860 0.848010 -0.037517
N7    N     N_R   0.175100 0.482030 0.063570 -0.039416
N8    N     N_R   0.996810 0.351820 0.788610 -0.039519
N9    N     N_R   0.790770 0.446140 0.151990 -0.042839
N10   N     N_R   0.824900 0.517970 0.936430 -0.037247
N11   N     N_R   0.003190 0.648180 0.211390 -0.052625
N12   N     N_R   0.774330 0.457010 0.995830 -0.042801
N13   N     N_R   0.053760 0.709130 0.151980 -0.043011
N14   N     N_R   0.853840 0.498830 0.211390 -0.040423
N15   N     N_R   0.974250 0.667320 0.936430 -0.039795
N16   N     N_R   0.225670 0.542990 0.004170 -0.044868
Ni1   Ni    Ni4+2 0.130310 0.630310 0.000000 0.212227
Ni2   Ni    Ni4+2 0.869690 0.369690 0.000000 0.211234
Ni3   Ni    Ni4+2 0.985660 0.509480 0.863750 0.212307
Ni4   Ni    Ni4+2 0.014340 0.490520 0.136250 0.225926
F1    F     F_    0.100859 0.736781 0.457257 -0.747916

loop_
_geom_bond_atom_site_label_1
_geom_bond_atom_site_label_2
_ccdc_geom_bond_type
C34   N11   A    
C41   H25   S    
C53   H31   S    
C41   C42   A    
C3    C23   A    
N4    N5    A    
C2    C12   A    
N16   Ni1   S    
C62   H41   S    
C20   C30   S    
C53   C54   A    
C32   H17   S    
C26   C27   A    
N8    Ni3   S    
C18   C24   A    
C28   C29   A    
C9    H5    S    
N14   Ni4   S    
N10   N12   A    
C38   C39   A    
C11   C14   A    
C11   H7    S    
C24   H9    S    
C44   C50   A    
C34   H33   S    
C18   C19   A    
C11   N7    A    
C45   H39   S    
C6    C15   A    
C54   C55   A    
N13   Ni1   S    
C35   C36   A    
C23   H22   S    
C1    H1    S    
C52   H30   S    
C51   C57   A    
N10   Ni3   S    
C54   H32   S    
C4    C29   S    
C45   N12   A    
C9    N5    A    
C18   H10   S    
C21   C22   A    
C4    C56   A    
C59   H36   S    
C56   N13   A    
C39   H24   S    
N1    Ni1   S    
C44   C46   A    
C14   C58   S    
C4    C34   A    
N9    N14   A    
C51   C52   A    
C43   H21   S    
C31   H16   S    
C56   H40   S    
C8    N4    A    
C16   C46   S    
C39   C40   A    
C35   H19   S    
C15   C26   S    
C58   C59   D    
C3    C45   A    
C31   C37   A    
C60   C61   D    
C42   H26   S    
N15   Ni3   S    
C29   C30   A    
C2    C49   S    
C47   C57   S    
C47   C48   A    
N5    Ni2   S    
C40   C50   S    
C63   H42   S    
C10   N6    A    
N3    N6    A    
C22   H14   S    
C5    C14   A    
C13   N8    A    
C44   H27   S    
C51   H29   S    
N7    N16   A    
N12   Ni2   S    
N2    Ni2   S    
C40   C41   A    
N3    Ni3   S    
C8    H4    S    
N9    Ni2   S    
C55   C57   A    
C12   H12   S    
N4    Ni4   S    
C6    N2    A    
C22   C24   A    
C42   C43   A    
C60   H37   S    
C1    C64   A    
C10   H6    S    
C63   N15   A    
C52   C53   A    
C5    H43   S    
C9    C17   A    
C25   C30   A    
C46   C47   A    
C36   C37   A    
C25   H15   S    
C31   C32   A    
C7    C16   A    
C58   H35   S    
C36   H20   S    
N1    N15   A    
C23   N10   A    
C13   H8    S    
C5    N16   A    
C8    C17   A    
C7    N3    A    
C38   H23   S    
C60   C64   S    
C32   C33   A    
C19   C20   A    
C13   C15   A    
C61   H38   S    
C25   C26   A    
C38   C43   A    
C10   C16   A    
N7    Ni4   S    
N6    Ni1   S    
C27   C37   S    
C48   C49   A    
C55   H34   S    
C19   H11   S    
C33   C35   A    
C33   H18   S    
N11   N13   A    
C48   H28   S    
N2    N8    A    
C1    N1    A    
C7    H3    S    
C63   C64   A    
C2    C62   A    
C6    H2    S    
C20   C21   A    
C49   C50   A    
N11   Ni4   S    
C21   H13   S    
C27   C28   A    
C62   N14   A    
C28   F1    S    
C12   N9    A    
C3    C59   S    
