data_mof_unit_50328.cif
_audit_creation_date              2012-12-11T15:53:44-0500
_audit_creation_method            fapswitch 2.2
_symmetry_space_group_name_H-M    P1
_symmetry_Int_Tables_number       1
_space_group_crystal_system       triclinic
_cell_length_a                    10.683501
_cell_length_b                    10.645737
_cell_length_c                    16.949881
_cell_angle_alpha                 80.793642
_cell_angle_beta                  99.184806
_cell_angle_gamma                 118.676655
_cell_volume                      1661.87310699

loop_
_atom_site_label
_atom_site_type_symbol
_atom_type_description
_atom_site_fract_x
_atom_site_fract_y
_atom_site_fract_z
_atom_type_partial_charge
C1    C     C_R   0.360914 0.228668 0.627278 0.550052
C2    C     C_R   0.515943 0.711602 0.735258 -0.153035
C3    C     C_R   0.493313 0.727904 0.811245 -0.137330
C4    C     C_3   0.097087 0.481813 0.773851 -0.254672
C5    C     C_3   0.122025 0.462979 0.691828 -0.248108
C6    C     C_R   0.401288 0.615800 0.686516 0.005913
C7    C     C_1   0.850964 0.670251 0.702389 -0.058013
C8    C     C_1   0.898228 0.704442 0.769178 -0.058645
C9    C     C_1   0.345207 0.187689 0.709728 -0.036845
C10   C     C_1   0.321090 0.160528 0.778351 -0.035088
C11   C     C_1   0.318950 0.682898 0.280430 -0.065115
C12   C     C_R   0.414415 0.619296 0.601703 0.576718
C13   C     C_1   0.297548 0.706628 0.209777 -0.064038
C14   C     C_R   0.794204 0.646381 0.148735 0.015217
C15   C     C_R   0.769313 0.517396 0.196149 0.036190
C16   C     C_R   0.730657 0.493586 0.272453 0.023457
C17   C     C_R   0.699589 0.705961 0.250134 -0.141670
C18   C     C_R   0.746192 0.734935 0.172994 -0.138407
C19   C     C_3   0.863073 0.445754 0.219989 -0.266850
C20   C     C_3   0.821588 0.421578 0.304156 -0.268379
C21   C     C_R   0.710333 0.594797 0.303872 0.008771
C22   C     C_R   0.335394 0.183148 0.155197 0.021763
C23   C     C_R   0.781640 0.621593 0.626031 0.554972
C24   C     C_R   0.256099 0.239964 0.180310 -0.022548
C25   C     C_R   0.261892 0.251097 0.259906 0.054767
C26   C     C_R   0.440999 0.169775 0.291595 -0.165319
C27   C     C_R   0.439403 0.162626 0.210247 -0.156772
C28   C     C_3   0.099772 0.203016 0.167670 -0.223342
C29   C     C_3   0.108719 0.218896 0.256150 0.152890
C30   C     C_R   0.343133 0.203154 0.317078 0.058744
C31   C     C_R   0.948326 0.725264 0.851536 0.557280
C32   C     C_R   0.316340 0.705236 0.898703 0.548044
C33   C     C_R   0.284866 0.115289 0.858014 0.548069
C34   C     C_R   0.353139 0.230322 0.398193 0.560345
C35   C     C_R   0.882502 0.688641 0.082516 0.548927
C36   C     C_R   0.284991 0.738788 0.125648 0.569366
C37   C     C_R   0.287517 0.111856 0.083219 0.551604
C38   C     C_R   0.362606 0.657244 0.361813 0.556179
C39   C     C_R   0.699394 0.581817 0.389718 0.578349
C40   C     C_R   0.355250 0.649474 0.838359 0.012498
C41   C     C_R   0.253484 0.532909 0.797028 0.012785
C42   C     C_R   0.276444 0.516075 0.722290 0.020024
Cr1   Cr    Cr6+3 0.608440 0.389080 0.519680 1.006696
Cr2   Cr    Cr6+3 0.288640 0.400090 0.490760 0.983303
Cr3   Cr    Cr6+3 0.602940 0.710800 0.489510 0.975741
Cr4   Cr    Cr6+3 0.052530 0.947560 0.964210 1.007608
Cr5   Cr    Cr6+3 0.059970 0.626800 0.992920 1.003294
Cr6   Cr    Cr6+3 0.373320 0.938440 0.995370 1.008025
H1    H     H_    0.618630 0.782404 0.712183 0.141151
H2    H     H_    0.821116 0.344325 0.191353 0.128848
H3    H     H_    0.757087 0.306542 0.324024 0.127256
H4    H     H_    0.913709 0.483690 0.347131 0.163764
H5    H     H_    0.513398 0.143384 0.334505 0.121965
H6    H     H_    0.507329 0.124538 0.192432 0.136616
H7    H     H_    0.027015 0.091068 0.152411 0.181001
H8    H     H_    0.081136 0.287265 0.127766 0.105574
H9    H     H_    0.099084 0.313523 0.268745 0.107443
H10   H     H_    0.579129 0.813009 0.844121 0.149135
H11   H     H_    0.065617 0.567542 0.772138 0.147488
H12   H     H_    0.030004 0.378411 0.808206 0.151124
H13   H     H_    0.069719 0.348580 0.678961 0.151453
H14   H     H_    0.103917 0.537512 0.643033 0.158689
H15   H     H_    0.665667 0.775868 0.269303 0.130815
H16   H     H_    0.754651 0.830769 0.135666 0.132537
H17   H     H_    0.978943 0.520472 0.215582 0.150693
O1    O     O_R   0.754020 0.497590 0.609930 -0.500644
O2    O     O_R   0.295080 0.533620 0.397890 -0.507968
O3    O     O_R   0.485280 0.746620 0.388440 -0.532940
O4    O     O_R   0.720550 0.696220 0.420010 -0.510486
O5    O     O_3   0.500010 0.499990 0.499980 -0.293423
O6    O     O_R   0.163320 0.092900 0.874450 -0.514606
O7    O     O_R   0.934650 0.822080 0.882840 -0.489047
O8    O     O_R   0.915520 0.604140 0.893670 -0.505749
O9    O     O_R   0.191760 0.638110 0.923230 -0.509500
O10   O     O_R   0.406180 0.826930 0.920660 -0.515315
O11   O     O_R   0.358620 0.062870 0.901950 -0.494030
O12   O     O_R   0.481420 0.271390 0.600630 -0.487827
O13   O     O_R   0.163910 0.085460 0.050210 -0.522049
O14   O     O_R   0.935200 0.815170 0.045770 -0.500962
O15   O     O_R   0.916120 0.596690 0.069430 -0.523167
O16   O     O_R   0.192310 0.631200 0.086170 -0.504232
O17   O     O_R   0.406770 0.819480 0.096420 -0.510938
O18   O     O_R   0.359170 0.055960 0.064880 -0.521782
O19   O     O_3   0.161940 0.837600 0.984160 -0.283050
O20   O     O_R   0.263810 0.254550 0.589590 -0.528222
O21   O     O_R   0.300820 0.531200 0.560890 -0.498898
O22   O     O_R   0.491480 0.744020 0.564270 -0.515324
O23   O     O_R   0.726290 0.693800 0.583010 -0.518830
O24   O     O_R   0.747830 0.500190 0.434090 -0.515299
O25   O     O_R   0.475680 0.273800 0.437630 -0.526285
O26   O     O_R   0.257620 0.257160 0.413750 -0.509254
O27   O     O_3   0.028429 0.086221 0.300812 -0.548974
C43   C     C_3   0.904132 0.080018 0.324258 0.005357
H18   H     H_    0.823621 0.965539 0.330074 0.175470
H19   H     H_    0.855585 0.135943 0.278566 0.092545
C44   C     C_3   0.934232 0.136626 0.406607 -0.253365
H20   H     H_    0.003793 0.097953 0.447113 0.213228
H21   H     H_    0.990461 0.256147 0.399600 0.156508
C45   C     C_3   0.796645 0.083527 0.446448 -0.462472
H22   H     H_    0.714408 0.101077 0.404594 0.131192
H23   H     H_    0.820209 0.141629 0.500179 0.137176
H24   H     H_    0.752590 0.966844 0.465888 0.194195

loop_
_geom_bond_atom_site_label_1
_geom_bond_atom_site_label_2
_ccdc_geom_bond_type
C5    C42   S    
C16   C21   A    
C1    O12   A    
C41   C42   A    
C14   C18   A    
C19   C20   S    
C32   O10   A    
C28   H8    S    
C27   H6    S    
C7    C8    T    
C15   C19   S    
C26   C27   A    
C43   H18   S    
C23   O1    A    
C28   C29   S    
Cr3   O22   S    
C20   H3    S    
C6    C12   S    
Cr4   O14   S    
C31   O8    A    
C4    C41   S    
C15   C16   A    
C44   C45   S    
C35   O15   A    
Cr6   O11   S    
C34   O26   A    
C36   O17   A    
C44   H21   S    
Cr2   O5    S    
C9    C10   T    
Cr4   O7    S    
C32   C40   S    
C43   H19   S    
C25   C29   S    
Cr6   O10   S    
C2    C6    A    
Cr5   O15   S    
Cr2   O21   S    
C28   H7    S    
C1    O20   A    
Cr1   O25   S    
C30   C34   S    
Cr3   O4    S    
Cr3   O23   S    
C1    C9    S    
C24   C25   A    
Cr5   O8    S    
C13   C36   S    
C14   C35   S    
Cr4   O13   S    
C22   C37   S    
C17   C21   A    
Cr6   O19   S    
C11   C38   S    
C34   O25   A    
C2    H1    S    
C33   O11   A    
C45   H22   S    
C21   C39   S    
C36   O16   A    
C16   C20   S    
C44   H20   S    
C4    H12   S    
Cr3   O3    S    
C17   C18   A    
C39   O4    A    
C5    H13   S    
Cr1   O24   S    
Cr5   O19   S    
Cr4   O6    S    
Cr2   O26   S    
Cr4   O19   S    
C31   O7    A    
C45   H23   S    
C38   O3    A    
C3    C40   A    
C26   C30   A    
Cr1   O5    S    
C23   O23   A    
C22   C24   A    
Cr1   O12   S    
Cr2   O20   S    
C26   H5    S    
C25   C30   A    
C40   C41   A    
C12   O22   A    
Cr3   O5    S    
C8    C31   S    
C24   C28   S    
Cr5   O9    S    
C29   H9    S    
C4    C5    S    
C43   C44   S    
C37   O13   A    
Cr6   O18   S    
C12   O21   A    
C22   C27   A    
C2    C3    A    
C20   H4    S    
C17   H15   S    
C32   O9    A    
C11   C13   T    
C19   H2    S    
C18   H16   S    
Cr1   O1    S    
C7    C23   S    
C4    H11   S    
C35   O14   A    
O27   C43   S    
Cr6   O17   S    
C5    H14   S    
C19   H17   S    
C10   C33   S    
Cr5   O16   S    
C33   O6    A    
C3    H10   S    
C45   H24   S    
C38   O2    A    
C6    C42   A    
C14   C15   A    
C37   O18   A    
Cr2   O2    S    
C39   O24   A    
C29   O27   S    
