data_mof_unit_33803.cif
_audit_creation_date              2012-10-26T20:59:02-0400
_audit_creation_method            fapswitch 2.2
_symmetry_space_group_name_H-M    P1
_symmetry_Int_Tables_number       1
_space_group_crystal_system       triclinic
_cell_length_a                    27.801378
_cell_length_b                    10.599087
_cell_length_c                    9.426663
_cell_angle_alpha                 89.242229
_cell_angle_beta                  90.410288
_cell_angle_gamma                 89.990268
_cell_volume                      2777.43322955

loop_
_atom_site_label
_atom_site_type_symbol
_atom_type_description
_atom_site_fract_x
_atom_site_fract_y
_atom_site_fract_z
_atom_type_partial_charge
C1    C     C_R   0.500343 0.259454 0.500788 0.547647
C2    C     C_R   0.872030 0.399441 0.436497 0.026095
C3    C     C_R   0.354244 0.508212 0.497458 0.006116
C4    C     C_R   0.645241 0.499518 0.499077 0.004841
C5    C     C_R   0.974027 0.397905 0.434495 0.018525
C6    C     C_R   0.025058 0.629034 0.464334 0.018698
C7    C     C_R   0.974045 0.627958 0.473055 0.018524
C8    C     C_R   0.025097 0.397146 0.441414 0.018771
C9    C     C_R   0.948784 0.512667 0.455296 0.033699
C10   C     C_R   0.050339 0.513091 0.453472 0.033576
C11   C     C_R   0.947063 0.287456 0.407424 -0.142319
C12   C     C_R   0.499654 0.740550 0.499337 0.548382
C13   C     C_R   0.051935 0.742414 0.466206 -0.141438
C14   C     C_R   0.897116 0.288490 0.408448 -0.113808
C15   C     C_R   0.101899 0.741321 0.465389 -0.113018
C16   C     C_R   0.407470 0.503216 0.499729 0.535627
C17   C     C_R   0.592351 0.498831 0.500305 0.530927
C18   C     C_R   0.052016 0.283825 0.439182 -0.141188
C19   C     C_R   0.947214 0.738185 0.501475 -0.141867
C20   C     C_3   0.512814 0.038444 0.630701 -0.115943
C21   C     C_3   0.487124 0.961597 0.370214 -0.112617
C22   C     C_3   0.544125 0.956596 0.533189 -0.133691
C23   C     C_R   0.101472 0.513027 0.455727 -0.027458
C24   C     C_3   0.455836 0.043423 0.467736 -0.126736
C25   C     C_3   0.499549 0.877524 0.498662 0.050123
C26   C     C_3   0.500417 0.122487 0.502091 0.047852
C27   C     C_3   0.468188 0.956986 0.596248 -0.120660
C28   C     C_3   0.531770 0.042972 0.404619 -0.126001
C29   C     C_3   0.516951 0.602987 0.047273 0.371720
C30   C     C_3   0.482974 0.396964 0.952764 0.365875
C31   C     C_3   0.473784 0.591902 0.946990 -0.042540
C32   C     C_3   0.526193 0.408049 0.052982 -0.036689
C33   C     C_3   0.543503 0.512776 0.949927 -0.043828
C34   C     C_R   0.897679 0.511940 0.459295 -0.027126
C35   C     C_3   0.456456 0.487334 0.050158 -0.048140
C36   C     C_R   0.177563 0.400348 0.458631 0.397639
C37   C     C_R   0.821702 0.619960 0.494477 0.397938
C38   C     C_R   0.177573 0.625141 0.466311 0.394083
C39   C     C_R   0.821593 0.400523 0.441821 0.394711
C40   C     C_R   0.276129 0.558732 0.597360 -0.039369
C41   C     C_R   0.723649 0.429670 0.583898 -0.040493
C42   C     C_R   0.326701 0.559693 0.610182 -0.026294
C43   C     C_R   0.673128 0.422099 0.592215 -0.033139
C44   C     C_R   0.330564 0.462450 0.376170 -0.159466
C45   C     C_R   0.127103 0.398555 0.452121 0.025308
C46   C     C_R   0.668030 0.576702 0.397732 -0.158643
C47   C     C_R   0.280742 0.464885 0.365377 -0.065717
C48   C     C_R   0.717880 0.580055 0.388971 -0.067365
C49   C     C_R   0.253331 0.512170 0.476007 0.222780
C50   C     C_R   0.745919 0.507120 0.482252 0.221622
C51   C     C_3   0.552953 0.793500 0.995606 -0.026699
C52   C     C_3   0.565246 0.922429 0.054080 -0.381854
C53   C     C_3   0.445780 0.207844 0.004696 -0.023187
C54   C     C_3   0.431769 0.079774 0.946496 -0.381250
C55   C     C_3   0.648493 0.329990 0.693792 -0.246768
C56   C     C_R   0.872119 0.623529 0.486896 0.025833
C57   C     C_3   0.681265 0.229673 0.763192 -0.308779
C58   C     C_3   0.651855 0.133582 0.847355 -0.449362
C59   C     C_3   0.351359 0.616679 0.739857 -0.248305
C60   C     C_3   0.318846 0.689802 0.841427 -0.319705
C61   C     C_3   0.348295 0.750657 0.959584 -0.450464
C62   C     C_R   0.101950 0.284800 0.444569 -0.112756
C63   C     C_R   0.897324 0.735686 0.508435 -0.113280
C64   C     C_R   0.127085 0.627383 0.462593 0.025676
Cu1   Cu    Cu3+1 0.500010 0.499990 0.643150 0.956893
Cu2   Cu    Cu3+1 0.499990 0.500010 0.356850 0.969829
H1    H     H_    0.350692 0.423577 0.288989 0.118082
H2    H     H_    0.420091 0.476772 0.096557 0.087227
H3    H     H_    0.263328 0.429413 0.270831 0.136714
H4    H     H_    0.734789 0.639246 0.309206 0.141422
H5    H     H_    0.120791 0.195323 0.443356 0.165627
H6    H     H_    0.878560 0.822599 0.531317 0.165642
H7    H     H_    0.746543 0.375086 0.654561 0.130715
H8    H     H_    0.253479 0.593809 0.680684 0.128781
H9    H     H_    0.878215 0.201142 0.387948 0.165475
H10   H     H_    0.120741 0.830753 0.467921 0.165601
H11   H     H_    0.963425 0.198488 0.382317 0.107218
H12   H     H_    0.647057 0.634973 0.324966 0.137815
H13   H     H_    0.035462 0.834380 0.465800 0.105041
H14   H     H_    0.035605 0.191845 0.437310 0.105039
H15   H     H_    0.963707 0.827909 0.522908 0.107165
H16   H     H_    0.580202 0.917699 0.559883 0.109190
H17   H     H_    0.419778 0.082457 0.441116 0.114006
H18   H     H_    0.526243 0.807559 0.908082 0.126686
H19   H     H_    0.586414 0.751768 0.952294 0.129476
H20   H     H_    0.590814 0.912864 0.144654 0.165757
H21   H     H_    0.581863 0.980942 0.969634 0.093115
H22   H     H_    0.532147 0.970767 0.089081 0.138548
H23   H     H_    0.524023 0.073322 0.736392 0.133586
H24   H     H_    0.412819 0.252339 0.047859 0.125539
H25   H     H_    0.472318 0.191865 0.092273 0.125945
H26   H     H_    0.464306 0.027990 0.912807 0.136008
H27   H     H_    0.413585 0.023184 0.030341 0.096396
H28   H     H_    0.406886 0.091676 0.854588 0.170304
H29   H     H_    0.630916 0.181482 0.930971 0.149984
H30   H     H_    0.626803 0.082930 0.775512 0.146037
H31   H     H_    0.676284 0.063544 0.898785 0.159785
H32   H     H_    0.701565 0.178975 0.680206 0.189700
H33   H     H_    0.707041 0.275397 0.837089 0.165904
H34   H     H_    0.475605 0.926445 0.264983 0.136265
H35   H     H_    0.631101 0.384458 0.779046 0.158921
H36   H     H_    0.619938 0.279532 0.633730 0.157265
H37   H     H_    0.367259 0.677193 0.023808 0.149399
H38   H     H_    0.375078 0.817332 0.914160 0.141612
H39   H     H_    0.324028 0.803736 0.030325 0.165572
H40   H     H_    0.299264 0.765340 0.781853 0.186231
H41   H     H_    0.292451 0.624495 0.891340 0.163667
H42   H     H_    0.368974 0.539398 0.801861 0.175508
H43   H     H_    0.379433 0.683426 0.701549 0.157126
H44   H     H_    0.442113 0.917851 0.673876 0.100529
H45   H     H_    0.557839 0.082056 0.326983 0.106838
H46   H     H_    0.452536 0.669588 0.897355 0.088857
H47   H     H_    0.547693 0.330587 0.102281 0.093452
H48   H     H_    0.579786 0.525451 0.903903 0.090207
N1    N     N_R   0.201738 0.512601 0.465871 -0.398180
N2    N     N_R   0.797484 0.509435 0.472212 -0.396820
N3    N     N_3   0.500040 0.499970 0.858290 -0.242241
N4    N     N_3   0.499960 0.500030 0.141710 -0.239507
O1    O     O_R   0.500020 0.316850 0.620870 -0.445703
O2    O     O_2   0.797123 0.725757 0.525587 -0.503060
O3    O     O_2   0.796803 0.293615 0.416243 -0.507131
O4    O     O_2   0.202350 0.734568 0.470040 -0.502907
O5    O     O_3   0.534606 0.715983 0.105494 -0.533756
O6    O     O_3   0.465184 0.283815 0.894897 -0.531447
O7    O     O_R   0.499980 0.683150 0.379130 -0.444054
O8    O     O_R   0.500000 0.316860 0.379090 -0.527219
O9    O     O_R   0.500000 0.683140 0.620910 -0.530025
O10   O     O_R   0.430270 0.500020 0.620880 -0.495740
O11   O     O_R   0.569730 0.499980 0.379120 -0.484905
O12   O     O_R   0.430250 0.500030 0.379090 -0.515093
O13   O     O_R   0.569750 0.499970 0.620910 -0.520647
O14   O     O_2   0.202259 0.290684 0.459650 -0.497889

loop_
_geom_bond_atom_site_label_1
_geom_bond_atom_site_label_2
_ccdc_geom_bond_type
C13   H13   S    
C3    C42   A    
C33   N3    S    
C23   C45   A    
C17   O13   A    
C51   O5    S    
C24   C27   S    
C51   H19   S    
C47   C49   A    
C37   N2    A    
C4    C46   A    
C53   C54   S    
C34   C56   A    
C55   H36   S    
C33   H48   S    
C30   C35   S    
Cu1   O9    S    
C61   H37   S    
C24   H17   S    
C24   C26   S    
C5    C11   A    
C36   O14   S    
C8    C10   A    
C11   C14   A    
C40   C49   A    
C57   H33   S    
C29   C33   S    
C45   C62   A    
C1    O1    A    
C58   H30   S    
C47   H3    S    
C54   H27   S    
C11   H11   S    
C30   N3    S    
C59   H43   S    
C37   C56   A    
C2    C39   A    
C31   N3    S    
C27   H44   S    
C19   C63   A    
C22   C25   S    
C53   H25   S    
C31   H46   S    
C32   H47   S    
C16   O12   A    
C44   C47   A    
Cu2   O11   S    
C2    C34   A    
C40   C42   A    
C15   H10   S    
C59   C60   S    
C22   C28   S    
C12   O9    A    
C41   C43   A    
C58   H31   S    
Cu1   O13   S    
C38   C64   A    
C28   H45   S    
C46   C48   A    
C3    C44   A    
C17   O11   A    
C51   C52   S    
Cu1   O10   S    
C52   H22   S    
C61   H38   S    
C1    O8    A    
C48   H4    S    
C46   H12   S    
C21   H34   S    
C18   C62   A    
C12   O7    A    
C8    C18   A    
Cu2   O8    S    
C60   C61   S    
C58   H29   S    
C54   H26   S    
C15   C64   A    
Cu1   O1    S    
C56   C63   A    
C36   C45   A    
C48   C50   A    
C16   O10   A    
C38   O4    S    
C60   H41   S    
C4    C17   S    
C43   C55   S    
C23   C64   A    
C49   N1    S    
C21   C28   S    
C30   O6    S    
Cu1   Cu2   S    
C7    C19   A    
C13   C15   A    
C9    C34   A    
C31   C35   S    
C20   C22   S    
C22   H16   S    
C41   C50   A    
C60   H40   S    
C20   H23   S    
C7    C9    A    
C21   C25   S    
C52   H21   S    
C32   N4    S    
C35   N4    S    
C53   O6    S    
C42   C59   S    
C6    C10   A    
C5    C8    A    
C6    C7    A    
C20   C27   S    
C10   C23   A    
C25   C27   S    
C29   N4    S    
C55   H35   S    
C26   C28   S    
C59   H42   S    
C39   O3    S    
Cu2   O7    S    
C12   C25   S    
C14   H9    S    
C55   C57   S    
C29   C31   S    
C32   C33   S    
C6    C13   A    
C30   C32   S    
C38   N1    A    
C57   C58   S    
C1    C26   S    
C37   O2    S    
C20   C26   S    
C35   H2    S    
C57   H32   S    
C29   O5    S    
C52   H20   S    
C61   H39   S    
C4    C43   A    
C40   H8    S    
C62   H5    S    
C50   N2    S    
C2    C14   A    
C54   H28   S    
C41   H7    S    
C63   H6    S    
C18   H14   S    
C39   N2    A    
Cu2   N4    S    
C21   C24   S    
C53   H24   S    
Cu1   N3    S    
C44   H1    S    
C5    C9    A    
C19   H15   S    
C36   N1    A    
C51   H18   S    
C3    C16   S    
Cu2   O12   S    
