data_mof_unit_41418.cif
_audit_creation_date              2012-12-10T17:50:39-0500
_audit_creation_method            fapswitch 2.2
_symmetry_space_group_name_H-M    P1
_symmetry_Int_Tables_number       1
_space_group_crystal_system       triclinic
_cell_length_a                    15.687521
_cell_length_b                    10.775487
_cell_length_c                    10.107114
_cell_angle_alpha                 89.349226
_cell_angle_beta                  90.948363
_cell_angle_gamma                 92.781435
_cell_volume                      1706.17157781

loop_
_atom_site_label
_atom_site_type_symbol
_atom_type_description
_atom_site_fract_x
_atom_site_fract_y
_atom_site_fract_z
_atom_type_partial_charge
C1    C     C_R   0.510667 0.262188 0.501267 0.925689
C2    C     C_R   0.557169 0.061996 0.866150 0.399666
C3    C     C_R   0.539146 0.934046 0.856799 0.067989
C4    C     C_R   0.338670 0.501688 0.499152 0.900191
C5    C     C_R   0.561921 0.876411 0.741200 0.208628
C6    C     C_R   0.540337 0.937590 0.623058 -0.078605
C7    C     C_R   0.544697 0.067675 0.624993 -0.173620
C8    C     C_R   0.535989 0.132876 0.505112 -0.232411
C9    C     C_R   0.559250 0.073784 0.389270 0.520267
C10   C     C_R   0.556261 0.943599 0.385498 0.011211
C11   C     C_R   0.532768 0.875259 0.501009 -0.162057
C12   C     C_3   0.084163 0.515989 0.498161 0.036038
C13   C     C_R   0.357686 0.393550 0.132467 0.562785
C14   C     C_R   0.278404 0.394644 0.065886 -0.069094
C15   C     C_R   0.278276 0.390149 0.926987 0.470425
C16   C     C_R   0.509494 0.740313 0.499534 0.865136
C17   C     C_R   0.357280 0.390680 0.863497 0.179226
C18   C     C_R   0.429833 0.449689 0.927437 -0.144993
C19   C     C_R   0.430770 0.447852 0.070185 -0.160066
C20   C     C_R   0.567040 0.550289 0.073993 0.416432
C21   C     C_R   0.569643 0.541151 0.931039 0.467214
C22   C     C_R   0.661338 0.500522 0.500958 0.862531
C23   C     C_3   0.974050 0.628406 0.512980 0.154209
C24   C     C_3   0.972558 0.441525 0.600741 0.172387
C25   C     C_3   0.026130 0.397308 0.485317 0.162620
C26   C     C_1   0.250120 0.508610 0.497851 -0.161922
C27   C     C_1   0.750136 0.502732 0.502730 -0.221762
C28   C     C_3   0.030923 0.560296 0.613460 0.156032
C29   C     C_3   0.056557 0.266488 0.468871 -0.895784
C30   C     C_3   0.496932 0.857863 0.963121 -0.842550
C31   C     C_3   0.649543 0.824109 0.743093 -0.777555
C32   C     C_3   0.587922 0.880375 0.265682 -0.728496
C33   C     C_3   0.704035 0.596866 0.158522 -0.245268
C34   C     C_3   0.916318 0.509579 0.500454 0.037853
C35   C     C_3   0.368943 0.193919 0.202933 -0.276007
C36   C     C_3   0.197291 0.381085 0.143194 -0.841629
C37   C     C_3   0.163626 0.252755 0.878466 -0.332624
C38   C     C_3   0.368337 0.274478 0.785266 -0.739228
C39   C     C_3   0.705738 0.495958 0.873577 -0.306430
C40   C     C_3   0.940439 0.360330 0.715179 -0.926527
C41   C     C_3   0.932794 0.412136 0.256125 -0.924494
C42   C     C_3   0.060517 0.665832 0.283687 -0.899791
C43   C     C_3   0.942449 0.758684 0.528457 -0.908044
C44   C     C_3   0.065981 0.615722 0.742193 -0.863274
C45   C     C_3   0.027962 0.584239 0.397645 0.145162
C46   C     C_3   0.676823 0.179835 0.312848 -0.317636
C47   C     C_3   0.711860 0.185410 0.709250 -0.433164
C48   C     C_3   0.590720 0.236047 0.997126 -0.227207
C49   C     C_3   0.969381 0.465558 0.384969 0.162695
C50   C     C_1   0.175050 0.513980 0.497821 0.008320
C51   C     C_1   0.825425 0.505597 0.502297 -0.029086
C52   C     C_R   0.573441 0.125951 0.743857 0.428741
H1    H     H_    0.000719 0.199343 0.463815 0.239627
H2    H     H_    0.534582 0.825439 0.220042 0.269918
H3    H     H_    0.613819 0.945535 0.189049 0.284991
H4    H     H_    0.640037 0.819870 0.296513 0.243303
H5    H     H_    0.745324 0.632250 0.077337 0.172904
H6    H     H_    0.706924 0.494710 0.174072 0.145464
H7    H     H_    0.731475 0.641247 0.249109 0.175070
H8    H     H_    0.424257 0.181714 0.137817 0.215015
H9    H     H_    0.308837 0.160242 0.152445 0.131178
H10   H     H_    0.377503 0.134596 0.292104 0.178123
H11   H     H_    0.206840 0.422906 0.242222 0.256834
H12   H     H_    0.093252 0.261672 0.376368 0.244142
H13   H     H_    0.145518 0.430344 0.091880 0.246499
H14   H     H_    0.177600 0.281525 0.156430 0.228028
H15   H     H_    0.103121 0.265157 0.930851 0.178319
H16   H     H_    0.202774 0.188093 0.937831 0.142573
H17   H     H_    0.147363 0.207001 0.783058 0.182867
H18   H     H_    0.432875 0.241199 0.802038 0.231200
H19   H     H_    0.327048 0.195447 0.821813 0.178124
H20   H     H_    0.351348 0.286636 0.679479 0.254261
H21   H     H_    0.707215 0.441359 0.966539 0.090577
H22   H     H_    0.768949 0.545139 0.861528 0.167578
H23   H     H_    0.098093 0.242264 0.554179 0.248114
H24   H     H_    0.698282 0.428667 0.793802 0.253683
H25   H     H_    0.995278 0.332355 0.777078 0.258602
H26   H     H_    0.896744 0.412679 0.776457 0.233734
H27   H     H_    0.906310 0.275742 0.675927 0.233204
H28   H     H_    0.985630 0.387627 0.191137 0.250262
H29   H     H_    0.891921 0.327561 0.277516 0.237008
H30   H     H_    0.893863 0.481993 0.205012 0.234112
H31   H     H_    0.005635 0.702848 0.227820 0.244241
H32   H     H_    0.101366 0.744350 0.323044 0.242881
H33   H     H_    0.098438 0.610511 0.216438 0.245363
H34   H     H_    0.441416 0.803070 0.920756 0.226748
H35   H     H_    0.997779 0.826584 0.535448 0.246181
H36   H     H_    0.901977 0.782446 0.441590 0.238999
H37   H     H_    0.904296 0.762723 0.619672 0.243293
H38   H     H_    0.012337 0.641694 0.804798 0.234382
H39   H     H_    0.103781 0.546760 0.796266 0.290115
H40   H     H_    0.107343 0.699685 0.720416 0.236020
H41   H     H_    0.716231 0.098218 0.332650 0.153278
H42   H     H_    0.681747 0.244396 0.397927 0.159848
H43   H     H_    0.704412 0.230468 0.226379 0.169666
H44   H     H_    0.712080 0.128864 0.617767 0.175091
H45   H     H_    0.543152 0.793064 0.003413 0.270639
H46   H     H_    0.736923 0.131603 0.794818 0.176628
H47   H     H_    0.756207 0.266720 0.692080 0.192611
H48   H     H_    0.576933 0.276627 0.093729 0.213260
H49   H     H_    0.660986 0.236461 0.986136 0.171199
H50   H     H_    0.559916 0.295862 0.923939 0.174456
H51   H     H_    0.472744 0.916993 0.041957 0.261994
H52   H     H_    0.671502 0.803829 0.845674 0.270602
H53   H     H_    0.651265 0.740211 0.681301 0.277934
H54   H     H_    0.696782 0.893986 0.702294 0.181617
N1    N     N_R   0.499210 0.498800 0.142780 -0.144457
N2    N     N_R   0.499180 0.498720 0.857170 -0.135268
O1    O     O_R   0.500000 0.316780 0.614690 -0.601935
O2    O     O_3   0.365062 0.318659 0.243167 -0.553735
O3    O     O_3   0.203966 0.370620 0.851838 -0.597593
O4    O     O_3   0.641809 0.584228 0.865943 -0.595086
O5    O     O_3   0.590879 0.142813 0.283623 -0.581401
O6    O     O_3   0.630123 0.227857 0.736100 -0.608641
O7    O     O_3   0.555747 0.114085 0.991848 -0.612143
O8    O     O_R   0.499990 0.316750 0.385360 -0.533772
O9    O     O_R   0.376780 0.500000 0.614650 -0.608468
O10   O     O_R   0.376770 0.499980 0.385310 -0.568445
O11   O     O_R   0.500010 0.683250 0.614640 -0.597791
O12   O     O_R   0.500000 0.683220 0.385310 -0.599763
O13   O     O_R   0.623230 0.500020 0.614690 -0.565993
O14   O     O_R   0.623220 0.500000 0.385350 -0.606340
O15   O     O_3   0.620393 0.636442 0.139825 -0.606815
Zn1   Zn    Zn3+2 0.500010 0.500020 0.653130 0.998439
Zn2   Zn    Zn3+2 0.499990 0.499980 0.346870 1.014722

loop_
_geom_bond_atom_site_label_1
_geom_bond_atom_site_label_2
_ccdc_geom_bond_type
C47   O6    S    
C38   H18   S    
C33   H6    S    
C23   C45   S    
C37   H17   S    
C1    C8    S    
C41   H28   S    
C23   C43   S    
C7    C8    A    
O11   Zn1   S    
C30   H45   S    
C34   C51   S    
C43   H37   S    
C47   H46   S    
C12   C28   S    
C43   H36   S    
O9    Zn1   S    
C7    C52   A    
C26   C50   T    
C14   C36   S    
C5    C6    A    
C36   H14   S    
C48   H49   S    
C37   H16   S    
C47   H47   S    
C18   C19   A    
C11   C16   S    
C39   H22   S    
C41   C49   S    
O13   Zn1   S    
C1    O1    A    
C46   H43   S    
C8    C9    A    
C20   O15   S    
C30   H51   S    
C47   H44   S    
C1    O8    A    
C30   H34   S    
C36   H11   S    
C9    C10   A    
C32   H3    S    
C44   H40   S    
C20   N1    A    
C29   H12   S    
C41   H29   S    
C33   H7    S    
C13   C14   A    
C31   H53   S    
C4    O10   A    
N2    Zn1   S    
C32   H2    S    
C27   C51   T    
C22   O14   A    
C25   C49   S    
C25   C29   S    
C48   H48   S    
C38   H20   S    
C13   C19   A    
C15   O3    S    
C42   H32   S    
C24   C25   S    
N1    Zn2   S    
C16   O11   A    
C6    C11   A    
O12   Zn2   S    
C23   C28   S    
C28   C44   S    
C24   C34   S    
C35   H8    S    
C42   C45   S    
C3    C30   S    
C13   O2    S    
C2    O7    S    
C4    C26   S    
C46   H42   S    
C45   C49   S    
C23   C34   S    
C48   H50   S    
C17   C18   A    
C40   H27   S    
C35   H9    S    
C42   H33   S    
C39   H24   S    
C35   O2    S    
C44   H39   S    
C2    C52   A    
C48   O7    S    
C39   O4    S    
O10   Zn2   S    
O8    Zn2   S    
C31   H54   S    
C40   H26   S    
C4    O9    A    
C21   O4    S    
C44   H38   S    
C22   O13   A    
C15   C17   A    
C38   H19   S    
C34   C49   S    
C33   H5    S    
C46   O5    S    
C36   H13   S    
C42   H31   S    
C24   C28   S    
C12   C45   S    
C3    C5    A    
C12   C50   S    
O1    Zn1   S    
C6    C7    A    
C29   H23   S    
C52   O6    S    
C12   C25   S    
C22   C27   S    
C9    O5    S    
C31   H52   S    
O14   Zn2   S    
C16   O12   A    
C2    C3    A    
C43   H35   S    
C40   H25   S    
C46   H41   S    
C29   H1    S    
C41   H30   S    
C37   H15   S    
C24   C40   S    
C35   H10   S    
C17   C38   S    
C39   H21   S    
C18   N2    A    
C37   O3    S    
C21   N2    A    
C10   C11   A    
C10   C32   S    
C20   C21   A    
C33   O15   S    
C14   C15   A    
C32   H4    S    
C5    C31   S    
C19   N1    A    
