data_mof_unit_28087.cif
_audit_creation_date              2012-12-10T16:57:01-0500
_audit_creation_method            fapswitch 2.2
_symmetry_space_group_name_H-M    P1
_symmetry_Int_Tables_number       1
_space_group_crystal_system       triclinic
_cell_length_a                    20.712222
_cell_length_b                    15.908599
_cell_length_c                    13.120573
_cell_angle_alpha                 89.687473
_cell_angle_beta                  91.061588
_cell_angle_gamma                 89.688189
_cell_volume                      4322.38795101

loop_
_atom_site_label
_atom_site_type_symbol
_atom_type_description
_atom_site_fract_x
_atom_site_fract_y
_atom_site_fract_z
_atom_type_partial_charge
C1    C     C_R   0.620921 0.838835 0.472023 0.494826
C2    C     C_2   0.989360 0.467797 0.944877 0.274318
C3    C     C_R   0.379062 0.160471 0.530264 0.524389
C4    C     C_R   0.379125 0.840193 0.530222 0.529971
C5    C     C_R   0.879458 0.660664 0.530741 0.527306
C6    C     C_R   0.879191 0.340191 0.530287 0.532890
C7    C     C_R   0.529973 0.997578 0.772958 0.510534
C8    C     C_R   0.029986 0.497717 0.772952 0.510819
C9    C     C_R   0.469799 0.000401 0.228017 0.490996
C10   C     C_R   0.969724 0.500420 0.228076 0.490394
C11   C     C_2   0.329344 0.775401 0.540470 0.276405
C12   C     C_R   0.621687 0.159642 0.468621 0.496677
C13   C     C_2   0.327564 0.224346 0.538464 0.282889
C14   C     C_2   0.829536 0.275380 0.540726 0.278927
C15   C     C_2   0.828157 0.724375 0.539396 0.285387
C16   C     C_2   0.288988 0.761885 0.460130 0.269844
C17   C     C_2   0.265997 0.198314 0.547900 0.270537
C18   C     C_2   0.788417 0.262912 0.461100 0.269729
C19   C     C_2   0.766382 0.697780 0.541239 0.275363
C20   C     C_2   0.673723 0.221251 0.450909 0.252299
C21   C     C_2   0.669052 0.769339 0.470689 0.257864
C22   C     C_2   0.174137 0.720877 0.449477 0.253070
C23   C     C_R   0.120814 0.338418 0.472901 0.492013
C24   C     C_2   0.168083 0.267582 0.476069 0.254712
C25   C     C_2   0.736141 0.199671 0.471960 0.273868
C26   C     C_2   0.714595 0.763015 0.546283 0.274336
C27   C     C_2   0.236443 0.698943 0.471044 0.277700
C28   C     C_2   0.213978 0.263301 0.551595 0.276050
C29   C     C_2   0.456848 0.002151 0.117955 0.269893
C30   C     C_2   0.956520 0.502336 0.118163 0.269016
C31   C     C_3   0.792092 0.074178 0.458078 0.019548
C32   C     C_3   0.753289 0.025698 0.377173 -0.262879
C33   C     C_3   0.796735 0.967644 0.316273 -0.483177
C34   C     C_R   0.121685 0.659827 0.468649 0.494479
C35   C     C_3   0.717137 0.795768 0.717894 0.010299
C36   C     C_3   0.646436 0.782980 0.746868 -0.261577
C37   C     C_3   0.640705 0.756181 0.858055 -0.483063
C38   C     C_3   0.292077 0.573134 0.458726 0.018392
C39   C     C_3   0.253407 0.524741 0.377558 -0.261537
C40   C     C_3   0.297093 0.467802 0.315584 -0.484993
C41   C     C_3   0.220276 0.303201 0.721065 0.006885
C42   C     C_3   0.151165 0.282142 0.752865 -0.266131
C43   C     C_3   0.148764 0.258182 0.865422 -0.479770
C44   C     C_3   0.296139 0.767149 0.283695 0.016481
C45   C     C_2   0.498847 0.963416 0.056881 -0.100222
C46   C     C_3   0.366740 0.746381 0.260732 -0.269533
C47   C     C_3   0.372623 0.696375 0.162497 -0.508720
C48   C     C_3   0.210459 0.087578 0.619199 0.007563
C49   C     C_3   0.220588 0.993691 0.639307 -0.236436
C50   C     C_3   0.175544 0.961077 0.721146 -0.507092
C51   C     C_3   0.792978 0.270554 0.284402 0.016746
C52   C     C_3   0.862966 0.249144 0.258318 -0.268694
C53   C     C_3   0.866650 0.198873 0.159948 -0.507043
C54   C     C_3   0.703394 0.580892 0.581669 0.023886
C55   C     C_3   0.730501 0.544170 0.681817 -0.266818
C56   C     C_2   0.998581 0.464020 0.056827 -0.100615
C57   C     C_3   0.676419 0.508876 0.746687 -0.502789
C58   C     C_3   0.620026 0.347556 0.460613 0.015461
C59   C     C_3   0.601226 0.426329 0.399392 -0.242231
C60   C     C_3   0.552654 0.480612 0.455935 -0.495431
C61   C     C_3   0.668048 0.735881 0.299258 0.027004
C62   C     C_3   0.612822 0.700343 0.233911 -0.249475
C63   C     C_3   0.617063 0.729329 0.123213 -0.495186
C64   C     C_3   0.116589 0.845478 0.450264 0.006034
C65   C     C_3   0.112466 0.932189 0.399438 -0.241288
C66   C     C_3   0.062963 0.988563 0.450686 -0.486327
C67   C     C_2   0.540041 0.986477 0.884600 0.270184
C68   C     C_3   0.177714 0.229426 0.309829 0.011139
C69   C     C_3   0.177536 0.154235 0.237874 -0.249288
C70   C     C_3   0.191411 0.181238 0.128691 -0.503152
C71   C     C_3   0.378162 0.717038 0.687951 0.006300
C72   C     C_3   0.421616 0.651889 0.636287 -0.274437
C73   C     C_3   0.484087 0.637990 0.697688 -0.494764
C74   C     C_3   0.396725 0.338811 0.565948 0.000737
C75   C     C_3   0.390164 0.348683 0.681459 -0.272059
C76   C     C_3   0.451647 0.384921 0.729222 -0.492071
C77   C     C_3   0.879711 0.215969 0.686571 0.006377
C78   C     C_2   0.040065 0.486733 0.884579 0.269603
C79   C     C_3   0.922691 0.150960 0.633701 -0.273754
C80   C     C_3   0.986071 0.137555 0.692879 -0.491566
C81   C     C_3   0.898916 0.836426 0.574385 0.000348
C82   C     C_3   0.893652 0.840839 0.690608 -0.270586
C83   C     C_3   0.955567 0.875159 0.739186 -0.489718
C84   C     C_3   0.396193 0.888361 0.929945 0.020459
C85   C     C_3   0.329261 0.887579 0.878662 -0.241543
C86   C     C_3   0.288546 0.814534 0.916521 -0.489725
C87   C     C_3   0.895618 0.391203 0.927157 0.021174
C88   C     C_3   0.829160 0.392244 0.874481 -0.242360
C89   C     C_2   0.489525 0.966450 0.944840 0.275107
C90   C     C_3   0.787369 0.319160 0.909060 -0.489507
C91   C     C_3   0.622031 0.073917 0.929422 -0.129586
C92   C     C_3   0.123012 0.572618 0.929405 -0.130764
C93   C     C_3   0.351214 0.047683 0.131319 -0.101830
C94   C     C_3   0.850953 0.548019 0.132038 -0.096269
H1    H     H_    0.541308 0.931821 0.088995 0.081872
H2    H     H_    0.738410 0.843596 0.769719 0.164316
H3    H     H_    0.462042 0.447479 0.695561 0.144325
H4    H     H_    0.867008 0.189673 0.762056 0.150837
H5    H     H_    0.906353 0.274909 0.703210 0.123838
H6    H     H_    0.896775 0.090145 0.628487 0.166257
H7    H     H_    0.933945 0.172146 0.555255 0.155245
H8    H     H_    0.013071 0.197545 0.698164 0.139691
H9    H     H_    0.016332 0.090774 0.653010 0.137264
H10   H     H_    0.976576 0.113765 0.770900 0.142060
H11   H     H_    0.908836 0.900799 0.545562 0.138142
H12   H     H_    0.941089 0.797840 0.552009 0.130794
H13   H     H_    0.745950 0.737463 0.730764 0.094506
H14   H     H_    0.852628 0.882629 0.710331 0.189270
H15   H     H_    0.884430 0.777154 0.722167 0.150940
H16   H     H_    0.997208 0.833741 0.721546 0.140942
H17   H     H_    0.950447 0.877781 0.823194 0.153624
H18   H     H_    0.965136 0.939610 0.710376 0.142660
H19   H     H_    0.390074 0.882974 0.013747 0.136507
H20   H     H_    0.424472 0.833318 0.902764 0.092325
H21   H     H_    0.303591 0.947426 0.895100 0.178606
H22   H     H_    0.334534 0.882816 0.794789 0.187723
H23   H     H_    0.314607 0.753989 0.907516 0.141389
H24   H     H_    0.619158 0.842498 0.734517 0.205481
H25   H     H_    0.242536 0.812003 0.871954 0.156680
H26   H     H_    0.277072 0.823421 0.998129 0.133069
H27   H     H_    0.888904 0.384142 0.010673 0.136176
H28   H     H_    0.923824 0.336564 0.898666 0.092573
H29   H     H_    0.804023 0.452126 0.892380 0.177572
H30   H     H_    0.835143 0.389163 0.790609 0.191156
H31   H     H_    0.813041 0.258432 0.899270 0.144707
H32   H     H_    0.741907 0.318212 0.862880 0.159864
H33   H     H_    0.774903 0.326794 0.990464 0.132224
H34   H     H_    0.588003 0.113380 0.973597 0.115941
H35   H     H_    0.624250 0.734140 0.697752 0.120801
H36   H     H_    0.627850 0.100334 0.851515 0.146543
H37   H     H_    0.669838 0.076611 0.968774 0.140532
H38   H     H_    0.089502 0.612571 0.973918 0.116141
H39   H     H_    0.128916 0.599106 0.851550 0.146317
H40   H     H_    0.170939 0.574392 0.968480 0.140058
H41   H     H_    0.354757 0.085671 0.201992 0.142053
H42   H     H_    0.338677 0.981309 0.149573 0.094115
H43   H     H_    0.310985 0.073977 0.084007 0.133205
H44   H     H_    0.854931 0.584401 0.203906 0.144509
H45   H     H_    0.837902 0.481462 0.148236 0.095261
H46   H     H_    0.667166 0.696195 0.872162 0.141747
H47   H     H_    0.810841 0.576021 0.085827 0.130002
H48   H     H_    0.589047 0.746859 0.876062 0.137423
H49   H     H_    0.660655 0.805502 0.909105 0.179463
H50   H     H_    0.316335 0.526591 0.510137 0.172432
H51   H     H_    0.331300 0.610095 0.423425 0.086820
H52   H     H_    0.216513 0.485627 0.415241 0.208539
H53   H     H_    0.041043 0.432242 0.088726 0.085136
H54   H     H_    0.228104 0.569470 0.325057 0.128157
H55   H     H_    0.334029 0.505617 0.276026 0.139143
H56   H     H_    0.267670 0.433804 0.257621 0.139403
H57   H     H_    0.321664 0.420881 0.365970 0.197435
H58   H     H_    0.237581 0.356144 0.768979 0.167567
H59   H     H_    0.254303 0.250330 0.737146 0.094707
H60   H     H_    0.119314 0.337500 0.738598 0.200041
H61   H     H_    0.132265 0.229008 0.706911 0.118083
H62   H     H_    0.179369 0.201830 0.880994 0.139455
H63   H     H_    0.098259 0.243506 0.885899 0.138297
H64   H     H_    0.816815 0.027718 0.509057 0.174223
H65   H     H_    0.165952 0.311070 0.913548 0.180959
H66   H     H_    0.276344 0.806938 0.220534 0.156840
H67   H     H_    0.266532 0.709076 0.283651 0.117364
H68   H     H_    0.394143 0.805745 0.252982 0.207468
H69   H     H_    0.388675 0.709217 0.324438 0.157161
H70   H     H_    0.345256 0.636736 0.167778 0.148109
H71   H     H_    0.424213 0.681266 0.149429 0.143768
H72   H     H_    0.353811 0.733779 0.096767 0.137942
H73   H     H_    0.159531 0.099651 0.594838 0.150545
H74   H     H_    0.220795 0.120380 0.692317 0.107444
H75   H     H_    0.830942 0.111561 0.422384 0.086397
H76   H     H_    0.212330 0.958234 0.567800 0.185138
H77   H     H_    0.271360 0.982460 0.664901 0.201426
H78   H     H_    0.186144 0.992408 0.794996 0.144440
H79   H     H_    0.182856 0.892317 0.731021 0.152278
H80   H     H_    0.124322 0.972873 0.698864 0.135783
H81   H     H_    0.772594 0.311495 0.222796 0.158341
H82   H     H_    0.762882 0.212911 0.284193 0.117495
H83   H     H_    0.890535 0.308266 0.249225 0.204667
H84   H     H_    0.885838 0.211855 0.321109 0.160552
H85   H     H_    0.839533 0.139165 0.167128 0.148083
H86   H     H_    0.715948 0.987373 0.414951 0.208132
H87   H     H_    0.917873 0.183818 0.143974 0.147392
H88   H     H_    0.846267 0.236013 0.095117 0.137389
H89   H     H_    0.681264 0.528665 0.538356 0.168765
H90   H     H_    0.663640 0.626104 0.595821 0.115381
H91   H     H_    0.765383 0.492983 0.664935 0.200945
H92   H     H_    0.756530 0.593298 0.725601 0.156535
H93   H     H_    0.640986 0.559116 0.764560 0.146901
H94   H     H_    0.696834 0.483479 0.819358 0.145609
H95   H     H_    0.651195 0.457337 0.705645 0.139131
H96   H     H_    0.646745 0.366625 0.531177 0.117833
H97   H     H_    0.728546 0.070422 0.324004 0.127098
H98   H     H_    0.574855 0.314958 0.482191 0.137938
H99   H     H_    0.645196 0.463630 0.383801 0.189825
H100  H     H_    0.579355 0.407583 0.324964 0.178158
H101  H     H_    0.505838 0.447453 0.460799 0.133414
H102  H     H_    0.544732 0.540755 0.414061 0.162174
H103  H     H_    0.570462 0.494684 0.534244 0.130332
H104  H     H_    0.714731 0.713333 0.268786 0.148058
H105  H     H_    0.667866 0.805885 0.292093 0.108521
H106  H     H_    0.614625 0.630503 0.236856 0.163846
H107  H     H_    0.565840 0.721295 0.264834 0.188060
H108  H     H_    0.834211 0.004614 0.276788 0.139901
H109  H     H_    0.614375 0.798987 0.118241 0.156208
H110  H     H_    0.576191 0.702744 0.078156 0.138377
H111  H     H_    0.663062 0.707366 0.089925 0.144445
H112  H     H_    0.131985 0.852939 0.531535 0.110595
H113  H     H_    0.067619 0.817440 0.446963 0.157501
H114  H     H_    0.160548 0.962791 0.402975 0.199642
H115  H     H_    0.098363 0.924886 0.317815 0.171285
H116  H     H_    0.013915 0.961110 0.443176 0.130736
H117  H     H_    0.062583 0.051595 0.413879 0.179149
H118  H     H_    0.075406 0.996005 0.532645 0.137946
H119  H     H_    0.767253 0.933752 0.258292 0.139461
H120  H     H_    0.226848 0.257913 0.310238 0.129838
H121  H     H_    0.141749 0.276419 0.280774 0.145765
H122  H     H_    0.214791 0.107928 0.263965 0.176398
H123  H     H_    0.129575 0.123241 0.239487 0.169866
H124  H     H_    0.154032 0.226514 0.100652 0.151607
H125  H     H_    0.190713 0.125378 0.078322 0.136518
H126  H     H_    0.239691 0.211036 0.124821 0.150931
H127  H     H_    0.364803 0.690977 0.763240 0.151630
H128  H     H_    0.404720 0.775991 0.704801 0.125688
H129  H     H_    0.395562 0.591258 0.629778 0.166969
H130  H     H_    0.820606 0.920637 0.367439 0.196716
H131  H     H_    0.434100 0.673309 0.558437 0.153685
H132  H     H_    0.510353 0.698239 0.706334 0.139276
H133  H     H_    0.515549 0.592747 0.657549 0.139702
H134  H     H_    0.473437 0.612224 0.774377 0.142653
H135  H     H_    0.406029 0.401989 0.533199 0.135894
H136  H     H_    0.439588 0.299996 0.547467 0.135250
H137  H     H_    0.349072 0.391613 0.697086 0.191083
H138  H     H_    0.380490 0.286638 0.717170 0.150356
H139  H     H_    0.493250 0.342139 0.716378 0.141029
H140  H     H_    0.445416 0.392280 0.812568 0.152551
O1    O     O_3   0.500000 0.000000 0.500000 -0.439696
O2    O     O_R   0.880760 0.402800 0.590320 -0.555521
O3    O     O_R   0.577210 0.000000 0.711160 -0.539364
O4    O     O_R   0.077210 0.500000 0.711160 -0.537935
O5    O     O_R   0.475030 0.069050 0.275760 -0.523472
O6    O     O_R   0.475030 0.930950 0.275760 -0.580865
O7    O     O_R   0.975030 0.569050 0.275760 -0.523207
O8    O     O_R   0.975030 0.430950 0.275760 -0.578710
O9    O     O_R   0.632300 0.097230 0.527310 -0.502386
O10   O     O_R   0.632300 0.902770 0.527310 -0.511245
O11   O     O_R   0.132300 0.597230 0.527310 -0.500453
O12   O     O_3   0.000000 0.500000 0.500000 -0.439727
O13   O     O_R   0.132300 0.402770 0.527310 -0.509583
O14   O     O_R   0.419940 0.833680 0.459580 -0.555697
O15   O     O_R   0.419940 0.166320 0.459580 -0.550494
O16   O     O_R   0.919940 0.333680 0.459580 -0.554467
O17   O     O_R   0.919940 0.666320 0.459580 -0.550252
O18   O     O_R   0.472710 0.000000 0.737340 -0.512948
O19   O     O_R   0.972710 0.500000 0.737340 -0.514991
O20   O     O_3   0.750688 0.122993 0.519032 -0.530055
O21   O     O_3   0.721504 0.827299 0.617289 -0.542762
O22   O     O_3   0.250641 0.622519 0.518978 -0.531095
O23   O     O_R   0.566980 0.833700 0.422750 -0.552492
O24   O     O_3   0.221845 0.330442 0.618391 -0.545274
O25   O     O_3   0.292005 0.814258 0.374718 -0.570368
O26   O     O_3   0.252198 0.112923 0.541031 -0.568334
O27   O     O_3   0.790654 0.316390 0.376580 -0.566523
O28   O     O_3   0.753417 0.613319 0.521268 -0.566893
O29   O     O_3   0.659801 0.296269 0.400180 -0.573112
O30   O     O_3   0.662817 0.704938 0.400165 -0.589314
O31   O     O_3   0.161271 0.795558 0.397019 -0.576366
O32   O     O_3   0.161575 0.201431 0.408329 -0.588086
O33   O     O_3   0.319973 0.731765 0.631837 -0.577820
O34   O     O_R   0.566980 0.166300 0.422750 -0.548615
O35   O     O_3   0.338758 0.309567 0.519904 -0.595705
O36   O     O_3   0.821063 0.230725 0.631653 -0.576393
O37   O     O_3   0.840024 0.810424 0.528245 -0.591700
O38   O     O_3   0.427038 0.964283 0.903827 -0.517349
O39   O     O_3   0.926850 0.467487 0.904086 -0.517104
O40   O     O_3   0.602010 0.989409 0.926219 -0.614899
O41   O     O_3   0.102105 0.488483 0.926038 -0.615559
O42   O     O_3   0.408560 0.053357 0.075239 -0.533850
O43   O     O_3   0.908286 0.553931 0.075939 -0.533905
O44   O     O_R   0.066980 0.333700 0.422750 -0.548740
O45   O     O_R   0.066980 0.666300 0.422750 -0.556169
O46   O     O_R   0.380760 0.097200 0.590320 -0.528084
O47   O     O_R   0.380760 0.902800 0.590320 -0.558219
O48   O     O_R   0.880760 0.597200 0.590320 -0.534166
Zn1   Zn    Zn3+2 0.434690 0.000000 0.602700 0.943778
Zn2   Zn    Zn3+2 0.934690 0.500000 0.602700 0.943107
Zn3   Zn    Zn3+2 0.584000 0.000000 0.565300 0.952622
Zn4   Zn    Zn3+2 0.084000 0.500000 0.565300 0.953367
Zn5   Zn    Zn3+2 0.490640 0.098690 0.416020 0.934095
Zn6   Zn    Zn3+2 0.490640 0.901310 0.416020 0.899387
Zn7   Zn    Zn3+2 0.990640 0.598690 0.416020 0.933518
Zn8   Zn    Zn3+2 0.990640 0.401310 0.416020 0.908396

loop_
_geom_bond_atom_site_label_1
_geom_bond_atom_site_label_2
_ccdc_geom_bond_type
C38   O22   S    
C87   C88   S    
O12   Zn7   S    
C1    C21   S    
C84   H19   S    
C71   H127  S    
C58   O29   S    
C89   O38   S    
C41   C42   S    
C5    O17   A    
C63   H111  S    
C92   H39   S    
C10   O8    A    
O46   Zn1   S    
C67   C89   D    
C74   H136  S    
C93   H42   S    
O3    Zn3   S    
C61   H105  S    
C81   C82   S    
C62   H107  S    
C41   H58   S    
C35   H2    S    
C59   H99   S    
C15   C19   D    
C54   H89   S    
C18   C25   S    
C49   H76   S    
C44   H67   S    
C70   H124  S    
C63   H109  S    
C80   H10   S    
C50   H79   S    
C69   H123  S    
C94   H44   S    
C36   C37   S    
C92   H38   S    
C43   H65   S    
C64   O31   S    
C74   H135  S    
C20   O29   S    
C73   H132  S    
C47   H71   S    
O8    Zn8   S    
C91   H37   S    
C20   C25   D    
C75   H138  S    
C86   H26   S    
C33   H108  S    
C81   O37   S    
C7    C67   S    
C46   C47   S    
C55   H92   S    
C68   H121  S    
C19   C26   S    
C14   C18   D    
C52   H83   S    
C4    O14   A    
C57   H94   S    
C6    O2    A    
C81   H12   S    
C74   O35   S    
O12   Zn8   S    
C7    O3    A    
C68   C69   S    
O45   Zn7   S    
C37   H46   S    
O2    Zn2   S    
C39   H54   S    
C9    O5    A    
O1    Zn5   S    
C23   C24   S    
O12   Zn2   S    
C76   H139  S    
C82   H14   S    
C66   H116  S    
C68   H120  S    
C27   O22   S    
C65   H115  S    
O4    Zn4   S    
O19   Zn2   S    
C9    C29   S    
O16   Zn8   S    
C16   C27   S    
C55   H91   S    
C57   H95   S    
C59   C60   S    
C71   H128  S    
C8    C78   S    
C94   H45   S    
C17   C28   S    
C69   C70   S    
C10   O7    A    
C87   H27   S    
C78   O41   S    
C34   O11   A    
C88   H29   S    
C15   O37   S    
C53   H85   S    
C23   O44   A    
C44   C46   S    
O1    Zn6   S    
C41   H59   S    
C77   C79   S    
C59   H100  S    
C22   C34   S    
C64   H113  S    
C81   H11   S    
C5    C15   S    
C37   H48   S    
C84   O38   S    
C80   H9    S    
O14   Zn6   S    
C51   C52   S    
C54   O28   S    
C82   H15   S    
C3    O15   A    
C79   H6    S    
C85   H21   S    
C35   H13   S    
C84   C85   S    
C18   O27   S    
C33   H119  S    
C74   C75   S    
O18   Zn1   S    
C46   H68   S    
C39   C40   S    
C91   H36   S    
C47   H72   S    
C6    O16   A    
C34   O45   A    
C31   H75   S    
C93   H41   S    
C76   H3    S    
C85   C86   S    
C72   H129  S    
C64   H112  S    
C91   O40   S    
O23   Zn6   S    
O1    Zn1   S    
C5    O48   A    
C32   H97   S    
C71   O33   S    
C17   O26   S    
C35   C36   S    
O13   Zn4   S    
C51   H81   S    
C75   C76   S    
C12   O34   A    
C38   H51   S    
C49   H77   S    
C62   C63   S    
C2    C78   D    
C1    O10   A    
C13   O35   S    
C91   H34   S    
C6    C14   S    
C29   O42   S    
C51   O27   S    
C11   C16   D    
C10   C30   S    
C21   O30   S    
C31   C32   S    
C48   H74   S    
C8    O19   A    
C31   H64   S    
C90   H33   S    
C12   O9    A    
C4    C11   S    
C12   C20   S    
C9    O6    A    
C4    O47   A    
C90   H32   S    
C83   H16   S    
C40   H56   S    
C77   H4    S    
C51   H82   S    
C92   O41   S    
C75   H137  S    
C66   H117  S    
C44   O25   S    
C86   H25   S    
C94   O43   S    
C60   H103  S    
O9    Zn3   S    
C69   H122  S    
C47   H70   S    
C65   H114  S    
C48   C49   S    
C42   H60   S    
C88   C90   S    
C88   H30   S    
C28   O24   S    
C46   H69   S    
C55   C57   S    
O34   Zn5   S    
C58   H98   S    
C22   C27   D    
C44   H66   S    
C54   H90   S    
O12   Zn4   S    
C42   C43   S    
C66   H118  S    
C43   H62   S    
C45   H1    S    
C26   O21   S    
C45   C89   S    
C52   C53   S    
C60   H102  S    
C73   H133  S    
C32   H86   S    
C16   O25   S    
O5    Zn5   S    
C54   C55   S    
C48   O26   S    
C30   O43   S    
C84   H20   S    
C37   H49   S    
C31   O20   S    
C24   O32   S    
O11   Zn4   S    
C77   O36   S    
C94   H47   S    
C38   H50   S    
C85   H22   S    
C92   H40   S    
C58   H96   S    
C24   C28   D    
C61   O30   S    
C72   C73   S    
C43   H63   S    
C3    C13   S    
C61   H104  S    
C73   H134  S    
C50   H78   S    
C25   O20   S    
C14   O36   S    
C80   H8    S    
C53   H87   S    
C1    O23   A    
C8    O4    A    
O47   Zn1   S    
O6    Zn6   S    
O48   Zn2   S    
C70   H125  S    
C93   O42   S    
C13   C17   D    
C7    O18   A    
C72   H131  S    
C64   C65   S    
C56   H53   S    
C42   H61   S    
C58   C59   S    
C62   H106  S    
C71   C72   S    
C2    C56   S    
C53   H88   S    
C32   C33   S    
C19   O28   S    
C22   O31   S    
C3    O46   A    
C38   C39   S    
C48   H73   S    
C30   C56   D    
C67   O40   S    
O17   Zn7   S    
C21   C26   D    
C39   H52   S    
C60   H101  S    
O1    Zn3   S    
C90   H31   S    
C40   H55   S    
C77   H5    S    
C86   H23   S    
C83   H17   S    
C65   C66   S    
C23   O13   A    
C61   C62   S    
C70   H126  S    
C57   H93   S    
C87   H28   S    
C93   H43   S    
O7    Zn7   S    
C79   C80   S    
C33   H130  S    
O10   Zn3   S    
C40   H57   S    
C63   H110  S    
C49   C50   S    
O15   Zn5   S    
C29   C45   D    
C68   O32   S    
C35   O21   S    
C11   O33   S    
C83   H18   S    
C79   H7    S    
C76   H140  S    
C50   H80   S    
C87   O39   S    
C82   C83   S    
C52   H84   S    
C36   H35   S    
C41   O24   S    
C36   H24   S    
O44   Zn8   S    
C2    O39   S    
