data_mof_unit_9291.cif
_audit_creation_date              2012-12-10T17:01:37-0500
_audit_creation_method            fapswitch 2.2
_symmetry_space_group_name_H-M    P1
_symmetry_Int_Tables_number       1
_space_group_crystal_system       triclinic
_cell_length_a                    10.032505
_cell_length_b                    11.037714
_cell_length_c                    13.004253
_cell_angle_alpha                 88.219776
_cell_angle_beta                  75.567727
_cell_angle_gamma                 112.44659
_cell_volume                      1276.05229064

loop_
_atom_site_label
_atom_site_type_symbol
_atom_type_description
_atom_site_fract_x
_atom_site_fract_y
_atom_site_fract_z
_atom_type_partial_charge
C1    C     C_R   0.437171 0.252444 0.509540 0.836346
C2    C     C_R   0.564445 0.747983 0.488375 0.847658
C3    C     C_2   0.086661 0.521240 0.496029 0.359208
C4    C     C_2   0.921192 0.504820 0.520352 0.357237
C5    C     C_R   0.473398 0.494397 0.702496 0.881780
C6    C     C_R   0.527538 0.505875 0.297402 0.840226
C7    C     C_R   0.546409 0.512860 0.181783 -0.204675
C8    C     C_R   0.460236 0.473534 0.816870 -0.147796
C9    C     C_R   0.378905 0.318236 0.979848 0.205833
C10   C     C_R   0.686426 0.629026 0.002399 0.164499
C11   C     C_R   0.371232 0.346618 0.875981 0.020413
C12   C     C_R   0.665455 0.621379 0.112727 0.096186
C13   C     C_R   0.561302 0.571641 0.859672 0.209279
C14   C     C_R   0.448492 0.410661 0.139708 0.215777
C15   C     C_R   0.573832 0.540643 0.961957 -0.088659
C16   C     C_R   0.467094 0.421132 0.027699 -0.030913
C17   C     C_2   0.398805 0.108744 0.528805 0.099202
C18   C     C_2   0.610630 0.893502 0.470243 0.107912
C19   C     C_2   0.500188 0.062158 0.477551 0.013056
C20   C     C_2   0.515971 0.944125 0.524868 -0.002809
Cu1   Cu    Cu3+1 0.647370 0.522180 0.481340 0.960851
Cu2   Cu    Cu3+1 0.352630 0.477820 0.518660 0.992061
N1    N     N_2   0.131210 0.444490 0.546730 -0.095619
N2    N     N_2   0.868790 0.555510 0.453270 -0.108914
O1    O     O_R   0.578710 0.332530 0.490040 -0.578190
O2    O     O_R   0.421290 0.667470 0.509960 -0.541639
O3    O     O_R   0.329810 0.295070 0.521560 -0.567407
O4    O     O_R   0.670190 0.704930 0.478440 -0.593871
O5    O     O_R   0.604230 0.515670 0.637800 -0.569733
O6    O     O_R   0.395770 0.484330 0.362200 -0.582911
O7    O     O_R   0.355330 0.478200 0.669330 -0.548664
O8    O     O_R   0.644670 0.521800 0.330670 -0.561786
N3    N     N_2   0.319710 0.307634 0.210482 -0.390819
H1    H     H_    0.334213 0.273422 0.279811 0.262229
C21   C     C_3   0.183095 0.329467 0.226874 -0.630514
H2    H     H_    0.086045 0.241489 0.275070 0.225457
H3    H     H_    0.161642 0.346951 0.149149 0.246535
H4    H     H_    0.191919 0.416033 0.269673 0.221075
N4    N     N_2   0.614993 0.707371 0.814746 -0.408834
H5    H     H_    0.615612 0.773192 0.869460 0.292729
C22   C     C_3   0.740431 0.759090 0.718585 -0.573213
H6    H     H_    0.822300 0.856804 0.727661 0.227061
H7    H     H_    0.699725 0.775945 0.650729 0.235756
H8    H     H_    0.799098 0.691598 0.700698 0.245876
I1    I     I_    0.797110 0.790101 0.172866 -0.253268
I2    I     I_    0.220466 0.197459 0.809758 -0.258155
I3    I     I_    0.285931 0.113490 0.050611 -0.188047
I4    I     I_    0.908722 0.745300 0.901237 -0.283377
I5    I     I_    0.467537 0.898498 0.695473 -0.374790
I6    I     I_    0.591759 0.135117 0.308197 -0.391353
N5    N     N_2   0.756715 0.979960 0.401714 -0.387098
H9    H     H_    0.781977 0.078897 0.405506 0.274758
C23   C     C_3   0.885175 0.951690 0.406005 -0.628736
H10   H     H_    0.991034 0.037608 0.365978 0.214167
H11   H     H_    0.889515 0.868684 0.362222 0.273438
H12   H     H_    0.882084 0.929697 0.490413 0.205941
N6    N     N_2   0.258956 0.024607 0.603812 -0.381577
H13   H     H_    0.249715 0.934713 0.635013 0.300508
C24   C     C_3   0.125885 0.009227 0.572374 -0.676798
H14   H     H_    0.050494 0.902713 0.582735 0.201810
H15   H     H_    0.153956 0.049103 0.486696 0.222184
H16   H     H_    0.064287 0.058773 0.625192 0.267306
N7    N     N_2   0.830690 0.455993 0.628903 -0.419015
H17   H     H_    0.886840 0.490396 0.685514 0.239596
C25   C     C_3   0.728016 0.317061 0.656211 -0.479023
H18   H     H_    0.761355 0.265485 0.713435 0.221297
H19   H     H_    0.724289 0.265323 0.584824 0.229027
H20   H     H_    0.612921 0.307191 0.697329 0.225220
N8    N     N_2   0.200338 0.631964 0.422564 -0.388840
H21   H     H_    0.216159 0.620418 0.342770 0.264213
C26   C     C_3   0.207662 0.760988 0.446349 -0.631441
H22   H     H_    0.111138 0.778479 0.433319 0.215893
H23   H     H_    0.312289 0.838263 0.392834 0.258739
H24   H     H_    0.208833 0.769420 0.530782 0.235635
N9    N     N_2   0.953846 0.592945 0.347372 -0.372327
H25   H     H_    0.937859 0.667911 0.310291 0.291367
C27   C     C_3   0.942398 0.485352 0.284307 -0.567067
H26   H     H_    0.038981 0.520409 0.210828 0.209531
H27   H     H_    0.838383 0.451356 0.258893 0.270973
H28   H     H_    0.943405 0.399999 0.330166 0.193708
N10   N     N_2   0.027181 0.320607 0.595325 -0.344428
H29   H     H_    0.061091 0.282514 0.652419 0.301260
C28   C     C_3   0.985712 0.229664 0.519966 -0.715569
H30   H     H_    0.901639 0.132118 0.564441 0.229828
H31   H     H_    0.086234 0.220208 0.468707 0.251619
H32   H     H_    0.934406 0.265757 0.466897 0.205611

loop_
_geom_bond_atom_site_label_1
_geom_bond_atom_site_label_2
_ccdc_geom_bond_type
C6    O8    A    
N7    C25   S    
C8    C13   A    
C2    C18   S    
C22   H6    S    
C3    N1    D    
C21   H2    S    
C14   N3    S    
N10   H29   S    
N4    C22   S    
C23   H10   S    
C4    N7    S    
C21   H3    S    
C9    C16   A    
C10   C15   A    
C4    N2    D    
N6    C24   S    
C15   C16   A    
N8    C26   S    
C17   C19   D    
C7    C14   A    
C19   C20   S    
C25   H19   S    
N1    N10   S    
C23   H11   S    
C24   H14   S    
Cu1   Cu2   S    
C1    O1    A    
C22   H7    S    
N10   C28   S    
C18   N5    S    
C5    O5    A    
C27   H27   S    
C7    C12   A    
Cu1   O8    S    
C24   H15   S    
Cu2   O7    S    
N5    H9    S    
C21   H4    S    
N4    H5    S    
C26   H23   S    
C27   H26   S    
Cu1   O5    S    
C6    O6    A    
N5    C23   S    
N9    H25   S    
C20   I5    S    
C5    C8    S    
N9    C27   S    
C28   H30   S    
C25   H20   S    
N3    H1    S    
C2    O2    A    
C9    C11   A    
C10   C12   A    
C28   H31   S    
Cu1   O4    S    
C9    I3    S    
Cu2   O3    S    
C13   C15   A    
C10   I4    S    
C22   H8    S    
C14   C16   A    
C3    C4    S    
C23   H12   S    
Cu1   O1    S    
C24   H16   S    
Cu2   O6    S    
C3    N8    S    
C12   I1    S    
C26   H24   S    
N2    N9    S    
C6    C7    S    
C1    C17   S    
C26   H22   S    
C27   H28   S    
C19   I6    S    
N6    H13   S    
C8    C11   A    
N3    C21   S    
C18   C20   D    
N8    H21   S    
C13   N4    S    
N7    H17   S    
C28   H32   S    
C25   H18   S    
Cu2   O2    S    
Cu1   N2    S    
C1    O3    A    
Cu2   N1    S    
C11   I2    S    
C2    O4    A    
C17   N6    S    
C5    O7    A    
