data_mof_unit_61369.cif
_audit_creation_date              2013-03-05T16:29:05-0500
_audit_creation_method            fapswitch 2.2
_symmetry_space_group_name_H-M    P1
_symmetry_Int_Tables_number       1
_space_group_crystal_system       triclinic
_cell_length_a                    19.389715
_cell_length_b                    18.243235
_cell_length_c                    27.76867
_cell_angle_alpha                 89.940015
_cell_angle_beta                  92.613954
_cell_angle_gamma                 89.775418
_cell_volume                      9812.33964285

loop_
_atom_site_label
_atom_site_type_symbol
_atom_site_description
_atom_site_fract_x
_atom_site_fract_y
_atom_site_fract_z
_atom_type_partial_charge
O1    O     O_R   0.400190 0.561980 0.499990 -0.528763
O2    O     O_R   0.599810 0.438020 0.500010 -0.533873
O3    O     O_R   0.599810 0.561980 0.500010 -0.557780
O4    O     O_R   0.400190 0.438020 0.499990 -0.560920
C1    C     C_R   0.367859 0.500128 0.500227 0.910293
C2    C     C_R   0.632160 0.499886 0.499962 0.906685
O5    O     O_R   0.500010 0.561950 0.430270 -0.584537
O6    O     O_R   0.499990 0.438050 0.569730 -0.606288
O7    O     O_R   0.499990 0.561950 0.569730 -0.586982
O8    O     O_R   0.500010 0.438050 0.430270 -0.611757
C3    C     C_R   0.500846 0.500191 0.407307 0.812280
C4    C     C_R   0.498663 0.500056 0.592536 0.814434
Cu1   Cu    Cu3+1 0.500000 0.573360 0.500000 1.020033
Cu2   Cu    Cu3+1 0.500000 0.426640 0.500000 0.997454
C5    C     C_R   0.437410 0.499238 0.175285 0.608750
C6    C     C_R   0.557574 0.515553 0.824150 0.608552
O9    O     O_2   0.378175 0.506918 0.198513 -0.499773
O10   O     O_2   0.613808 0.536793 0.800938 -0.499742
N1    N     N_R   0.498694 0.490849 0.201136 -0.459155
N2    N     N_R   0.499654 0.493373 0.798293 -0.459473
C7    C     C_R   0.559797 0.483580 0.178821 0.599278
C8    C     C_R   0.441475 0.472220 0.820583 0.599635
C9    C     C_R   0.482269 0.430908 0.279392 0.221537
C10   C     C_R   0.529204 0.437519 0.721045 0.220241
C11   C     C_R   0.483132 0.434631 0.329570 -0.245176
C12   C     C_R   0.528353 0.440294 0.670832 -0.232958
C13   C     C_R   0.519283 0.562190 0.326779 0.147512
C14   C     C_R   0.466181 0.556429 0.671525 0.137892
C15   C     C_R   0.517818 0.557913 0.276548 -0.149460
C16   C     C_R   0.467613 0.553413 0.721796 -0.146119
C17   C     C_R   0.499332 0.492982 0.252750 0.249533
C18   C     C_R   0.499118 0.494625 0.746669 0.249714
C19   C     C_R   0.498460 0.494143 0.101077 -0.055980
C20   C     C_R   0.498970 0.495871 0.898327 -0.055805
C21   C     C_R   0.436032 0.500384 0.124701 -0.108986
C22   C     C_R   0.558569 0.516594 0.874719 -0.108773
C23   C     C_R   0.374218 0.510962 0.097509 -0.118861
C24   C     C_R   0.616626 0.540795 0.901904 -0.118443
C25   C     C_R   0.560896 0.485387 0.128312 -0.046008
C26   C     C_R   0.439916 0.473332 0.871085 -0.046221
C27   C     C_R   0.501202 0.499863 0.354048 -0.122533
C28   C     C_R   0.497602 0.499639 0.645521 -0.120522
H1    H     H_    0.531596 0.605345 0.255612 0.175008
H2    H     H_    0.443568 0.596721 0.741833 0.175290
H3    H     H_    0.326379 0.520823 0.115193 0.216930
H4    H     H_    0.661217 0.561646 0.884219 0.217062
C29   C     C_R   0.436294 0.484077 0.972537 0.016310
C30   C     C_R   0.561897 0.498199 0.026858 0.016325
C31   C     C_R   0.560288 0.512762 0.976508 -0.041601
C32   C     C_R   0.434892 0.497744 0.022892 -0.041500
C33   C     C_R   0.498478 0.497641 0.949174 -0.030245
C34   C     C_R   0.498433 0.496735 0.050224 -0.030250
C35   C     C_R   0.379474 0.454162 0.945243 0.397505
C36   C     C_R   0.623687 0.481594 0.054148 0.397612
C37   C     C_R   0.381421 0.450716 0.894752 -0.232976
C38   C     C_R   0.622648 0.477027 0.104642 -0.233137
O11   O     O_2   0.385379 0.450351 0.793911 -0.499797
O12   O     O_2   0.619227 0.474950 0.205485 -0.501697
C39   C     C_R   0.373244 0.512767 0.047264 0.469722
C40   C     C_R   0.617221 0.542018 0.952141 0.469713
H5    H     H_    0.552326 0.396067 0.651588 0.187684
H6    H     H_    0.469312 0.386097 0.349383 0.187961
H7    H     H_    0.337221 0.429367 0.874087 0.195437
H8    H     H_    0.670321 0.466075 0.125312 0.195243
C41   C     C_R   0.745372 0.464566 0.537262 0.268028
C42   C     C_R   0.254002 0.535911 0.464205 0.266587
C43   C     C_R   0.258911 0.465994 0.539947 0.242102
C44   C     C_R   0.741997 0.534073 0.461376 0.238611
C45   C     C_R   0.818342 0.467089 0.538937 0.313028
C46   C     C_R   0.181057 0.533512 0.463293 0.312312
C47   C     C_R   0.186134 0.466043 0.539548 0.405526
C48   C     C_R   0.814801 0.534150 0.462547 0.403938
C49   C     C_R   0.852073 0.500221 0.501019 0.060187
C50   C     C_R   0.148114 0.500171 0.501497 0.060347
C51   C     C_R   0.707645 0.499638 0.499309 -0.237572
C52   C     C_R   0.292458 0.500452 0.501645 -0.234292
C53   C     C_R   0.964209 0.564729 0.513458 0.278534
C54   C     C_R   0.036016 0.435393 0.489775 0.277934
C55   C     C_R   0.037258 0.564256 0.514301 0.284405
C56   C     C_R   0.962970 0.435859 0.488936 0.283730
C57   C     C_R   0.072134 0.500163 0.501185 0.082396
C58   C     C_R   0.928082 0.500000 0.501945 0.082734
C59   C     C_R   0.446416 0.722712 0.477383 0.424503
C60   C     C_R   0.553556 0.277234 0.522626 0.405128
C61   C     C_R   0.553646 0.722148 0.522622 0.432598
C62   C     C_R   0.446365 0.277853 0.477334 0.416242
C63   C     C_R   0.444538 0.800642 0.478601 0.298306
C64   C     C_R   0.555430 0.199289 0.521361 0.294289
C65   C     C_R   0.555578 0.800083 0.521357 0.297482
C66   C     C_R   0.444441 0.199902 0.478546 0.295375
C67   C     C_R   0.500068 0.839316 0.499969 -0.058257
C68   C     C_R   0.499919 0.160633 0.499947 -0.057618
N3    N     N_R   0.500000 0.683620 0.500000 -0.287411
N4    N     N_R   0.500000 0.316380 0.500000 -0.291190
C69   C     C_R   0.472809 0.961124 0.538672 0.135386
C70   C     C_R   0.527113 0.038800 0.461221 0.132457
C71   C     C_R   0.527209 0.961052 0.461246 0.138137
C72   C     C_R   0.472754 0.038874 0.538662 0.134482
C73   C     C_R   0.499904 0.078098 0.499935 0.086161
C74   C     C_R   0.500054 0.921837 0.499969 0.082354
I1    I     I_    0.552933 0.664521 0.356137 -0.215390
I2    I     I_    0.410846 0.645934 0.638941 -0.232596
O13   O     O_3   0.858218 0.439631 0.577407 -0.675732
H9    H     H_    0.831397 0.442266 0.606851 0.351600
O14   O     O_3   0.140432 0.561251 0.425278 -0.675860
H10   H     H_    0.166667 0.558949 0.395546 0.351531
O15   O     O_3   0.150129 0.434223 0.576036 -0.670312
H11   H     H_    0.182578 0.411372 0.600202 0.395346
O16   O     O_3   0.851563 0.565862 0.426406 -0.670865
H12   H     H_    0.819584 0.588556 0.401879 0.395792
O17   O     O_3   0.926563 0.627201 0.522777 -0.677249
H13   H     H_    0.953381 0.670656 0.513481 0.359843
O18   O     O_3   0.073656 0.372939 0.480401 -0.678060
H14   H     H_    0.046900 0.329481 0.489776 0.359725
O19   O     O_3   0.076176 0.624161 0.529044 -0.676968
H15   H     H_    0.049840 0.653222 0.552106 0.352525
O20   O     O_3   0.924060 0.375962 0.474164 -0.679308
H16   H     H_    0.950435 0.346861 0.451145 0.352268
O21   O     O_3   0.393010 0.687802 0.452850 -0.686269
H17   H     H_    0.412963 0.647025 0.434965 0.389199
O22   O     O_3   0.606969 0.312088 0.547189 -0.692173
H18   H     H_    0.587060 0.353038 0.564920 0.380545
O23   O     O_3   0.607172 0.686674 0.547082 -0.696483
H19   H     H_    0.587312 0.646200 0.565220 0.371772
O24   O     O_3   0.392800 0.313329 0.452912 -0.699999
H20   H     H_    0.412587 0.353928 0.434859 0.364204
O25   O     O_3   0.390252 0.840792 0.457820 -0.665361
H21   H     H_    0.353400 0.807541 0.445429 0.388972
O26   O     O_3   0.609698 0.159108 0.542141 -0.666009
H22   H     H_    0.646541 0.192338 0.554572 0.388706
O27   O     O_3   0.609900 0.839706 0.542092 -0.664805
H23   H     H_    0.646717 0.806098 0.554522 0.391131
O28   O     O_3   0.390141 0.160301 0.457757 -0.664745
H24   H     H_    0.353370 0.193917 0.445269 0.391039
I3    I     I_    0.431585 0.901415 0.597082 -0.139815
I4    I     I_    0.568191 0.098455 0.402746 -0.157843
I5    I     I_    0.568529 0.901269 0.402851 -0.128649
I6    I     I_    0.431519 0.098638 0.597095 -0.146331
I7    I     I_    0.575287 0.345692 0.756634 -0.189272
I8    I     I_    0.456227 0.330240 0.245397 -0.188161
O29   O     O_3   0.325191 0.423205 0.968542 -0.664477
H25   H     H_    0.290584 0.404161 0.944351 0.345145
O30   O     O_3   0.683096 0.464229 0.030849 -0.664418
H26   H     H_    0.720921 0.453188 0.055042 0.345104
O31   O     O_3   0.312951 0.536808 0.023987 -0.658427
H27   H     H_    0.324833 0.560953 0.993493 0.334496
O32   O     O_3   0.670986 0.578956 0.975409 -0.658355
H28   H     H_    0.654345 0.599230 0.005890 0.334489
O33   O     O_3   0.709486 0.429364 0.572323 -0.702419
H29   H     H_    0.737710 0.387779 0.585166 0.362463
O34   O     O_3   0.289148 0.571382 0.428879 -0.696929
H30   H     H_    0.260772 0.613213 0.416567 0.363555
O35   O     O_3   0.294998 0.433477 0.578549 -0.686701
H31   H     H_    0.343336 0.450660 0.580348 0.333999
O36   O     O_3   0.706682 0.566417 0.422394 -0.681578
H32   H     H_    0.658389 0.549158 0.420146 0.335620

loop_
_geom_bond_atom_site_label_1
_geom_bond_atom_site_label_2
_geom_bond_distance
_ccdc_geom_bond_type
C59   C63   1.422513 A    
C47   O15   1.384715 S    
C13   C15   1.396114 A    
O32   H28   0.990940 S    
C44   O36   1.384450 S    
N1    C17   1.433303 S    
C8    O11   1.349558 S    
C63   O25   1.383864 S    
O31   H27   0.990938 S    
C69   C72   1.418413 A    
C2    C51   1.464558 S    
C70   I4    2.139279 S    
C42   C46   1.414302 A    
C44   C51   1.419063 A    
C5    N1    1.367956 A    
C20   C33   1.412817 A    
C19   C25   1.406343 A    
C31   C40   1.425956 A    
C72   I6    2.139163 S    
O1    C1    1.293130 A    
C32   C39   1.426033 A    
N1    C7    1.367900 A    
C12   H5    1.083152 S    
C10   C12   1.394554 A    
O26   H22   0.989119 S    
C55   O19   1.382242 S    
C54   C56   1.415458 A    
C59   O21   1.372515 S    
O19   H15   0.990139 S    
C59   N3    1.384277 A    
C70   C73   1.413653 A    
C71   I5    2.139213 S    
C53   O17   1.382026 S    
O7    Cu1   1.947255 S    
C4    C28   1.472427 S    
C62   N4    1.385157 A    
C56   O20   1.382276 S    
C61   N3    1.384806 A    
C64   C68   1.399239 A    
C31   C33   1.417263 A    
C37   H7    1.083388 S    
C46   C50   1.402478 A    
C32   C34   1.417342 A    
O15   H11   0.989338 S    
C38   H8    1.083389 S    
C45   C49   1.402270 A    
C40   O32   1.379619 S    
C67   C74   1.505449 S    
C65   C67   1.399371 A    
C35   O29   1.382517 S    
C20   C22   1.407160 A    
O3    Cu1   1.945569 S    
C6    N2    1.367909 A    
C29   C35   1.419693 A    
O3    C2    1.292755 A    
C53   C55   1.415527 A    
C36   O30   1.382525 S    
O34   H30   0.990451 S    
C42   C52   1.406932 A    
Cu1   Cu2   2.676646 S    
C15   H1    1.083079 S    
C62   O24   1.373703 S    
O4    Cu2   1.945569 S    
C16   H2    1.082979 S    
O2    C2    1.293401 A    
C64   O26   1.383899 S    
C5    C21   1.403826 A    
O5    C3    1.295592 A    
C29   C32   1.422061 A    
C35   C37   1.405739 A    
C10   I7    2.117939 S    
C36   C38   1.405602 A    
C63   C67   1.399183 A    
C42   O34   1.381501 S    
C9    I8    2.118079 S    
O23   H19   0.982999 S    
C56   C58   1.405095 A    
O8    Cu2   1.947258 S    
C11   C27   1.408622 A    
C55   C57   1.405080 A    
C66   O28   1.383875 S    
C61   C65   1.422869 A    
C69   C74   1.413571 A    
O4    C1    1.292933 A    
C29   C33   1.417480 A    
C60   O22   1.372520 S    
C13   I1    2.130656 S    
Cu1   N3    2.011499 S    
C19   C34   1.412819 A    
C9    C17   1.400953 A    
C30   C36   1.419621 A    
C10   C18   1.402377 A    
C13   C27   1.419400 A    
C66   C68   1.399392 A    
C25   C38   1.399826 A    
C7    C25   1.404072 A    
C30   C34   1.417407 A    
C44   C48   1.410546 A    
C26   C37   1.399870 A    
C8    C26   1.404250 A    
C70   C71   1.418367 A    
C69   I3    2.139536 S    
C60   N4    1.384505 A    
O22   H18   0.982522 S    
C23   C39   1.394867 A    
C24   C40   1.394725 A    
C39   O31   1.379609 S    
C30   C31   1.421808 A    
N2    C8    1.367919 A    
C62   C66   1.423110 A    
O28   H24   0.989079 S    
C20   C26   1.406334 A    
C54   O18   1.382019 S    
O1    Cu1   1.947187 S    
C50   C57   1.472863 S    
C23   H3    1.083668 S    
O25   H21   0.989118 S    
C49   C58   1.472843 S    
O36   H32   0.988366 S    
C71   C74   1.413601 A    
C12   C28   1.405973 A    
O18   H14   0.990242 S    
N2    C18   1.433237 S    
C5    O9    1.349564 S    
C48   O16   1.384644 S    
O6    Cu2   1.947688 S    
O17   H13   0.990235 S    
C21   C23   1.399729 A    
C45   O13   1.382170 S    
C60   C64   1.422790 A    
C48   C49   1.404058 A    
C46   O14   1.382320 S    
C65   O27   1.383837 S    
C47   C50   1.404114 A    
O21   H17   0.982721 S    
O14   H10   0.990154 S    
O20   H16   0.990123 S    
C41   C51   1.407046 A    
C43   O35   1.384757 S    
C1    C52   1.464311 S    
C14   C16   1.395969 A    
O30   H26   0.991671 S    
C7    O12   1.349584 S    
C15   C17   1.397042 A    
O33   H29   0.990250 S    
C6    C22   1.403642 A    
C22   C24   1.399677 A    
C16   C18   1.398317 A    
C54   C57   1.405029 A    
O24   H20   0.982870 S    
C53   C58   1.405058 A    
C41   C45   1.414437 A    
C14   C28   1.415167 A    
C19   C21   1.407132 A    
C61   O23   1.373615 S    
C43   C47   1.410661 A    
C11   H6    1.082943 S    
C9    C11   1.394440 A    
C41   O33   1.381491 S    
O27   H23   0.989086 S    
O2    Cu2   1.947188 S    
O7    C4    1.294951 A    
C24   H4    1.083666 S    
O8    C3    1.300618 A    
C14   I2    2.128560 S    
O5    Cu1   1.947691 S    
C6    O10   1.349586 S    
C72   C73   1.413723 A    
C3    C27   1.479294 S    
O16   H12   0.989260 S    
O13   H9    0.989931 S    
C43   C52   1.419301 A    
O35   H31   0.988569 S    
O29   H25   0.991669 S    
Cu2   N4    2.011499 S    
O6    C4    1.297727 A    
C68   C73   1.505712 S    
