data_mof_unit_13992.cif
_audit_creation_date              2012-12-10T16:52:05-0500
_audit_creation_method            fapswitch 2.2
_symmetry_space_group_name_H-M    P1
_symmetry_Int_Tables_number       1
_space_group_crystal_system       triclinic
_cell_length_a                    7.854882
_cell_length_b                    8.75916
_cell_length_c                    14.983045
_cell_angle_alpha                 91.950856
_cell_angle_beta                  85.067852
_cell_angle_gamma                 92.818545
_cell_volume                      1025.34592087

loop_
_atom_site_label
_atom_site_type_symbol
_atom_type_description
_atom_site_fract_x
_atom_site_fract_y
_atom_site_fract_z
_atom_type_partial_charge
C1    C     C_R   0.545056 0.794252 0.496866 0.861098
C2    C     C_R   0.455356 0.205925 0.505061 0.863815
C3    C     C_R   0.735484 0.700378 0.946385 -0.023451
C4    C     C_R   0.245895 0.328651 0.054761 0.023263
C5    C     C_2   0.565900 0.956910 0.484650 0.198763
C6    C     C_2   0.436645 0.043662 0.519933 0.206967
C7    C     C_R   0.499965 0.497046 0.672569 0.970051
C8    C     C_R   0.499720 0.502069 0.327345 0.966440
C9    C     C_R   0.389966 0.402490 0.189206 0.458518
C10   C     C_R   0.604443 0.609506 0.809334 0.433563
C11   C     C_R   0.499112 0.505020 0.231650 -0.330811
C12   C     C_R   0.499184 0.500943 0.768227 -0.305582
C13   C     C_R   0.604116 0.612579 0.184204 0.440192
C14   C     C_R   0.383897 0.404162 0.817557 0.399589
C15   C     C_R   0.609158 0.611957 0.090422 -0.139026
C16   C     C_R   0.368341 0.419403 0.911003 -0.115691
C17   C     C_R   0.491154 0.513814 0.047042 -0.138727
C18   C     C_R   0.489641 0.515299 0.953647 -0.109447
C19   C     C_R   0.374570 0.413833 0.097266 -0.040495
C20   C     C_R   0.611643 0.609482 0.902597 -0.086760
C21   C     C_R   0.726366 0.709248 0.039859 0.561340
C22   C     C_R   0.238265 0.336562 0.962454 0.487812
N1    N     N_2   0.950330 0.457950 0.475660 0.175463
N2    N     N_2   0.049670 0.542050 0.524340 0.177583
O1    O     O_R   0.389250 0.738570 0.505970 -0.619384
O2    O     O_R   0.610750 0.261430 0.494030 -0.614611
O3    O     O_R   0.678390 0.711620 0.490370 -0.594112
O4    O     O_R   0.321610 0.288380 0.509630 -0.598360
O5    O     O_R   0.355420 0.513510 0.639950 -0.662143
O6    O     O_R   0.644580 0.486490 0.360050 -0.663472
O7    O     O_R   0.644560 0.486560 0.624350 -0.568724
O8    O     O_R   0.355440 0.513440 0.375650 -0.564123
Zn1   Zn    Zn3+2 0.306940 0.517990 0.510420 1.037743
Zn2   Zn    Zn3+2 0.693060 0.482010 0.489580 1.038649
O9    O     O_3   0.293971 0.295275 0.239673 -0.578570
C23   C     C_3   0.390022 0.164627 0.243270 -0.344199
H1    H     H_    0.505373 0.189687 0.280388 0.155768
H2    H     H_    0.427240 0.117647 0.174788 0.150830
H3    H     H_    0.309477 0.075710 0.280012 0.189687
O10   O     O_3   0.698053 0.715613 0.756954 -0.615426
C24   C     C_3   0.596467 0.841390 0.747677 -0.366678
H4    H     H_    0.482660 0.808549 0.710785 0.182505
H5    H     H_    0.674194 0.928787 0.708246 0.185603
H6    H     H_    0.555819 0.894176 0.814167 0.150518
O11   O     O_3   0.692342 0.724961 0.230738 -0.559114
C25   C     C_3   0.581454 0.845567 0.251144 -0.266952
H7    H     H_    0.500164 0.867413 0.195940 0.124324
H8    H     H_    0.659909 0.951735 0.261931 0.216023
H9    H     H_    0.497449 0.822049 0.312917 0.153380
O12   O     O_3   0.289158 0.292551 0.773545 -0.577172
C26   C     C_3   0.375487 0.155033 0.772814 -0.237186
H10   H     H_    0.285296 0.058686 0.756983 0.216085
H11   H     H_    0.420917 0.130888 0.839140 0.135163
H12   H     H_    0.484833 0.157422 0.720540 0.140555
O13   O     O_3   0.842138 0.805607 0.081873 -0.545092
C27   C     C_3   0.803275 0.959703 0.070991 -0.287759
H13   H     H_    0.664739 0.976571 0.065444 0.114290
H14   H     H_    0.879227 0.007020 0.011579 0.198787
H15   H     H_    0.839783 0.027562 0.130689 0.176882
O14   O     O_3   0.108128 0.253685 0.923144 -0.595563
C28   C     C_3   0.977868 0.353370 0.908994 -0.266824
H16   H     H_    0.022170 0.437445 0.857154 0.181596
H17   H     H_    0.930453 0.414045 0.972074 0.139722
H18   H     H_    0.868090 0.284922 0.884135 0.174165
N3    N     N_3   0.880659 0.776047 0.898967 -0.424077
H19   H     H_    0.842380 0.869646 0.865731 0.225692
H20   H     H_    0.942345 0.698673 0.854190 0.193505
N4    N     N_3   0.120729 0.234338 0.105169 -0.402629
H21   H     H_    0.130136 0.121948 0.080192 0.211944
H22   H     H_    0.998972 0.271556 0.096688 0.177034
O15   O     O_3   0.690431 0.018077 0.421311 -0.678079
C29   C     C_3   0.850822 0.952285 0.421615 -0.242090
H23   H     H_    0.856401 0.848333 0.377173 0.229678
H24   H     H_    0.881840 0.927748 0.490406 0.185537
H25   H     H_    0.951965 0.032750 0.393354 0.167066
O16   O     O_3   0.314553 0.983502 0.584833 -0.677879
C30   C     C_3   0.154196 0.049782 0.585427 -0.261364
H26   H     H_    0.119846 0.069942 0.516724 0.185644
H27   H     H_    0.151466 0.156763 0.627240 0.228877
H28   H     H_    0.053708 0.971973 0.616831 0.166230
O17   O     O_3   0.036207 0.355397 0.422514 -0.528155
C31   C     C_3   0.946069 0.326166 0.346607 -0.088864
H29   H     H_    0.944287 0.430958 0.306906 0.175560
H30   H     H_    0.817178 0.275204 0.364444 0.201243
H31   H     H_    0.010778 0.238629 0.303158 0.182182
O18   O     O_3   0.963751 0.644704 0.577289 -0.522939
C32   C     C_3   0.052909 0.672756 0.653534 -0.112203
H32   H     H_    0.181704 0.724457 0.636225 0.208435
H33   H     H_    0.054900 0.567233 0.692577 0.159386
H34   H     H_    0.986945 0.759048 0.697229 0.168986

loop_
_geom_bond_atom_site_label_1
_geom_bond_atom_site_label_2
_ccdc_geom_bond_type
O13   C27   S    
C7    O5    A    
C24   H4    S    
O9    C23   S    
C32   H32   S    
O17   C31   S    
C3    N3    S    
C30   H26   S    
C25   H9    S    
C1    C5    S    
C23   H1    S    
C22   O14   S    
C5    C6    D    
C9    O9    S    
O5    Zn1   S    
C27   H13   S    
C10   O10   S    
C28   H17   S    
C4    C19   A    
C9    C19   A    
C10   C20   A    
N4    H21   S    
N3    H20   S    
N1    N2    D    
C1    O1    A    
C24   H5    S    
C2    C6    S    
C29   H25   S    
O2    Zn2   S    
O12   C26   S    
C30   H27   S    
O3    Zn2   S    
C7    C12   S    
C25   H8    S    
C7    O7    A    
O6    Zn2   S    
C26   H10   S    
C8    O8    A    
O16   C30   S    
C29   H24   S    
C21   O13   S    
O18   C32   S    
O11   C25   S    
O14   C28   S    
C26   H11   S    
C28   H18   S    
C4    C22   A    
N1    Zn2   S    
C17   C18   A    
O7    Zn2   S    
C3    C20   A    
C2    O2    A    
C9    C11   A    
C10   C12   A    
C16   C18   A    
O10   C24   S    
C12   C14   A    
O4    Zn1   S    
N3    H19   S    
C31   H30   S    
C13   C15   A    
C24   H6    S    
C14   C16   A    
C3    C21   A    
C4    N4    S    
C30   H28   S    
C15   C17   A    
C25   H7    S    
C16   C22   A    
N1    O17   S    
C23   H3    S    
C29   H23   S    
C6    O16   S    
C31   H31   S    
N2    Zn1   S    
C27   H15   S    
C26   H12   S    
C8    O6    A    
O8    Zn1   S    
C23   H2    S    
O15   C29   S    
C5    O15   S    
C13   O11   S    
C11   C13   A    
C14   O12   S    
C8    C11   S    
C17   C19   A    
C27   H14   S    
C18   C20   A    
C28   H16   S    
C15   C21   A    
N4    H22   S    
C31   H29   S    
C32   H34   S    
C1    O3    A    
C32   H33   S    
C2    O4    A    
N2    O18   S    
O1    Zn1   S    
