data_mof_unit_40731.cif
_audit_creation_date              2012-12-11T14:29:34-0500
_audit_creation_method            fapswitch 2.2
_symmetry_space_group_name_H-M    P1
_symmetry_Int_Tables_number       1
_space_group_crystal_system       triclinic
_cell_length_a                    6.935754
_cell_length_b                    14.691178
_cell_length_c                    16.348309
_cell_angle_alpha                 90.513177
_cell_angle_beta                  89.979195
_cell_angle_gamma                 89.825713
_cell_volume                      1665.72643133

loop_
_atom_site_label
_atom_site_type_symbol
_atom_type_description
_atom_site_fract_x
_atom_site_fract_y
_atom_site_fract_z
_atom_type_partial_charge
O1    O     O_R   0.494400 0.416610 0.413880 -0.544476
O2    O     O_R   0.823920 0.406790 0.585520 -0.512074
O3    O     O_R   0.994250 0.583390 0.586120 -0.538418
C1    C     C_R   0.655511 0.385156 0.613804 0.809553
O4    O     O_R   0.824110 0.405730 0.414490 -0.509647
O5    O     O_R   0.994440 0.582310 0.413870 -0.532518
C2    C     C_R   0.655546 0.384666 0.385665 0.766241
O6    O     O_R   0.494210 0.417690 0.586130 -0.535146
O7    O     O_3   0.660810 0.557940 0.500000 -0.376705
V1    V     V_3+5 0.935650 0.489250 0.500000 1.651337
O8    O     O_R   0.324160 0.593210 0.414480 -0.511830
C3    C     C_R   0.155779 0.611537 0.384060 0.713287
O9    O     O_R   0.323970 0.594270 0.585510 -0.537968
C4    C     C_R   0.154633 0.618140 0.612345 0.894179
V2    V     V_3+5 0.435660 0.510750 0.500000 1.624838
O10   O     O_3   0.160630 0.442060 0.500000 -0.358854
C5    C     C_R   0.176613 0.558532 0.779743 0.558194
C6    C     C_R   0.185906 0.526911 0.859213 -0.189756
C7    C     C_R   0.173682 0.586656 0.924439 -0.225354
C8    C     C_R   0.151944 0.680063 0.912003 0.175999
C9    C     C_R   0.142221 0.716119 0.830756 0.001532
C10   C     C_R   0.154532 0.653394 0.763119 -0.099189
C11   C     C_R   0.120571 0.811483 0.815384 -0.127513
C12   C     C_R   0.111027 0.843699 0.733373 -0.117342
C13   C     C_R   0.122369 0.780967 0.665714 -0.070237
C14   C     C_R   0.144296 0.685573 0.681120 -0.107467
C15   C     C_R   0.090385 0.938590 0.716793 0.491558
C16   C     C_R   0.079945 0.970233 0.637379 -0.264046
C17   C     C_R   0.090210 0.910601 0.571964 0.590759
C18   C     C_R   0.111595 0.816986 0.584425 0.052774
H1    H     H_    0.202610 0.454750 0.870361 0.161722
H2    H     H_    0.180880 0.560120 0.985993 0.166392
H3    H     H_    0.063920 0.042472 0.626452 0.185281
C19   C     C_2   0.991999 0.714232 0.285161 0.462981
C20   C     C_2   0.151830 0.669615 0.310577 0.305902
C21   C     C_2   0.985989 0.768638 0.208710 0.608445
C22   C     C_2   0.122995 0.829931 0.188205 -0.122364
C23   C     C_2   0.782783 0.212600 0.786070 0.596966
C24   C     C_2   0.616057 0.177461 0.814824 -0.414352
H4    H     H_    0.479250 0.194559 0.786891 0.122258
C25   C     C_2   0.797465 0.275038 0.714431 0.106450
C26   C     C_2   0.643697 0.319884 0.682549 -0.333539
H5    H     H_    0.501537 0.311217 0.708711 0.121853
C27   C     C_2   0.774578 0.210893 0.212187 -0.310061
C28   C     C_2   0.609987 0.173852 0.183059 0.397489
H6    H     H_    0.910069 0.193694 0.182404 0.158574
C29   C     C_2   0.789372 0.271136 0.285799 0.682355
C30   C     C_2   0.641626 0.322191 0.314616 -0.340762
H7    H     H_    0.503753 0.321985 0.283718 0.192266
O11   O     O_R   0.770210 0.079270 0.910680 -0.483936
O12   O     O_R   0.440150 0.091160 0.082270 -0.522753
O13   O     O_R   0.269970 0.914530 0.082860 -0.550393
C31   C     C_R   0.608111 0.111830 0.111445 0.645935
O14   O     O_R   0.440480 0.090100 0.911240 -0.530415
O15   O     O_R   0.270310 0.913460 0.910610 -0.535165
C32   C     C_R   0.609285 0.111857 0.883164 0.821042
O16   O     O_R   0.769870 0.080340 0.082930 -0.573301
O17   O     O_3   0.603660 0.938980 0.996790 -0.382722
V3    V     V_3+5 0.328750 0.007610 0.996740 1.601849
O18   O     O_R   0.940600 0.902510 0.911180 -0.531821
C33   C     C_R   0.109977 0.878800 0.884254 0.915485
O19   O     O_R   0.940270 0.903570 0.082200 -0.514328
C34   C     C_R   0.108983 0.885649 0.112949 0.749039
V4    V     V_3+5 0.828770 0.986010 0.996670 1.607803
O20   O     O_3   0.103730 0.054750 0.996710 -0.354979
F1    F     F_    0.079838 0.944138 0.494948 -0.642660
F2    F     F_    0.315249 0.671143 0.264512 -0.645960
F3    F     F_    0.826762 0.758621 0.160911 -0.663638
N1    N     N_3   0.280537 0.847770 0.243091 -0.599785
H8    H     H_    0.409604 0.836004 0.211602 0.317245
H9    H     H_    0.275933 0.916689 0.259514 0.254301
F4    F     F_    0.952600 0.188905 0.821993 -0.640842
N2    N     N_3   0.985993 0.288091 0.680119 -0.567352
H10   H     H_    0.040161 0.224461 0.662263 0.248625
H11   H     H_    0.075923 0.314245 0.725878 0.287207
F5    F     F_    0.439000 0.186938 0.222204 -0.660784
F6    F     F_    0.965426 0.276534 0.322167 -0.637698
F7    F     F_    0.189911 0.493875 0.720225 -0.718286
N3    N     N_3   0.139086 0.736529 0.983460 -0.692254
H12   H     H_    0.264031 0.727012 0.018204 0.244250
H13   H     H_    0.021318 0.714867 0.018088 0.262181
F8    F     F_    0.080261 0.003344 0.776328 -0.655262
N4    N     N_3   0.122309 0.760061 0.513164 -0.675256
H14   H     H_    0.996146 0.769165 0.479146 0.278919
H15   H     H_    0.239224 0.781156 0.477701 0.266182
F9    F     F_    0.823273 0.705446 0.326793 -0.640040

loop_
_geom_bond_atom_site_label_1
_geom_bond_atom_site_label_2
_ccdc_geom_bond_type
C25   C26   D    
C22   N1    S    
O11   V4    S    
N2    H10   S    
C7    C8    A    
C12   C15   A    
C1    O6    A    
C17   C18   A    
C28   F5    S    
C16   C17   A    
C6    C7    A    
O15   V3    S    
O5    C3    A    
C23   C24   D    
V2    O10   S    
C19   C20   D    
C19   F9    S    
C18   N4    S    
N1    H9    S    
O19   V4    S    
O8    V2    S    
N4    H14   S    
C11   C12   A    
O1    V2    S    
O7    V1    S    
C27   C29   S    
C13   C14   A    
C28   C31   S    
O9    C4    A    
N2    H11   S    
C7    H2    S    
C22   C34   S    
C27   H6    S    
O14   C32   A    
O14   V3    S    
O17   V4    S    
C23   F4    S    
C12   C13   A    
C23   C25   S    
C24   H4    S    
N3    H13   S    
C31   O16   A    
O17   V3    S    
O11   C32   A    
N3    H12   S    
O18   C33   A    
O12   C31   A    
O2    C1    A    
O19   C34   A    
O13   V3    S    
C29   C30   D    
C20   F2    S    
C5    C6    A    
C24   C32   S    
C4    C14   S    
C3    C20   S    
O3    C4    A    
C30   H7    S    
N4    H15   S    
C16   H3    S    
O6    V2    S    
O9    V2    S    
O12   V3    S    
C26   H5    S    
C29   F6    S    
O2    V1    S    
C27   C28   D    
O16   V4    S    
O4    C2    A    
C13   C18   A    
C21   C22   D    
C8    N3    S    
O1    C2    A    
C15   F8    S    
O13   C34   A    
O5    V1    S    
O8    C3    A    
C21   F3    S    
C5    C10   A    
O18   V4    S    
C2    C30   S    
C9    C11   A    
O7    V2    S    
O4    V1    S    
O3    V1    S    
V1    O10   S    
V4    O20   S    
C1    C26   S    
O15   C33   A    
C5    F7    S    
C19   C21   S    
N1    H8    S    
C25   N2    S    
C17   F1    S    
C11   C33   S    
C8    C9    A    
C10   C14   A    
C15   C16   A    
C6    H1    S    
C9    C10   A    
V3    O20   S    
