data_mof_unit_28209.cif
_audit_creation_date              2012-10-26T19:58:23-0400
_audit_creation_method            fapswitch 2.2
_symmetry_space_group_name_H-M    P1
_symmetry_Int_Tables_number       1
_space_group_crystal_system       triclinic
_cell_length_a                    7.421482
_cell_length_b                    8.687095
_cell_length_c                    13.459186
_cell_angle_alpha                 94.080559
_cell_angle_beta                  77.32309
_cell_angle_gamma                 103.17864
_cell_volume                      824.076877077

loop_
_atom_site_label
_atom_site_type_symbol
_atom_type_description
_atom_site_fract_x
_atom_site_fract_y
_atom_site_fract_z
_atom_type_partial_charge
C1    C     C_R   0.545284 0.800252 0.503193 0.550501
C2    C     C_R   0.333737 0.446934 0.803016 -0.044895
C3    C     C_2   0.570749 0.968160 0.504922 -0.146429
C4    C     C_R   0.397337 0.487170 0.694160 0.524353
C5    C     C_2   0.428798 0.031856 0.495851 -0.147644
C6    C     C_R   0.454521 0.199746 0.497132 0.550314
C7    C     C_R   0.600445 0.503203 0.305654 0.529673
C8    C     C_R   0.863151 0.662448 0.052911 -0.127542
C9    C     C_R   0.659421 0.509749 0.193723 -0.018328
C10   C     C_R   0.181960 0.315029 0.832318 0.002965
C11   C     C_R   0.186805 0.223185 0.912362 -0.087227
C12   C     C_R   0.448627 0.420064 0.957566 0.058362
C13   C     C_R   0.325750 0.269564 0.969195 -0.085606
C14   C     C_2   0.344604 0.340033 0.179429 0.225105
C15   C     C_2   0.023247 0.265387 0.778025 0.242866
C16   C     C_R   0.460214 0.505155 0.869516 0.009710
C17   C     C_R   0.568727 0.484509 0.027041 0.046783
C18   C     C_R   0.727484 0.609166 0.993442 0.022721
C19   C     C_R   0.743125 0.686871 0.903788 -0.134362
C20   C     C_R   0.603769 0.643094 0.847067 -0.110339
C21   C     C_R   0.529806 0.440006 0.130846 -0.002807
C22   C     C_R   0.831161 0.610339 0.151653 -0.107740
Cu1   Cu    Cu3+1 0.321300 0.483160 0.488710 0.978088
Cu2   Cu    Cu3+1 0.678700 0.516840 0.511290 0.975806
H1    H     H_    0.931776 0.662561 0.198576 0.154659
H2    H     H_    0.707482 0.039684 0.513548 0.144238
H3    H     H_    0.340759 0.241384 0.225630 0.101349
H4    H     H_    0.982317 0.350381 0.737160 0.145623
H5    H     H_    0.292027 0.960341 0.487295 0.138801
H6    H     H_    0.010921 0.617267 0.579385 0.238871
H7    H     H_    0.989036 0.382620 0.420681 0.256683
H8    H     H_    0.857851 0.788010 0.880560 0.140482
H9    H     H_    0.988759 0.752478 0.025327 0.113502
H10   H     H_    0.334648 0.185373 0.022167 0.114648
H11   H     H_    0.084235 0.112965 0.930285 0.151200
H12   H     H_    0.612538 0.716429 0.783702 0.150415
N1    N     N_2   0.947230 0.542220 0.528320 -0.261244
N2    N     N_2   0.052770 0.457780 0.471680 -0.249015
O1    O     O_R   0.383920 0.714220 0.492660 -0.503127
O2    O     O_2   0.931715 0.129137 0.781046 -0.536296
O3    O     O_R   0.685730 0.742660 0.511730 -0.494531
O4    O     O_R   0.275440 0.478800 0.636790 -0.526150
O5    O     O_R   0.577250 0.507240 0.655860 -0.494827
O6    O     O_R   0.314270 0.257340 0.488270 -0.498841
O7    O     O_R   0.616080 0.285780 0.507340 -0.503606
O8    O     O_R   0.422750 0.492760 0.344140 -0.482053
O9    O     O_R   0.724560 0.521200 0.363210 -0.496091
O10   O     O_2   0.196212 0.373258 0.173121 -0.509017

loop_
_geom_bond_atom_site_label_1
_geom_bond_atom_site_label_2
_ccdc_geom_bond_type
C12   C17   A    
C8    C22   A    
Cu1   Cu2   S    
N1    N2    D    
C4    O5    A    
C14   H3    S    
Cu1   N2    S    
C2    C16   A    
C2    C4    S    
C19   C20   A    
H7    N2    S    
C16   C20   A    
C11   H11   S    
Cu2   N1    S    
C13   H10   S    
Cu1   O8    S    
C6    O6    A    
Cu2   O3    S    
C11   C13   A    
C9    C21   A    
C15   H4    S    
Cu1   O4    S    
C4    O4    A    
Cu1   O1    S    
C19   H8    S    
C14   C21   S    
C1    O3    A    
C6    O7    A    
C17   C18   A    
C5    H5    S    
C8    H9    S    
C5    C6    S    
C9    C22   A    
C17   C21   A    
C15   O2    D    
C10   C11   A    
Cu2   O7    S    
C2    C10   A    
C7    O8    A    
C12   C13   A    
C18   C19   A    
C7    C9    S    
Cu2   O5    S    
C1    O1    A    
C14   O10   D    
C3    C5    D    
C10   C15   S    
Cu2   O9    S    
C3    H2    S    
C8    C18   A    
Cu1   O6    S    
C12   C16   A    
H6    N1    S    
C7    O9    A    
C1    C3    S    
C22   H1    S    
C20   H12   S    
