data_mof_unit_23767.cif
_audit_creation_date              2012-12-10T17:24:43-0500
_audit_creation_method            fapswitch 2.2
_symmetry_space_group_name_H-M    P1
_symmetry_Int_Tables_number       1
_space_group_crystal_system       triclinic
_cell_length_a                    23.497496
_cell_length_b                    10.75542
_cell_length_c                    9.666388
_cell_angle_alpha                 87.993199
_cell_angle_beta                  89.182754
_cell_angle_gamma                 93.24914
_cell_volume                      2437.19606482

loop_
_atom_site_label
_atom_site_type_symbol
_atom_type_description
_atom_site_fract_x
_atom_site_fract_y
_atom_site_fract_z
_atom_type_partial_charge
C1    C     C_R   0.505867 0.263459 0.503158 0.863794
C2    C     C_R   0.964243 0.291211 0.566180 -0.111460
C3    C     C_R   0.023352 0.292220 0.571571 -0.098937
C4    C     C_R   0.056824 0.402338 0.540527 -0.005292
C5    C     C_R   0.030542 0.513564 0.504678 -0.059671
C6    C     C_R   0.064125 0.625042 0.471970 -0.143619
C7    C     C_R   0.035812 0.737324 0.443248 0.432353
C8    C     C_R   0.976083 0.732975 0.440296 -0.187978
C9    C     C_R   0.116212 0.403217 0.544552 0.563837
C10   C     C_R   0.124250 0.617247 0.467895 0.604596
C11   C     C_R   0.243019 0.583900 0.586235 -0.056021
C12   C     C_R   0.391302 0.497168 0.500973 0.865674
C13   C     C_R   0.302065 0.579220 0.584710 -0.161993
C14   C     C_R   0.328850 0.493503 0.503283 -0.100694
C15   C     C_R   0.295487 0.409214 0.423569 -0.079012
C16   C     C_R   0.236198 0.418700 0.422365 -0.113298
C17   C     C_R   0.209774 0.504523 0.504202 0.289135
C18   C     C_R   0.760516 0.518306 0.625951 0.487596
C19   C     C_R   0.700965 0.514586 0.624023 -0.247056
C20   C     C_R   0.671625 0.504416 0.498828 -0.104919
C21   C     C_R   0.702639 0.498299 0.374406 -0.168960
C22   C     C_R   0.761968 0.500893 0.375439 -0.131369
C23   C     C_R   0.497261 0.737371 0.498058 0.768983
C24   C     C_R   0.791128 0.510286 0.500324 0.212152
C25   C     C_R   0.508503 0.094801 0.771511 -0.043382
C26   C     C_R   0.476309 0.029654 0.879841 0.013628
C27   C     C_R   0.440535 0.926137 0.849480 -0.172009
C28   C     C_R   0.443809 0.874651 0.720129 -0.175483
C29   C     C_R   0.479046 0.933313 0.615555 0.092373
C30   C     C_R   0.500455 0.055684 0.633756 0.079112
C31   C     C_R   0.514822 0.129437 0.512482 -0.100537
C32   C     C_R   0.529868 0.070711 0.392280 -0.153431
C33   C     C_R   0.522691 0.942108 0.385484 -0.144583
C34   C     C_R   0.608910 0.501250 0.499261 0.808087
C35   C     C_R   0.495984 0.872652 0.495827 -0.085134
C36   C     C_R   0.575575 0.666274 0.134889 -0.232731
C37   C     C_R   0.611501 0.751071 0.059333 -0.228315
C38   C     C_R   0.611621 0.752396 0.916196 0.426890
C39   C     C_R   0.576498 0.666198 0.848603 -0.224970
C40   C     C_R   0.538215 0.579970 0.921219 0.096083
C41   C     C_R   0.537736 0.580548 0.070211 0.202594
C42   C     C_R   0.463232 0.426060 0.080572 -0.056955
C43   C     C_R   0.460848 0.427999 0.933845 0.489455
C44   C     C_R   0.883414 0.619280 0.467537 0.641286
C45   C     C_R   0.877689 0.401707 0.527152 0.619297
C46   C     C_R   0.937268 0.400727 0.531673 -0.026925
C47   C     C_R   0.970385 0.512355 0.501834 -0.010280
C48   C     C_R   0.943267 0.622227 0.468720 -0.099478
Cu1   Cu    Cu3+1 0.500000 0.499990 0.640660 1.024633
Cu2   Cu    Cu3+1 0.500000 0.500010 0.359340 0.986301
H1    H     H_    0.939794 0.204484 0.589951 0.212543
H2    H     H_    0.677460 0.520072 0.720529 0.199745
H3    H     H_    0.681133 0.490902 0.276423 0.193275
H4    H     H_    0.785493 0.495113 0.278931 0.184421
H5    H     H_    0.547840 0.125692 0.305283 0.221645
H6    H     H_    0.414799 0.876907 0.930099 0.179529
H7    H     H_    0.419602 0.787984 0.703345 0.157829
H8    H     H_    0.537671 0.897362 0.294300 0.183487
H9    H     H_    0.432921 0.368493 0.143046 0.205535
H10   H     H_    0.042748 0.205945 0.599080 0.218366
H11   H     H_    0.578307 0.673192 0.243952 0.218554
H12   H     H_    0.639072 0.816605 0.113359 0.217622
H13   H     H_    0.580144 0.672653 0.739179 0.224865
H14   H     H_    0.954770 0.817589 0.416851 0.234314
H15   H     H_    0.223042 0.649731 0.650896 0.171651
H16   H     H_    0.327066 0.643625 0.646479 0.156740
H17   H     H_    0.209810 0.356610 0.360986 0.200082
N1    N     N_R   0.852123 0.510456 0.498226 -0.461165
N2    N     N_R   0.148626 0.508687 0.506353 -0.472690
N3    N     N_R   0.500540 0.501210 0.147910 -0.226830
N4    N     N_R   0.500560 0.501290 0.852040 -0.234493
O1    O     O_R   0.500000 0.319640 0.618810 -0.537721
O2    O     O_2   0.845467 0.295122 0.551875 -0.471994
O3    O     O_2   0.141561 0.299124 0.586508 -0.516970
O4    O     O_2   0.158479 0.714908 0.421843 -0.438784
O5    O     O_R   0.500000 0.319660 0.381240 -0.560832
O6    O     O_R   0.417880 0.499950 0.618810 -0.511880
O7    O     O_R   0.417880 0.499980 0.381240 -0.570429
O8    O     O_R   0.500000 0.680340 0.618760 -0.604612
O9    O     O_R   0.500000 0.680360 0.381190 -0.604782
O10   O     O_R   0.582120 0.500020 0.618760 -0.603474
O11   O     O_R   0.582120 0.500050 0.381190 -0.598872
O12   O     O_2   0.856610 0.724338 0.437335 -0.475342
C49   C     C_2   0.556979 0.185537 0.801224 0.949799
O13   O     O_2   0.554400 0.255144 0.897992 -0.585598
O14   O     O_R   0.605486 0.192840 0.715043 -0.730648
H18   H     H_    0.635190 0.258558 0.743904 0.339751
C50   C     C_2   0.482375 0.057732 0.026677 0.860510
O15   O     O_2   0.529819 0.069023 0.075764 -0.595970
O16   O     O_R   0.433733 0.063161 0.110727 -0.721409
H19   H     H_    0.442849 0.085329 0.209167 0.345123
S1    S     S_3+6 0.655307 0.863734 0.820175 0.041334
O17   O     O_2   0.710430 0.807495 0.783918 -0.210556
O18   O     O_2   0.625976 0.901176 0.689213 -0.293520
O19   O     O_3   0.668891 0.990021 0.914746 -0.493280
H20   H     H_    0.693513 0.047395 0.854338 0.402963
S2    S     S_3+6 0.397264 0.350348 0.872225 0.030724
O20   O     O_2   0.372640 0.260029 0.982296 -0.282595
O21   O     O_2   0.354530 0.446982 0.846545 -0.294320
O22   O     O_3   0.405002 0.269105 0.729076 -0.514495
H21   H     H_    0.365823 0.240192 0.704175 0.379088
S3    S     S_3+6 0.071291 0.887339 0.417985 0.068528
O23   O     O_2   0.103210 0.893504 0.281793 -0.205160
O24   O     O_2   0.029207 0.987628 0.416659 -0.301448
O25   O     O_3   0.117183 0.913130 0.547292 -0.477540
H22   H     H_    0.135898 0.996385 0.524805 0.396452
C51   C     C_2   0.319870 0.305619 0.348091 0.871588
O26   O     O_2   0.365189 0.264464 0.382728 -0.603531
O27   O     O_R   0.289295 0.250528 0.240921 -0.703430
H23   H     H_    0.308753 0.177270 0.202052 0.384582
S4    S     S_3+6 0.795721 0.533494 0.785752 0.050464
O28   O     O_2   0.841057 0.637751 0.772762 -0.245523
O29   O     O_2   0.754156 0.560731 0.898928 -0.269721
O30   O     O_3   0.826254 0.399829 0.826993 -0.502758
H24   H     H_    0.849005 0.418065 0.910108 0.377900

loop_
_geom_bond_atom_site_label_1
_geom_bond_atom_site_label_2
_ccdc_geom_bond_type
C9    O3    S    
C44   C48   A    
C17   N2    S    
C33   H8    S    
C40   N4    A    
O19   H20   S    
C19   C20   A    
C1    C31   S    
C44   O12   S    
O30   H24   S    
C7    C8    A    
C22   H4    S    
C28   H7    S    
C2    C46   A    
C5    C47   A    
C26   C27   A    
C37   C38   A    
C18   C24   A    
C36   C37   A    
C9    N2    A    
C30   C31   A    
Cu1   O10   S    
C15   C16   A    
C38   S1    S    
C42   N3    A    
S3    O25   S    
C45   O2    S    
C18   C19   A    
C15   C51   S    
O22   H21   S    
C19   H2    S    
C11   C17   A    
C47   C48   A    
C16   C17   A    
C7    S3    S    
C12   O7    A    
C25   C49   S    
C51   O26   D    
C34   O10   A    
C23   O9    A    
C32   H5    S    
C20   C34   S    
C3    H10   S    
C21   C22   A    
C51   O27   S    
C36   C41   A    
Cu2   O7    S    
S2    O21   D    
S2    O20   D    
C13   H16   S    
C38   C39   A    
C1    O1    A    
C18   S4    S    
C39   C40   A    
C27   H6    S    
C25   C26   A    
C45   C46   A    
Cu1   O1    S    
S1    O19   S    
Cu1   O8    S    
C8    C48   A    
C29   C30   A    
Cu2   O5    S    
C10   O4    S    
C31   C32   A    
C12   O6    A    
C20   C21   A    
C45   N1    A    
S1    O18   D    
S4    O29   D    
C16   H17   S    
C49   O13   D    
S3    O24   D    
C8    H14   S    
C40   C41   A    
C50   O16   S    
C23   C35   S    
C22   C24   A    
C44   N1    A    
C42   C43   A    
C3    C4    A    
S2    O22   S    
Cu2   O11   S    
C25   C30   A    
C46   C47   A    
C28   C29   A    
C43   N4    A    
S4    O28   D    
O14   H18   S    
C1    O5    A    
C43   S2    S    
C12   C14   S    
C4    C5    A    
Cu2   O9    S    
C42   H9    S    
C6    C10   A    
C6    C7    A    
C39   H13   S    
O25   H22   S    
C29   C35   A    
C32   C33   A    
C2    C3    A    
Cu2   N3    S    
O27   H23   S    
C21   H3    S    
C11   C13   A    
O16   H19   S    
C5    C6    A    
S1    O17   D    
C33   C35   A    
Cu1   O6    S    
S4    O30   S    
S3    O23   D    
C2    H1    S    
C24   N1    S    
C10   N2    A    
C11   H15   S    
C50   O15   D    
C26   C50   S    
Cu1   Cu2   S    
Cu1   N4    S    
C27   C28   A    
C37   H12   S    
C14   C15   A    
C49   O14   S    
C34   O11   A    
C23   O8    A    
C4    C9    A    
C13   C14   A    
C36   H11   S    
C41   N3    A    
