data_mof_unit_33991.cif
_audit_creation_date              2012-12-10T20:52:58-0500
_audit_creation_method            fapswitch 2.2
_symmetry_space_group_name_H-M    P1
_symmetry_Int_Tables_number       1
_space_group_crystal_system       triclinic
_cell_length_a                    18.289423
_cell_length_b                    18.320792
_cell_length_c                    18.5003
_cell_angle_alpha                 60.159927
_cell_angle_beta                  60.135152
_cell_angle_gamma                 59.739206
_cell_volume                      4384.35616643

loop_
_atom_site_label
_atom_site_type_symbol
_atom_type_description
_atom_site_fract_x
_atom_site_fract_y
_atom_site_fract_z
_atom_type_partial_charge
C1    C     C_R   0.390450 0.110781 0.109175 0.856482
C2    C     C_R   0.390001 0.766910 0.760003 -0.225174
C3    C     C_R   0.030944 0.575924 0.916798 0.031755
C4    C     C_R   0.419830 0.057768 0.995005 0.014191
C5    C     C_R   0.580008 0.921153 0.024566 0.030012
C6    C     C_R   0.947191 0.944597 0.557508 -0.154164
C7    C     C_R   0.051006 0.056587 0.444229 -0.157042
C8    C     C_R   0.965834 0.547662 0.927137 -0.188974
C9    C     C_R   0.063065 0.445952 0.044839 -0.181635
C10   C     C_R   0.549803 0.930885 0.961802 -0.188078
C11   C     C_R   0.447135 0.048757 0.058955 -0.186070
C12   C     C_3   0.067698 0.663740 0.579378 -0.776884
C13   C     C_R   0.157166 0.089170 0.644035 -0.213080
C14   C     C_3   0.939288 0.297844 0.367490 -0.832892
C15   C     C_3   0.042835 0.400052 0.823933 -0.710727
C16   C     C_3   0.295053 0.402971 0.933835 -0.819121
C17   C     C_3   0.414190 0.820575 0.044235 -0.702810
C18   C     C_3   0.400234 0.930990 0.275299 -0.856931
C19   C     C_3   0.228747 0.610319 0.333575 -0.331626
C20   C     C_3   0.689607 0.611316 0.620802 -0.256076
C21   C     C_3   0.669546 0.365594 0.178084 -0.296647
C22   C     C_3   0.454626 0.574700 0.779496 -0.379687
C23   C     C_3   0.284941 0.116157 0.689286 -0.327652
C24   C     C_R   0.835659 0.961328 0.328251 -0.245603
C25   C     C_3   0.783651 0.812754 0.373712 -0.234063
C26   C     C_3   0.918211 0.575947 0.281398 -0.289998
C27   C     C_3   0.020948 0.233905 0.792724 -0.368779
C28   C     C_3   0.619942 0.210172 0.943717 -0.348940
C29   C     C_3   0.238287 0.792601 0.061860 -0.390971
C30   C     C_3   0.366412 0.876733 0.482616 -0.326746
C31   C     C_3   0.650093 0.091655 0.567757 -0.312211
C32   C     C_R   0.165966 0.580320 0.277083 0.484426
C33   C     C_R   0.787273 0.471594 0.675865 0.480321
C34   C     C_R   0.617869 0.290231 0.155995 0.504028
C35   C     C_R   0.434969 0.687722 0.813690 0.490690
C36   C     C_R   0.247484 0.079783 0.614496 0.551772
C37   C     C_R   0.750089 0.954011 0.366686 0.489863
C38   C     C_R   0.075395 0.586845 0.315000 -0.104057
C39   C     C_R   0.609141 0.885542 0.894717 0.810407
C40   C     C_R   0.878445 0.429674 0.669987 -0.070569
C41   C     C_R   0.589640 0.312958 0.086760 -0.102327
C42   C     C_R   0.414376 0.678206 0.901392 -0.060862
C43   C     C_R   0.314999 0.009161 0.581504 -0.116399
C44   C     C_R   0.680443 0.003494 0.423113 -0.074724
C45   C     C_R   0.023812 0.622838 0.260710 0.511536
C46   C     C_R   0.905213 0.356906 0.741386 0.530818
C47   C     C_R   0.612045 0.246612 0.053649 0.540786
C48   C     C_R   0.341725 0.745241 0.937974 0.514284
C49   C     C_R   0.291148 0.944470 0.585967 0.476428
C50   C     C_R   0.110024 0.110203 0.389395 0.848627
C51   C     C_R   0.697652 0.055887 0.444661 0.514517
C52   C     C_R   0.064400 0.650182 0.168501 -0.242315
C53   C     C_R   0.837759 0.329724 0.820596 -0.301072
C54   C     C_R   0.659596 0.156661 0.094522 -0.235152
C55   C     C_R   0.296770 0.824471 0.881624 -0.296812
C56   C     C_R   0.200488 0.952705 0.619925 -0.219931
C57   C     C_R   0.784093 0.061770 0.405590 -0.244177
C58   C     C_R   0.155822 0.637212 0.131389 -0.241808
C59   C     C_R   0.748007 0.371208 0.826102 -0.247429
C60   C     C_R   0.685534 0.134578 0.164082 -0.279179
C61   C     C_R   0.888885 0.890621 0.610896 0.819114
C62   C     C_R   0.320989 0.834496 0.794066 -0.274996
C63   C     C_R   0.133809 0.025847 0.646923 -0.270248
C64   C     C_R   0.852420 0.014403 0.348193 -0.244017
C65   C     C_R   0.987745 0.591073 0.466059 -0.229929
C66   C     C_R   0.003517 0.411217 0.532718 -0.194814
C67   C     C_R   0.590914 0.465464 0.991167 -0.245006
C68   C     C_R   0.409116 0.533762 0.012978 -0.275234
C69   C     C_R   0.465248 0.954141 0.589163 -0.256517
C70   C     C_R   0.534889 0.047140 0.411053 -0.196954
C71   C     C_R   0.942140 0.553192 0.554691 -0.033708
C72   C     C_R   0.111071 0.390323 0.108824 0.840355
C73   C     C_R   0.051327 0.448420 0.444593 -0.067171
C74   C     C_R   0.551681 0.555405 0.946424 -0.035151
C75   C     C_R   0.448405 0.443812 0.056391 -0.035586
C76   C     C_R   0.554478 0.949141 0.553193 -0.041396
C77   C     C_R   0.445375 0.052337 0.447212 -0.067895
C78   C     C_R   0.945519 0.463941 0.586912 0.127143
C79   C     C_R   0.039190 0.540676 0.410102 0.142445
C80   C     C_R   0.458981 0.590168 0.957705 0.131303
C81   C     C_R   0.541145 0.408430 0.044855 0.132465
C82   C     C_R   0.589484 0.997625 0.463265 0.131908
C83   C     C_R   0.895753 0.608798 0.884594 0.811764
C84   C     C_R   0.409682 0.005837 0.537981 0.131367
C85   C     C_R   0.109462 0.390729 0.389491 0.814359
C86   C     C_R   0.888630 0.609607 0.610488 0.807438
C87   C     C_R   0.390741 0.389485 0.111080 0.838263
C88   C     C_R   0.609240 0.610263 0.889330 0.820903
C89   C     C_R   0.390086 0.109143 0.390022 0.796282
C90   C     C_R   0.609921 0.891363 0.610074 0.797311
C91   C     C_R   0.167207 0.938012 0.378168 -0.185815
C92   C     C_R   0.826980 0.063943 0.620009 -0.187932
C93   C     C_R   0.966552 0.351687 0.127248 -0.135409
C94   C     C_R   0.206321 0.602734 0.185395 -0.152678
C95   C     C_R   0.046962 0.654876 0.849254 -0.158811
C96   C     C_R   0.348839 0.132113 0.966414 -0.133694
C97   C     C_R   0.660896 0.854071 0.039411 -0.160361
C98   C     C_R   0.202594 0.851033 0.378162 -0.215472
C99   C     C_R   0.793529 0.148325 0.625632 -0.198504
C100  C     C_R   0.920880 0.312512 0.123209 -0.182034
C101  C     C_R   0.116560 0.677405 0.834098 -0.180572
C102  C     C_R   0.308293 0.126094 0.923587 -0.169458
C103  C     C_R   0.683602 0.838993 0.108244 -0.195003
C104  C     C_R   0.159335 0.790570 0.443229 -0.166086
C105  C     C_R   0.722649 0.440452 0.754363 -0.212655
C106  C     C_R   0.842462 0.205321 0.569888 -0.195249
C107  C     C_R   0.911912 0.335927 0.043433 -0.256313
C108  C     C_R   0.176474 0.618661 0.880264 -0.219423
C109  C     C_R   0.333385 0.044456 0.915287 -0.246675
C110  C     C_R   0.622621 0.882952 0.169401 -0.207276
C111  C     C_R   0.077246 0.817145 0.507992 0.242470
C112  C     C_R   0.925731 0.179170 0.506918 0.234756
C113  C     C_R   0.939139 0.405985 0.970515 0.273317
C114  C     C_R   0.166159 0.537382 0.944427 0.250845
C115  C     C_R   0.406081 0.971986 0.940501 0.271576
C116  C     C_R   0.664370 0.200413 0.195249 -0.255290
C117  C     C_R   0.539558 0.945429 0.160171 0.263827
C118  C     C_R   0.035356 0.909762 0.502625 0.000673
C119  C     C_R   0.964526 0.089813 0.503366 0.031984
C120  C     C_R   0.967122 0.458647 0.981922 0.043705
C121  C     C_R   0.087473 0.519027 0.969907 0.042202
C122  C     C_R   0.460013 0.986263 0.963896 0.043468
C123  C     C_R   0.522236 0.973503 0.081250 0.032290
C124  C     C_R   0.084230 0.968932 0.440946 0.030052
C125  C     C_R   0.912963 0.032326 0.560461 0.030525
C126  C     C_R   0.998176 0.419480 0.052795 0.017545
H1    H     H_    0.813849 0.272141 0.573245 0.143992
H2    H     H_    0.339605 0.559593 0.017729 0.145503
H3    H     H_    0.688119 0.135271 0.544883 0.174954
H4    H     H_    0.688192 0.020124 0.596752 0.139275
H5    H     H_    0.587447 0.111000 0.621342 0.189316
H6    H     H_    0.438236 0.918376 0.658030 0.170358
H7    H     H_    0.561715 0.084506 0.342490 0.177734
H8    H     H_    0.206213 0.980223 0.327404 0.163190
H9    H     H_    0.783791 0.024219 0.663674 0.146400
H10   H     H_    0.977889 0.327708 0.188266 0.146459
H11   H     H_    0.009559 0.698351 0.804038 0.162603
H12   H     H_    0.323159 0.194134 0.978395 0.144331
H13   H     H_    0.705856 0.808574 0.002324 0.176618
H14   H     H_    0.266100 0.829374 0.329169 0.151360
H15   H     H_    0.192537 0.722011 0.444098 0.139538
H16   H     H_    0.728147 0.170374 0.672413 0.147064
H17   H     H_    0.898743 0.259278 0.179910 0.146082
H18   H     H_    0.127512 0.738235 0.782165 0.151191
H19   H     H_    0.252645 0.182315 0.903632 0.145597
H20   H     H_    0.745854 0.787642 0.118260 0.155396
H21   H     H_    0.187185 0.655162 0.060448 0.171513
H22   H     H_    0.697724 0.349206 0.886432 0.213598
H23   H     H_    0.721258 0.065600 0.194844 0.207665
H24   H     H_    0.285235 0.895153 0.753039 0.176000
H25   H     H_    0.063919 0.033003 0.670965 0.179185
H26   H     H_    0.234412 0.634169 0.862396 0.131939
H27   H     H_    0.918409 0.019743 0.318178 0.177323
H28   H     H_    0.277210 0.592516 0.156584 0.206612
H29   H     H_    0.652744 0.469180 0.760162 0.188226
H30   H     H_    0.683065 0.181146 0.250962 0.167615
H31   H     H_    0.408453 0.774666 0.692130 0.222154
H32   H     H_    0.105020 0.145926 0.664525 0.171787
H33   H     H_    0.889077 0.926818 0.281960 0.149057
H34   H     H_    0.025699 0.679567 0.125594 0.156061
H35   H     H_    0.853013 0.276902 0.878945 0.141609
H36   H     H_    0.676291 0.102398 0.074453 0.151356
H37   H     H_    0.886980 0.297347 0.037430 0.125815
H38   H     H_    0.242574 0.879528 0.903776 0.142978
H39   H     H_    0.181850 0.902313 0.625197 0.158423
H40   H     H_    0.798409 0.104060 0.418273 0.155229
H41   H     H_    0.037025 0.748678 0.642588 0.204144
H42   H     H_    0.022998 0.627787 0.638394 0.230482
H43   H     H_    0.137671 0.623063 0.579505 0.227223
H44   H     H_    0.060488 0.671372 0.519590 0.243243
H45   H     H_    0.961117 0.285747 0.472908 0.220034
H46   H     H_    0.981302 0.340621 0.318351 0.215437
H47   H     H_    0.867767 0.341371 0.384821 0.235603
H48   H     H_    0.637439 0.863502 0.227663 0.154846
H49   H     H_    0.948481 0.252826 0.337670 0.244772
H50   H     H_    0.920127 0.379804 0.884678 0.228350
H51   H     H_    0.069651 0.446944 0.816183 0.224545
H52   H     H_    0.086820 0.330051 0.847460 0.217737
H53   H     H_    0.043682 0.414022 0.757945 0.277719
H54   H     H_    0.277844 0.498332 0.975259 0.216791
H55   H     H_    0.346721 0.351739 0.965799 0.233773
H56   H     H_    0.329166 0.432424 0.862403 0.234506
H57   H     H_    0.253779 0.369445 0.941864 0.238313
H58   H     H_    0.378160 0.880742 0.930614 0.229945
H59   H     H_    0.293908 0.036497 0.893056 0.120287
H60   H     H_    0.429886 0.752909 0.046209 0.277502
H61   H     H_    0.347689 0.841136 0.093780 0.218511
H62   H     H_    0.466345 0.815108 0.062520 0.218607
H63   H     H_    0.491772 0.961700 0.281318 0.222813
H64   H     H_    0.341220 0.967121 0.320065 0.217179
H65   H     H_    0.424544 0.858603 0.312586 0.235211
H66   H     H_    0.378019 0.938933 0.225051 0.249274
H67   H     H_    0.270162 0.644150 0.268084 0.169000
H68   H     H_    0.264792 0.580178 0.380825 0.204334
H69   H     H_    0.163046 0.660080 0.357753 0.143013
H70   H     H_    0.981816 0.660889 0.439354 0.149424
H71   H     H_    0.685383 0.626162 0.674643 0.156219
H72   H     H_    0.628061 0.600433 0.636921 0.211213
H73   H     H_    0.693787 0.671463 0.561067 0.171790
H74   H     H_    0.716715 0.374185 0.109061 0.143500
H75   H     H_    0.704169 0.308418 0.225356 0.165149
H76   H     H_    0.648331 0.426962 0.192013 0.197714
H77   H     H_    0.416342 0.619524 0.732471 0.181327
H78   H     H_    0.409586 0.548281 0.846558 0.173580
H79   H     H_    0.505460 0.516762 0.756752 0.193032
H80   H     H_    0.353312 0.066440 0.686237 0.182141
H81   H     H_    0.006651 0.342474 0.557869 0.162271
H82   H     H_    0.234745 0.087760 0.749650 0.115440
H83   H     H_    0.281365 0.174896 0.695943 0.206921
H84   H     H_    0.778716 0.789029 0.443781 0.183774
H85   H     H_    0.854855 0.800014 0.330313 0.177986
H86   H     H_    0.757757 0.772386 0.369257 0.205150
H87   H     H_    0.963533 0.505465 0.300683 0.163723
H88   H     H_    0.924676 0.600147 0.210914 0.154823
H89   H     H_    0.848462 0.576417 0.321436 0.190775
H90   H     H_    0.995114 0.188125 0.796557 0.157585
H91   H     H_    0.998952 0.238451 0.858582 0.162991
H92   H     H_    0.661631 0.438532 0.983033 0.155923
H93   H     H_    0.094968 0.204636 0.771095 0.208279
H94   H     H_    0.594250 0.153329 0.987304 0.188874
H95   H     H_    0.694470 0.186963 0.921077 0.157554
H96   H     H_    0.600063 0.242459 0.884143 0.191375
H97   H     H_    0.180868 0.798092 0.051118 0.178869
H98   H     H_    0.244721 0.859272 0.033943 0.172219
H99   H     H_    0.222875 0.770272 0.134073 0.193056
H100  H     H_    0.387548 0.935103 0.431636 0.161770
H101  H     H_    0.303677 0.881842 0.481473 0.169537
H102  H     H_    0.420054 0.815913 0.466550 0.198863
N1    N     N_2   0.042191 0.750610 0.583608 -0.305362
N2    N     N_2   0.966178 0.245761 0.445223 -0.293115
N3    N     N_2   0.951909 0.412674 0.885071 -0.262718
N4    N     N_2   0.239960 0.471924 0.974743 -0.281764
N5    N     N_2   0.414566 0.883935 0.956402 -0.263886
N6    N     N_2   0.470134 0.968549 0.235631 -0.284453
O1    O     O_3   0.250000 0.250000 0.250000 -0.486741
O2    O     O_R   0.865800 0.694910 0.573470 -0.650088
O3    O     O_R   0.305090 0.426530 0.134200 -0.650155
O4    O     O_R   0.694910 0.573470 0.865800 -0.648841
O5    O     O_R   0.426530 0.134200 0.305090 -0.646902
O6    O     O_R   0.573470 0.865800 0.694910 -0.647404
O7    O     O_R   0.134190 0.426530 0.134200 -0.631103
O8    O     O_R   0.865810 0.573470 0.865800 -0.617336
O9    O     O_R   0.426530 0.134200 0.134190 -0.622818
O10   O     O_R   0.573470 0.865800 0.865810 -0.616230
O11   O     O_R   0.134200 0.134190 0.426530 -0.623802
O12   O     O_3   0.750000 0.750000 0.750000 -0.482066
O13   O     O_R   0.865800 0.865810 0.573470 -0.611522
O14   O     O_R   0.426530 0.305080 0.134210 -0.618765
O15   O     O_R   0.573470 0.694920 0.865790 -0.642946
O16   O     O_R   0.305080 0.134210 0.426530 -0.627853
O17   O     O_R   0.694920 0.865790 0.573470 -0.665953
O18   O     O_R   0.134210 0.426530 0.305080 -0.656146
O19   O     O_R   0.865790 0.573470 0.694920 -0.646863
O20   O     O_3   0.217385 0.541600 0.330224 -0.590405
O21   O     O_3   0.765648 0.537429 0.600832 -0.632201
O22   O     O_3   0.592509 0.355591 0.189371 -0.589715
O23   O     O_R   0.305080 0.134200 0.134200 -0.645071
O24   O     O_3   0.498887 0.618433 0.780923 -0.648388
O25   O     O_3   0.268502 0.144432 0.610857 -0.572375
O26   O     O_3   0.731562 0.903860 0.345380 -0.643071
O27   O     O_3   0.933575 0.632788 0.298954 -0.628635
O28   O     O_3   0.996544 0.319510 0.730693 -0.607869
O29   O     O_3   0.580587 0.273902 0.985836 -0.615464
O30   O     O_3   0.319031 0.729243 0.027480 -0.630727
O31   O     O_3   0.356891 0.868411 0.566115 -0.634562
O32   O     O_3   0.626916 0.105677 0.498490 -0.602118
O33   O     O_R   0.694920 0.865800 0.865800 -0.656718
O34   O     O_R   0.134200 0.134200 0.305080 -0.654258
O35   O     O_R   0.865800 0.865800 0.694920 -0.660089
O36   O     O_R   0.134200 0.305080 0.134200 -0.644137
O37   O     O_R   0.865800 0.694920 0.865800 -0.657350
O38   O     O_R   0.134200 0.305090 0.426530 -0.626074
Zn1   Zn    Zn3+2 0.206620 0.206630 0.380140 0.999438
Zn2   Zn    Zn3+2 0.793380 0.793370 0.619860 0.955630
Zn3   Zn    Zn3+2 0.206630 0.380140 0.206620 0.978893
Zn4   Zn    Zn3+2 0.793370 0.619860 0.793380 0.967831
Zn5   Zn    Zn3+2 0.380140 0.206620 0.206630 1.002685
Zn6   Zn    Zn3+2 0.619860 0.793380 0.793370 0.966279
Zn7   Zn    Zn3+2 0.206620 0.206620 0.206620 0.956394
Zn8   Zn    Zn3+2 0.793380 0.793380 0.793380 0.939895

loop_
_geom_bond_atom_site_label_1
_geom_bond_atom_site_label_2
_ccdc_geom_bond_type
C2    C35   A    
C68   C80   A    
C29   H98   S    
C32   C94   A    
C99   C106  A    
C51   O32   S    
C19   H69   S    
C88   O4    A    
C65   C79   A    
C15   H53   S    
C23   H82   S    
C48   C55   A    
C8    C83   S    
O1    Zn3   S    
C30   H100  S    
C99   H16   S    
C14   H47   S    
C1    C11   S    
C9    C72   S    
C29   H99   S    
C7    C124  A    
C93   H10   S    
C92   C125  A    
O9    Zn5   S    
C33   O21   S    
C53   C59   A    
C24   H33   S    
C87   O14   A    
C26   O27   S    
C106  C112  A    
C22   O24   S    
C68   C75   A    
C40   C46   A    
H58   N5    S    
C83   O8    A    
C77   C89   S    
C59   C105  A    
C22   H77   S    
C57   C64   A    
C26   H87   S    
C87   O3    A    
O13   Zn2   S    
C6    C61   S    
C34   O22   S    
C21   H75   S    
C55   H38   S    
C31   H4    S    
C44   C82   S    
C2    H31   S    
C102  H19   S    
C96   H12   S    
C42   C80   S    
C101  H18   S    
C16   H56   S    
C36   O25   S    
C38   C79   S    
C17   H62   S    
C34   C116  A    
C113  C120  A    
C55   C62   A    
O33   Zn8   S    
C72   O7    A    
C29   O30   S    
C112  N2    S    
O15   Zn6   S    
C69   C76   A    
O11   Zn1   S    
C28   H94   S    
O16   Zn1   S    
C108  C114  A    
C25   H85   S    
C35   C42   A    
C89   O5    A    
C93   C126  A    
C107  C113  A    
C38   C45   A    
C31   H5    S    
C1    O9    A    
C4    C96   A    
C114  C121  A    
H54   N4    S    
C28   H95   S    
C13   C63   A    
C56   H39   S    
C70   H7    S    
C9    C121  A    
O17   Zn2   S    
H41   N1    S    
C51   C57   A    
C32   C38   A    
C50   O11   A    
C68   H2    S    
O2    Zn2   S    
C96   C102  A    
C66   C73   A    
C41   C81   S    
C65   H70   S    
C59   H22   S    
C101  C108  A    
C118  C124  A    
H45   N2    S    
C23   O25   S    
C103  C110  A    
C24   C64   A    
C115  C122  A    
C108  H26   S    
C19   H68   S    
C31   O32   S    
C72   O36   A    
C43   C84   S    
C25   O26   S    
C35   O24   S    
O3    Zn3   S    
C34   C41   A    
O4    Zn4   S    
C27   H93   S    
C21   H76   S    
C110  C117  A    
C61   O35   A    
C111  N1    S    
C113  N3    S    
C1    O23   A    
C110  H48   S    
C73   C79   A    
C66   C78   A    
C50   O34   A    
C18   H65   S    
C16   H57   S    
C33   C40   A    
C95   H11   S    
C89   O16   A    
C20   H72   S    
C90   O6    A    
O1    Zn5   S    
C40   C78   S    
C7    C119  A    
C12   N1    S    
C111  C118  A    
C6    C125  A    
C13   C36   A    
C14   H46   S    
C3    C8    A    
C76   C82   A    
C67   C74   A    
C16   H55   S    
C43   C49   A    
C54   C60   A    
C57   H40   S    
C23   H83   S    
C45   C52   A    
C109  H59   S    
C65   C71   A    
H50   N3    S    
C106  H1    S    
C16   N4    S    
C86   O2    A    
O35   Zn8   S    
C98   H14   S    
C10   C39   S    
C86   O19   A    
O36   Zn7   S    
C25   H86   S    
C83   O37   A    
C20   H73   S    
C14   H49   S    
C37   O26   S    
C30   H102  S    
C104  C111  A    
C71   C86   S    
C19   O20   S    
C45   O27   S    
O34   Zn7   S    
C67   C81   A    
O12   Zn2   S    
C17   H60   S    
C94   H28   S    
C116  H30   S    
C18   H66   S    
O10   Zn6   S    
C24   C37   A    
C41   C47   A    
C56   C63   A    
C4    C122  A    
C30   O31   S    
C42   C48   A    
C54   H36   S    
C4    C11   A    
O12   Zn8   S    
H63   N6    S    
C93   C100  A    
C63   H25   S    
O14   Zn5   S    
C97   C103  A    
C120  C126  A    
C52   C58   A    
C64   H27   S    
C47   C54   A    
C119  C125  A    
C44   C51   A    
C75   C87   S    
O37   Zn8   S    
C105  H29   S    
C5    C97   A    
C19   H67   S    
C49   O31   S    
C91   C124  A    
C15   H51   S    
C23   H80   S    
C27   H90   S    
O1    Zn1   S    
O6    Zn6   S    
C60   C116  A    
C92   H9    S    
C61   O13   A    
O38   Zn1   S    
C21   H74   S    
C28   O29   S    
C13   H32   S    
C115  N5    S    
C85   O38   A    
C20   O21   S    
C76   C90   S    
C39   O10   A    
C73   C85   S    
C11   C123  A    
C29   H97   S    
C8    C120  A    
C70   C77   A    
C18   H64   S    
C100  C107  A    
C62   H24   S    
C15   N3    S    
C58   H21   S    
C30   H101  S    
C67   H92   S    
C75   C81   A    
C7    C50   S    
C107  H37   S    
C10   C122  A    
C100  H17   S    
C12   H42   S    
C112  C119  A    
C12   H44   S    
C18   N6    S    
C92   C99   A    
O23   Zn7   S    
C12   H43   S    
C17   N5    S    
C46   O28   S    
C49   C56   A    
O12   Zn6   S    
C90   O17   A    
C5    C123  A    
C36   C43   A    
C9    C126  A    
C77   C84   A    
C33   C105  A    
C22   H78   S    
C26   H88   S    
C47   O29   S    
O7    Zn3   S    
C37   C44   A    
O12   Zn4   S    
C58   C94   A    
O1    Zn7   S    
C5    C10   A    
C31   H3    S    
C69   C84   A    
O19   Zn4   S    
C114  N4    S    
C66   H81   S    
C27   O28   S    
C53   H35   S    
C91   H8    S    
C117  N6    S    
C17   H61   S    
C69   H6    S    
C98   C104  A    
O5    Zn5   S    
C46   C53   A    
C48   O30   S    
C39   O33   A    
C60   H23   S    
C91   C98   A    
C117  C123  A    
C25   H84   S    
C70   C82   A    
O18   Zn3   S    
C20   H71   S    
C14   N2    S    
C27   H91   S    
C109  C115  A    
O8    Zn4   S    
C3    C121  A    
C2    C62   A    
C22   H79   S    
C85   O18   A    
C28   H96   S    
C74   C80   A    
C15   H52   S    
C32   O20   S    
C104  H15   S    
C26   H89   S    
C102  C109  A    
C3    C95   A    
C74   C88   S    
C52   H34   S    
C97   H13   S    
C71   C78   A    
C95   C101  A    
C103  H20   S    
C6    C118  A    
C88   O15   A    
C21   O22   S    
