data_mof_unit_41320.cif
_audit_creation_date              2012-12-10T21:26:03-0500
_audit_creation_method            fapswitch 2.2
_symmetry_space_group_name_H-M    P1
_symmetry_Int_Tables_number       1
_space_group_crystal_system       triclinic
_cell_length_a                    8.592066
_cell_length_b                    16.116439
_cell_length_c                    16.780288
_cell_angle_alpha                 87.543494
_cell_angle_beta                  90.905609
_cell_angle_gamma                 101.056697
_cell_volume                      2278.330099

loop_
_atom_site_label
_atom_site_type_symbol
_atom_type_description
_atom_site_fract_x
_atom_site_fract_y
_atom_site_fract_z
_atom_type_partial_charge
C1    C     C_R   0.495101 0.488392 0.653029 0.938212
C2    C     C_R   0.504903 0.511609 0.346972 0.938202
C3    C     C_R   0.425651 0.756996 0.459972 -0.016819
C4    C     C_R   0.574354 0.243004 0.540026 -0.016796
C5    C     C_R   0.429778 0.844525 0.462306 -0.273323
C6    C     C_R   0.570228 0.155475 0.537691 -0.273291
C7    C     C_R   0.531808 0.893424 0.516775 0.328820
C8    C     C_R   0.468192 0.106576 0.483225 0.328808
C9    C     C_R   0.626428 0.851543 0.567153 -0.304366
C10   C     C_R   0.373566 0.148456 0.432849 -0.304376
C11   C     C_R   0.618567 0.763967 0.562828 -0.001566
C12   C     C_R   0.381428 0.236032 0.437174 -0.001565
C13   C     C_R   0.800930 0.521928 0.501017 0.974027
C14   C     C_R   0.199070 0.478072 0.498983 0.974028
C15   C     C_2   0.966838 0.533872 0.501479 -0.383055
C16   C     C_2   0.033162 0.466128 0.498520 -0.383058
C17   C     C_R   0.476709 0.479764 0.738850 -0.167483
C18   C     C_R   0.523338 0.520244 0.261153 -0.167387
C19   C     C_R   0.421992 0.543016 0.778569 -0.346189
C20   C     C_R   0.578156 0.457019 0.221444 -0.346205
C21   C     C_R   0.411803 0.538847 0.861492 0.474767
C22   C     C_R   0.588407 0.461201 0.138521 0.474726
C23   C     C_R   0.452243 0.468453 0.903841 0.120874
C24   C     C_R   0.547926 0.531581 0.096169 0.121011
C25   C     C_R   0.492733 0.401293 0.863635 0.490245
C26   C     C_R   0.507339 0.598721 0.136367 0.490267
C27   C     C_R   0.508802 0.408149 0.781036 -0.327855
C28   C     C_R   0.491202 0.591847 0.218965 -0.328023
H1    H     H_    0.033970 0.598225 0.504216 0.179719
H2    H     H_    0.966030 0.401775 0.495783 0.179716
H3    H     H_    0.613813 0.404805 0.254991 0.185952
H4    H     H_    0.386366 0.595241 0.745027 0.185965
H5    H     H_    0.549244 0.358447 0.750403 0.185555
H6    H     H_    0.450657 0.641520 0.249595 0.185469
H7    H     H_    0.652737 0.280188 0.581808 0.132091
H8    H     H_    0.347273 0.719813 0.418187 0.132078
H9    H     H_    0.646097 0.126852 0.578067 0.154309
H10   H     H_    0.353913 0.873150 0.421927 0.154297
H11   H     H_    0.706223 0.886702 0.609763 0.145201
H12   H     H_    0.293767 0.113297 0.390242 0.145195
H13   H     H_    0.692048 0.732424 0.601994 0.133230
H14   H     H_    0.307942 0.267574 0.398011 0.133231
N1    N     N_2   0.461904 0.466280 0.987374 -0.093731
N2    N     N_2   0.538293 0.533752 0.012636 -0.093582
N3    N     N_R   0.519180 0.718290 0.509780 -0.089292
N4    N     N_R   0.480820 0.281710 0.490220 -0.089299
N5    N     N_2   0.543706 0.983164 0.523267 -0.189084
N6    N     N_2   0.456294 0.016836 0.476733 -0.189090
O1    O     O_R   0.493140 0.422050 0.612640 -0.626729
O2    O     O_R   0.506860 0.577950 0.387360 -0.626733
O3    O     O_R   0.505450 0.562230 0.618920 -0.628370
O4    O     O_R   0.494550 0.437770 0.381080 -0.628372
O5    O     O_R   0.723530 0.446300 0.497600 -0.619923
O6    O     O_R   0.276470 0.553700 0.502400 -0.619918
O7    O     O_R   0.735850 0.586490 0.503880 -0.627108
O8    O     O_R   0.264150 0.413510 0.496120 -0.627108
Zn1   Zn    Zn3+2 0.491780 0.406400 0.495810 0.939164
Zn2   Zn    Zn3+2 0.508220 0.593600 0.504190 0.939160
O9    O     O_3   0.648799 0.401323 0.097773 -0.563634
C29   C     C_3   0.557569 0.319774 0.113663 -0.224238
H15   H     H_    0.587219 0.276803 0.068811 0.209640
H16   H     H_    0.427839 0.319043 0.108501 0.148562
H17   H     H_    0.587493 0.293914 0.173125 0.135089
O10   O     O_3   0.351502 0.598753 0.902246 -0.563605
C30   C     C_3   0.442810 0.680280 0.886346 -0.224096
H18   H     H_    0.572529 0.680969 0.891498 0.148603
H19   H     H_    0.413232 0.723270 0.931200 0.209635
H20   H     H_    0.412899 0.706148 0.826885 0.135048
O11   O     O_3   0.534556 0.333502 0.906143 -0.570591
C31   C     C_3   0.405280 0.264956 0.904400 -0.335436
H21   H     H_    0.377984 0.244025 0.842515 0.164858
H22   H     H_    0.298351 0.280937 0.932074 0.165566
H23   H     H_    0.437152 0.210834 0.939777 0.182793
O12   O     O_3   0.465450 0.666484 0.093836 -0.570533
C32   C     C_3   0.594360 0.735204 0.095903 -0.335419
H24   H     H_    0.701763 0.719441 0.068521 0.165497
H25   H     H_    0.620877 0.756120 0.157849 0.164841
H26   H     H_    0.562501 0.789267 0.060428 0.182798

loop_
_geom_bond_atom_site_label_1
_geom_bond_atom_site_label_2
_ccdc_geom_bond_type
C14   O8    A    
C2    C18   S    
C32   H24   S    
C23   N1    S    
C4    N4    A    
C27   H5    S    
C29   H17   S    
C29   H16   S    
C19   C21   A    
C24   C26   A    
C16   H2    S    
C15   C16   D    
C9    H11   S    
O1    Zn1   S    
O8    Zn1   S    
C10   H12   S    
C21   O10   S    
C12   H14   S    
C2    O2    A    
C26   O12   S    
C30   H19   S    
C31   H21   S    
C18   C20   A    
C9    C11   A    
C4    H7    S    
C28   H6    S    
O9    C29   S    
C5    H10   S    
C19   H4    S    
C10   C12   A    
C15   H1    S    
C13   O5    A    
N3    Zn2   S    
O12   C32   S    
C17   C27   A    
C18   C28   A    
C4    C6    A    
C22   O9    S    
C5    C7    A    
O5    Zn1   S    
C6    C8    A    
C3    N3    A    
C29   H15   S    
C7    N5    S    
N1    N2    D    
C8    N6    S    
C32   H25   S    
N5    N6    D    
C30   H20   S    
C31   H23   S    
C6    H9    S    
O3    Zn2   S    
C1    O3    A    
C2    O4    A    
C12   N4    A    
O2    Zn2   S    
C14   O6    A    
C20   C22   A    
C13   C15   S    
N4    Zn1   S    
C24   N2    S    
C14   C16   S    
C11   N3    A    
C25   O11   S    
O6    Zn2   S    
C7    C9    A    
C26   C28   A    
C3    C5    A    
C25   C27   A    
C1    C17   S    
O10   C30   S    
C21   C23   A    
C3    H8    S    
C17   C19   A    
C11   H13   S    
C22   C24   A    
C23   C25   A    
O11   C31   S    
C32   H26   S    
O4    Zn1   S    
C8    C10   A    
C30   H18   S    
O7    Zn2   S    
C31   H22   S    
C1    O1    A    
C13   O7    A    
C20   H3    S    
