data_mof_unit_61604.cif
_audit_creation_date              2012-12-11T15:44:45-0500
_audit_creation_method            fapswitch 2.2
_symmetry_space_group_name_H-M    P1
_symmetry_Int_Tables_number       1
_space_group_crystal_system       triclinic
_cell_length_a                    22.738738
_cell_length_b                    30.501255
_cell_length_c                    19.033523
_cell_angle_alpha                 90.005021
_cell_angle_beta                  124.014497
_cell_angle_gamma                 90.001659
_cell_volume                      10942.1665066

loop_
_atom_site_label
_atom_site_type_symbol
_atom_type_description
_atom_site_fract_x
_atom_site_fract_y
_atom_site_fract_z
_atom_type_partial_charge
C1    C     C_R   0.121580 0.385568 0.066087 -0.130694
C2    C     C_R   0.944280 0.388847 0.076207 -0.235966
C3    C     C_R   0.742703 0.000014 0.212563 0.089199
C4    C     C_R   0.016276 0.463257 0.223550 -0.113668
C5    C     C_R   0.016275 0.536749 0.223549 -0.114256
C6    C     C_R   0.516289 0.963257 0.223558 -0.114242
C7    C     C_R   0.516287 0.036749 0.223558 -0.113924
C8    C     C_R   0.804952 0.535810 0.773571 -0.080901
C9    C     C_R   0.804958 0.464137 0.773659 -0.113775
C10   C     C_R   0.304745 0.035832 0.773912 -0.087850
C11   C     C_R   0.304747 0.964141 0.773938 -0.100510
C12   C     C_R   0.444303 0.111168 0.076211 -0.237527
C13   C     C_R   0.444311 0.888829 0.076207 -0.235972
C14   C     C_R   0.011604 0.500005 0.263315 0.082923
C15   C     C_R   0.511628 0.000004 0.263332 0.082951
C16   C     C_R   0.766227 0.499951 0.729033 0.059769
C17   C     C_R   0.265869 0.999977 0.729589 0.056460
C18   C     C_R   0.885970 0.367016 0.008004 0.004970
C19   C     C_R   0.885946 0.632968 0.008009 0.006415
C20   C     C_R   0.386032 0.866978 0.008003 0.004861
C21   C     C_R   0.121587 0.614433 0.066098 -0.130200
C22   C     C_R   0.386017 0.133012 0.008010 0.005823
C23   C     C_3   0.471435 0.544907 0.412926 -0.535710
C24   C     C_3   0.503576 0.492310 0.337282 -0.508035
C25   C     C_3   0.982473 0.047581 0.385583 -0.509401
C26   C     C_3   0.999056 0.971568 0.348316 -0.538043
C27   C     C_3   0.580831 0.485570 0.415804 0.435913
C28   C     C_3   0.550216 0.546243 0.487897 0.410620
C29   C     C_3   0.077982 0.972968 0.425356 0.395542
C30   C     C_3   0.055510 0.048886 0.471326 0.403911
C31   C     C_1   0.708109 0.499892 0.644339 0.048899
C32   C     C_R   0.621498 0.885521 0.066071 -0.131166
C33   C     C_1   0.207282 0.999996 0.645214 0.070472
C34   C     C_3   0.453682 0.500060 0.367584 0.126684
C35   C     C_3   0.953293 0.000104 0.367264 0.179917
C36   C     C_3   0.585319 0.500083 0.498348 -0.284583
C37   C     C_3   0.084271 0.000594 0.499439 -0.237663
C38   C     C_R   0.057435 0.610547 0.926579 -0.125779
C39   C     C_R   0.057428 0.389451 0.926569 -0.125044
C40   C     C_R   0.557387 0.110574 0.926573 -0.125694
C41   C     C_R   0.557379 0.889423 0.926563 -0.124902
C42   C     C_3   0.540941 0.464935 0.511630 0.829932
C43   C     C_R   0.621507 0.114479 0.066083 -0.130907
C44   C     C_3   0.035033 0.977767 0.522937 0.838822
C45   C     C_3   0.464543 0.463245 0.429932 -0.497867
C46   C     C_3   0.956840 0.981376 0.445345 -0.633111
C47   C     C_1   0.655550 0.499906 0.575082 0.198478
C48   C     C_1   0.154470 0.000202 0.576222 0.263368
C49   C     C_1   0.379687 0.500060 0.299676 0.045766
C50   C     C_1   0.879488 0.000053 0.298866 0.046369
C51   C     C_1   0.316854 0.500046 0.255483 -0.051055
C52   C     C_1   0.816681 0.000034 0.254440 -0.053882
C53   C     C_1   0.153661 0.669378 0.994119 -0.032872
C54   C     C_R   0.874294 0.385233 0.934593 0.507896
C55   C     C_1   0.153636 0.330614 0.994090 -0.033746
C56   C     C_1   0.653539 0.169450 0.994102 -0.033129
C57   C     C_1   0.653508 0.830539 0.994072 -0.034336
C58   C     C_1   0.189629 0.699426 0.996559 0.017816
C59   C     C_1   0.189594 0.300562 0.996526 0.016627
C60   C     C_1   0.689495 0.199505 0.996542 0.017596
C61   C     C_1   0.689453 0.800478 0.996509 0.015959
C62   C     C_1   0.233288 0.734311 0.001468 0.015504
C63   C     C_1   0.233248 0.265672 0.001438 0.013911
C64   C     C_1   0.733153 0.234392 0.001455 0.015335
C65   C     C_R   0.874272 0.614748 0.934595 0.504318
C66   C     C_1   0.733103 0.765586 0.001424 0.013151
C67   C     C_1   0.770516 0.264092 0.005940 0.014195
C68   C     C_1   0.770464 0.735883 0.005918 0.012100
C69   C     C_1   0.270644 0.764015 0.005950 0.014292
C70   C     C_1   0.270604 0.235967 0.005928 0.012817
C71   C     C_1   0.813507 0.299222 0.010150 0.020437
C72   C     C_1   0.813460 0.700752 0.010141 0.018831
C73   C     C_1   0.313619 0.799154 0.010154 0.020602
C74   C     C_1   0.313585 0.200828 0.010147 0.019471
C75   C     C_R   0.977971 0.463169 0.773799 -0.128071
C76   C     C_R   0.374345 0.885204 0.934593 0.508266
C77   C     C_R   0.977960 0.536830 0.773796 -0.124248
C78   C     C_R   0.478028 0.963167 0.773840 -0.129312
C79   C     C_R   0.478020 0.036829 0.773837 -0.123562
C80   C     C_1   0.848252 0.329690 0.011330 0.051825
C81   C     C_1   0.848213 0.670288 0.011332 0.050372
C82   C     C_1   0.348344 0.829633 0.011330 0.052029
C83   C     C_1   0.348319 0.170351 0.011335 0.051000
C84   C     C_1   0.007446 0.500009 0.336194 -0.034257
C85   C     C_1   0.507509 0.000007 0.336238 -0.034519
C86   C     C_1   0.002862 0.500012 0.396474 0.017866
C87   C     C_R   0.374333 0.114783 0.934596 0.506573
C88   C     C_1   0.502958 0.000006 0.396543 0.017595
C89   C     C_1   0.996857 0.500013 0.466681 0.011918
C90   C     C_1   0.496988 0.000004 0.466774 0.011406
C91   C     C_1   0.991792 0.500012 0.526600 0.013183
C92   C     C_1   0.491942 0.000001 0.526707 0.012193
C93   C     C_1   0.986497 0.500008 0.597330 0.019158
C94   C     C_1   0.486651 0.999998 0.597440 0.020130
C95   C     C_1   0.983104 0.500003 0.658476 -0.028575
C96   C     C_1   0.483243 0.999997 0.658574 -0.025368
C97   C     C_R   0.200512 0.535955 0.193611 -0.117794
C98   C     C_R   0.944268 0.611148 0.076210 -0.237475
C99   C     C_R   0.200525 0.464066 0.193609 -0.119952
C100  C     C_R   0.700455 0.035946 0.193107 -0.118373
C101  C     C_R   0.700464 0.964069 0.193108 -0.120269
C102  C     C_R   0.113526 0.367187 0.994993 0.093589
C103  C     C_R   0.113539 0.632811 0.995011 0.093995
C104  C     C_R   0.613430 0.867130 0.994979 0.093874
C105  C     C_R   0.613445 0.132866 0.994997 0.094158
C106  C     C_R   0.981022 0.500000 0.732813 0.104269
C107  C     C_R   0.481119 0.999997 0.732882 0.104405
C108  C     C_R   0.242842 0.500020 0.213483 0.087656
H1    H     H_    0.154522 0.373090 0.130023 0.102504
H2    H     H_    0.437406 0.550318 0.437272 0.154941
H3    H     H_    0.979621 0.937110 0.336295 0.159865
H4    H     H_    0.945416 0.070407 0.388050 0.167679
H5    H     H_    0.590690 0.449666 0.420731 0.110946
H6    H     H_    0.551214 0.552519 0.546053 0.083464
H7    H     H_    0.094528 0.938818 0.448172 0.079010
H8    H     H_    0.044852 0.061727 0.517834 0.131866
H9    H     H_    0.424254 0.465738 0.445656 0.167283
H10   H     H_    0.454878 0.430968 0.397736 0.204724
H11   H     H_    0.926531 0.003460 0.460849 0.200369
H12   H     H_    0.154528 0.626917 0.130035 0.102297
H13   H     H_    0.929712 0.948976 0.430029 0.180832
H14   H     H_    0.031566 0.619247 0.860668 0.105100
H15   H     H_    0.031557 0.380749 0.860655 0.104288
H16   H     H_    0.531504 0.119276 0.860661 0.105143
H17   H     H_    0.531492 0.880718 0.860648 0.104306
H18   H     H_    0.971627 0.429613 0.752545 0.103644
H19   H     H_    0.971600 0.570384 0.752540 0.106008
H20   H     H_    0.471704 0.929610 0.752594 0.104143
H21   H     H_    0.471684 0.070384 0.752588 0.106406
H22   H     H_    0.217199 0.569718 0.204821 0.104943
H23   H     H_    0.654389 0.873021 0.129997 0.101462
H24   H     H_    0.217228 0.430307 0.204811 0.103751
H25   H     H_    0.717169 0.069702 0.204261 0.104203
H26   H     H_    0.717187 0.930316 0.204259 0.102491
H27   H     H_    0.021748 0.429749 0.244649 0.102268
H28   H     H_    0.021746 0.570260 0.244648 0.101073
H29   H     H_    0.521765 0.929748 0.244657 0.101951
H30   H     H_    0.521762 0.070260 0.244657 0.101304
H31   H     H_    0.795624 0.568801 0.749416 0.145127
H32   H     H_    0.795644 0.431121 0.749621 0.127334
H33   H     H_    0.295220 0.068847 0.749841 0.144005
H34   H     H_    0.654400 0.126983 0.130011 0.101899
H35   H     H_    0.295234 0.931114 0.749926 0.133237
H36   H     H_    0.972143 0.621111 0.141715 0.134009
H37   H     H_    0.972161 0.378888 0.141709 0.135622
H38   H     H_    0.472186 0.121129 0.141718 0.134298
H39   H     H_    0.472200 0.878871 0.141711 0.135407
H40   H     H_    0.502224 0.496934 0.568328 0.297594
H41   H     H_    0.612658 0.420579 0.583193 0.343131
H42   H     H_    0.014109 0.982475 0.609213 0.348837
H43   H     H_    0.032157 0.914427 0.496534 0.296168
H44   H     H_    0.858313 0.375258 0.826312 0.299213
H45   H     H_    0.458058 0.571599 0.366559 0.238274
H46   H     H_    0.858174 0.624675 0.826243 0.301737
H47   H     H_    0.358387 0.875273 0.826307 0.299153
H48   H     H_    0.358315 0.124693 0.826274 0.300946
H49   H     H_    0.610249 0.660227 0.531893 0.379067
H50   H     H_    0.759146 0.519622 0.474234 0.377768
H51   H     H_    0.153278 0.152625 0.541248 0.378804
H52   H     H_    0.248258 0.999566 0.453895 0.382034
H53   H     H_    0.500264 0.520872 0.298949 0.240856
H54   H     H_    0.986376 0.058576 0.332699 0.243349
H55   H     H_    0.993107 0.983396 0.289369 0.234706
H56   H     H_    0.486314 0.462880 0.295687 0.170724
N1    N     N_R   0.075400 0.419050 0.040930 -0.039882
N2    N     N_R   0.976800 0.523070 0.840160 -0.045207
N3    N     N_R   0.476800 0.976930 0.840160 -0.044835
N4    N     N_R   0.476800 0.023070 0.840160 -0.045397
N5    N     N_R   0.134210 0.520980 0.157560 -0.042670
N6    N     N_R   0.134210 0.479020 0.157560 -0.042134
N7    N     N_R   0.634210 0.020980 0.157560 -0.042568
N8    N     N_R   0.634210 0.979020 0.157560 -0.042160
N9    N     N_R   0.020160 0.476910 0.158980 -0.039257
N10   N     N_R   0.020160 0.523090 0.158980 -0.039135
N11   N     N_R   0.520160 0.976910 0.158980 -0.039147
N12   N     N_R   0.075400 0.580950 0.040930 -0.040158
N13   N     N_R   0.520160 0.023090 0.158980 -0.039107
N14   N     N_R   0.864590 0.520950 0.843300 -0.057984
N15   N     N_R   0.864590 0.479050 0.843300 -0.052230
N16   N     N_R   0.364590 0.020950 0.843300 -0.057208
N17   N     N_R   0.364590 0.979050 0.843300 -0.054830
N18   N     N_R   0.919150 0.419020 0.955970 -0.108651
N19   N     N_R   0.919150 0.580980 0.955970 -0.109985
N20   N     N_R   0.419150 0.919020 0.955970 -0.109087
N21   N     N_R   0.419150 0.080980 0.955970 -0.109737
N22   N     N_R   0.965610 0.578840 0.046310 -0.056288
N23   N     N_R   0.575400 0.919050 0.040930 -0.039712
N24   N     N_R   0.965610 0.421160 0.046310 -0.056734
N25   N     N_R   0.465610 0.078840 0.046310 -0.056329
N26   N     N_R   0.465610 0.921160 0.046310 -0.056612
N27   N     N_R   0.575400 0.080950 0.040930 -0.040010
N28   N     N_R   0.035610 0.578860 0.956800 -0.047791
N29   N     N_R   0.035610 0.421140 0.956800 -0.047664
N30   N     N_R   0.535610 0.078860 0.956800 -0.047826
N31   N     N_R   0.535610 0.921140 0.956800 -0.047666
N32   N     N_R   0.976800 0.476930 0.840160 -0.044581
Ni1   Ni    Ni4+2 0.047340 0.448440 0.099050 0.217197
Ni2   Ni    Ni4+2 0.047340 0.551560 0.099050 0.216006
Ni3   Ni    Ni4+2 0.547340 0.948440 0.099050 0.216718
Ni4   Ni    Ni4+2 0.547340 0.051560 0.099050 0.216120
Ni5   Ni    Ni4+2 0.950540 0.549450 0.900950 0.212176
Ni6   Ni    Ni4+2 0.950540 0.450550 0.900950 0.209865
Ni7   Ni    Ni4+2 0.450540 0.049450 0.900950 0.212117
Ni8   Ni    Ni4+2 0.450540 0.950550 0.900950 0.209975
O1    O     O_3   0.539706 0.474964 0.583587 -0.756311
O2    O     O_2   0.564335 0.608434 0.394131 -0.240994
O3    O     O_3   0.584387 0.634927 0.534840 -0.530471
O4    O     O_2   0.652025 0.473436 0.343118 -0.288361
O5    O     O_2   0.625872 0.549439 0.354647 -0.194414
O6    O     O_3   0.726761 0.509980 0.490551 -0.515056
O7    O     O_2   0.187785 0.073342 0.511285 -0.238625
O8    O     O_2   0.085511 0.110024 0.389707 -0.237805
O9    O     O_3   0.120349 0.130845 0.539917 -0.532640
O10   O     O_2   0.132840 0.951897 0.336566 -0.283258
O11   O     O_2   0.112898 0.029886 0.343649 -0.207905
O12   O     O_3   0.570823 0.422752 0.523740 -0.749415
O13   O     O_3   0.220227 0.992098 0.477523 -0.512699
O14   O     O_3   0.041452 0.999606 0.592308 -0.758683
O15   O     O_3   0.055634 0.933555 0.547350 -0.753731
O16   O     O_3   0.837055 0.365101 0.856808 -0.751860
O17   O     O_3   0.836965 0.634847 0.856786 -0.744614
O18   O     O_3   0.337179 0.865052 0.856824 -0.749248
O19   O     O_3   0.337128 0.134915 0.856816 -0.744978
O20   O     O_2   0.673594 0.586029 0.527445 -0.234158
S1    S     S_3+6 0.595459 0.594093 0.483896 0.012196
S2    S     S_3+6 0.646611 0.505860 0.398738 0.017525
S3    S     S_3+6 0.114466 0.090640 0.475781 0.011151
S4    S     S_3+6 0.136055 0.987749 0.392811 0.008994

loop_
_geom_bond_atom_site_label_1
_geom_bond_atom_site_label_2
_ccdc_geom_bond_type
C45   H10   S    
H50   O6    S    
C5    H28   S    
C66   C68   T    
N7    N8    A    
C58   C62   S    
N20   Ni8   S    
C55   C59   T    
C2    C18   A    
O6    S2    S    
N5    N6    A    
C36   C42   S    
C24   H53   S    
H49   O3    S    
C24   C27   S    
C14   C84   S    
C74   C83   T    
N16   Ni7   S    
C78   H20   S    
O20   S1    D    
C65   O17   S    
N14   N15   A    
C39   H15   S    
C87   N21   A    
C99   N6    A    
C30   H8    S    
C101  H26   S    
N16   N17   A    
C16   C31   S    
C12   N25   A    
C39   N29   A    
C55   C102  S    
C7    N13   A    
C78   N3    A    
N7    Ni4   S    
C99   H24   S    
N8    Ni3   S    
C8    H31   S    
H51   O9    S    
C77   C106  A    
C9    C16   A    
N2    N32   A    
C97   H22   S    
C21   H12   S    
C20   C82   S    
C32   N23   A    
C43   C105  A    
C9    H32   S    
N12   N28   A    
C6    N11   A    
C10   C17   A    
C79   H21   S    
C12   C22   A    
C26   H55   S    
C97   N5    A    
C20   C76   A    
C42   O1    S    
O11   S4    D    
C5    N10   A    
C12   H38   S    
C57   C61   T    
C57   C104  S    
C25   H4    S    
O4    S2    D    
C6    C15   A    
C97   C108  A    
N1    N29   A    
C3    C100  A    
O3    S1    S    
C75   C106  A    
C51   C108  S    
C49   C51   T    
N13   Ni4   S    
C11   N17   A    
C70   C74   S    
C50   C52   T    
N28   Ni5   S    
C54   N18   A    
C46   H13   S    
C69   C73   S    
C79   N4    A    
C89   C91   T    
O10   S4    D    
C67   C71   S    
C72   C81   T    
C9    N15   A    
C15   C85   S    
C1    H1    S    
C101  N8    A    
C21   N12   A    
C7    C15   A    
C32   C104  A    
C29   H7    S    
C43   N27   A    
C8    C16   A    
O7    S3    D    
C53   C103  S    
C100  N7    A    
O8    S3    D    
C24   H56   S    
C44   O15   S    
C17   C33   S    
C35   C50   S    
C61   C66   S    
C71   C80   T    
C19   C98   A    
C44   C46   S    
N26   Ni3   S    
C40   H16   S    
N2    Ni5   S    
N10   Ni2   S    
C63   C70   T    
N9    Ni1   S    
N19   Ni5   S    
C64   C67   T    
C41   H17   S    
C28   C36   S    
C44   O14   S    
N27   Ni4   S    
N11   N13   A    
N19   N22   A    
N3    N4    A    
C40   N30   A    
N31   Ni8   S    
C76   O18   S    
C77   N2    A    
C23   C28   S    
C24   C34   S    
N29   Ni6   S    
C56   C60   T    
C30   C37   S    
N23   Ni3   S    
C78   C107  A    
C2    H37   S    
C10   H33   S    
C87   O19   S    
C38   C103  A    
O9    S3    S    
C95   C106  S    
N1    Ni1   S    
C91   C93   S    
C90   C92   T    
H52   O13   S    
N15   Ni6   S    
C1    N1    A    
C25   H54   S    
C68   C72   S    
C23   C34   S    
O2    S1    D    
C92   C94   S    
H42   O14   S    
C75   N32   A    
C79   C107  A    
C34   C45   S    
N18   N24   A    
N3    Ni8   S    
C37   C48   S    
C94   C96   T    
N11   Ni3   S    
C5    C14   A    
C38   H14   S    
C28   H6    S    
H40   O1    S    
C25   C35   S    
C4    H27   S    
C27   H5    S    
N25   Ni4   S    
C96   C107  S    
C88   C90   S    
C38   N28   A    
C4    N9    A    
H48   O19   S    
C26   H3    S    
H43   O15   S    
C36   C47   S    
C40   C105  A    
N17   Ni8   S    
O5    S2    D    
C13   H39   S    
C99   C108  A    
N32   Ni6   S    
C73   C82   T    
C100  H25   S    
C39   C102  A    
C65   N19   A    
C85   C88   T    
C45   H9    S    
C25   C30   S    
C23   H2    S    
C11   C17   A    
C34   C49   S    
C13   C20   A    
N23   N31   A    
N18   Ni6   S    
C30   S3    S    
N22   Ni2   S    
N12   Ni2   S    
C43   H34   S    
C86   C89   S    
C22   C87   A    
C28   S1    S    
C7    H30   S    
N21   N25   A    
C53   C58   T    
C41   C104  A    
C27   S2    S    
C54   O16   S    
C27   C36   S    
C59   C63   S    
N4    Ni7   S    
C60   C64   S    
C75   H18   S    
C10   N16   A    
C22   C83   S    
N21   Ni7   S    
C6    H29   S    
C23   H45   S    
H41   O12   S    
C98   N22   A    
C76   N20   A    
C3    C52   S    
C3    C101  A    
C93   C95   T    
N24   Ni1   S    
C37   C44   S    
H46   O17   S    
N30   Ni7   S    
H44   O16   S    
C13   N26   A    
C46   H11   S    
C19   C65   A    
N20   N26   A    
N6    Ni1   S    
C4    C14   A    
C2    N24   A    
C56   C105  S    
N27   N30   A    
C42   O12   S    
C77   H19   S    
C18   C54   A    
O13   S4    S    
N9    N10   A    
C21   C103  A    
C8    N14   A    
C26   C35   S    
C62   C69   T    
C26   C29   S    
C18   C80   S    
C98   H36   S    
N14   Ni5   S    
C29   C37   S    
C33   C48   T    
C84   C86   T    
H47   O18   S    
C31   C47   T    
C29   S4    S    
C19   C81   S    
C35   C46   S    
C11   H35   S    
C1    C102  A    
C42   C45   S    
C32   H23   S    
N5    Ni2   S    
C41   N31   A    
