data_mof_unit_46803.cif
_audit_creation_date              2012-12-10T17:19:56-0500
_audit_creation_method            fapswitch 2.2
_symmetry_space_group_name_H-M    P1
_symmetry_Int_Tables_number       1
_space_group_crystal_system       triclinic
_cell_length_a                    9.640617
_cell_length_b                    10.816954
_cell_length_c                    15.469444
_cell_angle_alpha                 85.444093
_cell_angle_beta                  74.212485
_cell_angle_gamma                 89.194114
_cell_volume                      1547.3797456

loop_
_atom_site_label
_atom_site_type_symbol
_atom_type_description
_atom_site_fract_x
_atom_site_fract_y
_atom_site_fract_z
_atom_type_partial_charge
C1    C     C_R   0.998220 0.262430 0.506280 0.780836
C2    C     C_R   0.675776 0.483139 0.908031 0.043697
C3    C     C_R   0.767825 0.425423 0.956815 0.159041
C4    C     C_R   0.527765 0.503171 0.952528 0.082463
C5    C     C_R   0.477211 0.476700 0.047576 0.070393
C6    C     C_R   0.574348 0.425119 0.094383 -0.242022
C7    C     C_R   0.715587 0.398826 0.049727 -0.210459
C8    C     C_R   0.427168 0.543026 0.904470 -0.220312
C9    C     C_R   0.282479 0.557206 0.947944 -0.256569
C10   C     C_R   0.232189 0.534098 0.040899 0.162915
C11   C     C_R   0.329572 0.497954 0.092136 0.094156
C12   C     C_R   0.918452 0.497094 0.671943 0.772224
C13   C     C_R   0.084633 0.545906 0.083196 -0.187069
C14   C     C_R   0.033077 0.527203 0.176492 -0.143454
C15   C     C_R   0.275662 0.486016 0.186463 -0.266236
C16   C     C_R   0.134112 0.112560 0.629883 -0.178587
C17   C     C_R   0.202081 0.040610 0.684822 -0.142946
C18   C     C_R   0.200960 0.912146 0.685247 -0.128312
C19   C     C_R   0.131709 0.854647 0.630834 -0.176036
C20   C     C_R   0.065110 0.925510 0.572542 0.091199
C21   C     C_R   0.066715 0.056858 0.571906 0.109795
C22   C     C_R   0.994496 0.127668 0.516395 -0.106284
C23   C     C_R   0.996395 0.736469 0.506814 0.841283
C24   C     C_R   0.910077 0.069055 0.471449 -0.208711
C25   C     C_R   0.905361 0.941959 0.474235 -0.161780
C26   C     C_R   0.989804 0.869365 0.518508 -0.126540
C27   C     C_R   0.697085 0.629844 0.348241 0.372232
C28   C     C_R   0.646591 0.663371 0.273165 -0.217410
C29   C     C_R   0.501688 0.676891 0.283634 -0.278095
C30   C     C_R   0.407317 0.642492 0.365929 -0.122506
C31   C     C_R   0.452108 0.569146 0.432709 0.167392
C32   C     C_R   0.603146 0.566756 0.429167 0.122890
C33   C     C_R   0.546207 0.436221 0.565459 -0.057783
C34   C     C_R   0.082077 0.498895 0.327927 0.855809
C35   C     C_R   0.399054 0.435228 0.564876 -0.059430
C36   C     C_R   0.873592 0.481993 0.770521 -0.064854
C37   C     C_R   0.129238 0.502239 0.228914 -0.050317
C38   C     C_R   0.909738 0.392303 0.911296 0.136369
C39   C     C_R   0.961548 0.421026 0.818380 -0.258019
C40   C     C_R   0.734173 0.515768 0.815553 -0.256014
Cu1   Cu    Cu3+1 0.140660 0.499990 0.500010 0.932298
Cu2   Cu    Cu3+1 0.859340 0.500010 0.499990 0.977596
H1    H     H_    0.783759 0.356351 0.088893 0.184135
H2    H     H_    0.009093 0.570070 0.044035 0.145700
H3    H     H_    0.848962 0.122032 0.432119 0.170997
H4    H     H_    0.131118 0.211222 0.636242 0.140107
H5    H     H_    0.253029 0.084712 0.728823 0.128960
H6    H     H_    0.250989 0.856545 0.729616 0.134648
H7    H     H_    0.126800 0.754612 0.638052 0.159837
H8    H     H_    0.837298 0.901581 0.439229 0.223343
H9    H     H_    0.578133 0.383359 0.619135 0.135994
H10   H     H_    0.718702 0.701972 0.210357 0.190298
H11   H     H_    0.346516 0.467888 0.228841 0.165486
H12   H     H_    0.462872 0.722133 0.229772 0.181546
H13   H     H_    0.299733 0.673253 0.373327 0.215183
H14   H     H_    0.321962 0.381705 0.618143 0.117946
H15   H     H_    0.918988 0.536024 0.207393 0.166617
H16   H     H_    0.208954 0.585543 0.908158 0.146891
H17   H     H_    0.068519 0.391320 0.783312 0.144034
H18   H     H_    0.673510 0.567419 0.776067 0.152179
H19   H     H_    0.543404 0.397883 0.165501 0.153734
H20   H     H_    0.454825 0.559126 0.832243 0.142051
N1    N     N_R   0.648320 0.501210 0.499140 -0.187532
N2    N     N_R   0.352470 0.501290 0.499110 -0.191264
O1    O     O_R   0.118810 0.319640 0.500010 -0.579481
O2    O     O_R   0.881240 0.319660 0.500000 -0.581457
O3    O     O_R   0.055570 0.499980 0.629840 -0.603232
O4    O     O_R   0.818000 0.500010 0.629830 -0.587880
O5    O     O_R   0.118760 0.680340 0.500000 -0.612645
O6    O     O_R   0.881190 0.680360 0.499990 -0.519771
O7    O     O_R   0.182000 0.499990 0.370170 -0.604690
O8    O     O_R   0.944430 0.500020 0.370160 -0.542623
Cl1   Cl    Cl    0.848295 0.724085 0.336322 -0.681994
N3    N     N_3   0.997864 0.321767 0.958044 -0.611753
H21   H     H_    0.017774 0.236021 0.930406 0.225556
H22   H     H_    0.096934 0.367271 0.945193 0.226240

loop_
_geom_bond_atom_site_label_1
_geom_bond_atom_site_label_2
_ccdc_geom_bond_type
C8    C9    A    
C16   C21   A    
C40   H18   S    
C34   C37   S    
Cu1   Cu2   S    
C23   O5    A    
C19   C20   A    
C4    C8    A    
Cu1   O3    S    
C12   O4    A    
N3    H22   S    
C24   H3    S    
C15   H11   S    
C6    H19   S    
C28   C29   A    
C5    C11   A    
C3    C7    A    
C5    C6    A    
C29   H12   S    
Cu2   O6    S    
C9    H16   S    
C23   C26   S    
C25   H8    S    
C15   C37   A    
C13   C14   A    
C11   C15   A    
C3    C38   A    
C16   C17   A    
C1    O1    A    
C35   N2    A    
C7    H1    S    
C12   C36   S    
C9    C10   A    
Cu1   O7    S    
C27   C32   A    
C1    C22   S    
C21   C22   A    
Cu2   O4    S    
C23   O6    A    
C17   C18   A    
C38   C39   A    
C12   O3    A    
N3    H21   S    
C36   C40   A    
C24   C25   A    
C16   H4    S    
C18   C19   A    
Cu1   O1    S    
C25   C26   A    
C2    C4    A    
C29   C30   A    
C19   H7    S    
C31   C32   A    
C33   N1    A    
C39   H17   S    
Cu2   O8    S    
C1    O2    A    
C22   C24   A    
C34   O8    A    
Cu1   O5    S    
C38   N3    S    
C14   H15   S    
C35   H14   S    
C31   N2    A    
C36   C39   A    
C17   H5    S    
C32   N1    A    
C4    C5    A    
C10   C13   A    
C18   H6    S    
C6    C7    A    
C33   H9    S    
C30   H13   S    
C2    C3    A    
C14   C37   A    
C28   H10   S    
C30   C31   A    
C20   C26   A    
C34   O7    A    
C33   C35   A    
C10   C11   A    
C2    C40   A    
C20   C21   A    
C27   C28   A    
Cu2   O2    S    
Cu1   N2    S    
C27   Cl1   S    
Cu2   N1    S    
C13   H2    S    
C8    H20   S    
