data_mof_unit_63542.cif
_audit_creation_date              2012-12-10T17:27:35-0500
_audit_creation_method            fapswitch 2.2
_symmetry_space_group_name_H-M    P1
_symmetry_Int_Tables_number       1
_space_group_crystal_system       triclinic
_cell_length_a                    42.635406
_cell_length_b                    29.424774
_cell_length_c                    29.419799
_cell_angle_alpha                 89.999187
_cell_angle_beta                  133.892131
_cell_angle_gamma                 90.009268
_cell_volume                      26597.7814807

loop_
_atom_site_label
_atom_site_type_symbol
_atom_type_description
_atom_site_fract_x
_atom_site_fract_y
_atom_site_fract_z
_atom_type_partial_charge
C1    C     C_R   0.499980 0.585483 0.499998 0.824998
C2    C     C_R   0.499975 0.414517 0.499994 0.825493
C3    C     C_R   0.999981 0.085483 0.500000 0.825185
C4    C     C_R   0.999974 0.914516 0.499993 0.825479
C5    C     C_3   0.204602 0.501230 0.205878 0.032239
C6    C     C_3   0.704602 0.001277 0.205995 0.032247
C7    C     C_3   0.232208 0.512422 0.191400 -0.227303
C8    C     C_3   0.732184 0.016531 0.192768 -0.227366
C9    C     C_1   0.335149 0.501208 0.335788 -0.018521
C10   C     C_1   0.835149 0.001357 0.335848 -0.018578
C11   C     C_1   0.158662 0.500526 0.159661 0.050100
C12   C     C_1   0.658662 0.000542 0.159727 0.050144
C13   C     C_1   0.499960 0.636530 0.499952 -0.207173
C14   C     C_1   0.499951 0.363470 0.499943 -0.206590
C15   C     C_1   0.999962 0.136530 0.499954 -0.206972
C16   C     C_1   0.999950 0.863470 0.499942 -0.206665
C17   C     C_1   0.499946 0.678852 0.499935 0.002206
C18   C     C_1   0.499937 0.321148 0.499925 0.002534
C19   C     C_1   0.999949 0.178852 0.499938 0.002357
C20   C     C_1   0.999937 0.821148 0.499923 0.002527
C21   C     C_1   0.499937 0.729017 0.499932 0.004087
C22   C     C_1   0.499932 0.270983 0.499924 0.004416
C23   C     C_1   0.999940 0.229017 0.499934 0.004186
C24   C     C_1   0.999932 0.770983 0.499923 0.004419
C25   C     C_1   0.499934 0.771338 0.499936 0.004255
C26   C     C_1   0.499936 0.228662 0.499936 0.004477
C27   C     C_1   0.999936 0.271339 0.499937 0.004315
C28   C     C_1   0.999936 0.728662 0.499934 0.004483
C29   C     C_1   0.499935 0.821504 0.499947 0.003732
C30   C     C_1   0.499948 0.178496 0.499958 0.003755
C31   C     C_1   0.999936 0.321504 0.499948 0.003767
C32   C     C_1   0.999948 0.678496 0.499957 0.003781
C33   C     C_1   0.499940 0.863826 0.499960 -0.198318
C34   C     C_1   0.499957 0.136174 0.499976 -0.198394
C35   C     C_1   0.999940 0.363826 0.499960 -0.198284
C36   C     C_1   0.999957 0.636174 0.499975 -0.198349
C37   C     C_R   0.418283 0.499963 0.418471 0.861954
C38   C     C_R   0.918283 0.999982 0.418472 0.862110
C39   C     C_1   0.635088 0.499997 0.634727 -0.203388
C40   C     C_1   0.135088 0.999997 0.634727 -0.203403
C41   C     C_1   0.676568 0.499995 0.676193 0.014084
C42   C     C_1   0.176568 0.999995 0.676193 0.014074
C43   C     C_1   0.726139 0.499993 0.725836 0.002390
C44   C     C_1   0.226139 0.999993 0.725836 0.002385
C45   C     C_1   0.767620 0.499991 0.767402 0.002358
C46   C     C_1   0.267620 0.999991 0.767402 0.002357
C47   C     C_1   0.817192 0.499989 0.817087 0.013938
C48   C     C_1   0.317192 0.999989 0.817087 0.013942
C49   C     C_1   0.858672 0.499989 0.858660 -0.203167
C50   C     C_1   0.358672 0.999989 0.858660 -0.203156
C51   C     C_R   0.994845 0.500000 0.080450 0.829336
C52   C     C_R   0.494846 1.000000 0.080451 0.829241
C53   C     C_R   0.075493 0.500012 0.075546 0.860245
C54   C     C_R   0.575493 0.000011 0.075531 0.860219
C55   C     C_R   0.993225 0.500000 0.907791 0.823011
C56   C     C_R   0.493225 0.000000 0.907791 0.823077
C57   C     C_R   0.909163 0.499996 0.909249 0.809571
C58   C     C_R   0.409163 0.999996 0.909249 0.809558
C59   C     C_R   0.584599 0.500000 0.584479 0.811301
C60   C     C_R   0.084599 1.000000 0.584479 0.811308
C61   C     C_R   0.499089 0.000000 0.414035 0.815914
C62   C     C_R   0.999089 0.500000 0.414035 0.815916
C63   C     C_R   0.499953 0.914873 0.499981 0.815666
C64   C     C_R   0.499960 0.085127 0.499988 0.815551
C65   C     C_R   0.999953 0.414873 0.499981 0.815646
C66   C     C_R   0.999960 0.585127 0.499987 0.815546
C67   C     C_R   0.500757 1.000000 0.585893 0.815345
C68   C     C_R   0.000757 0.500000 0.585893 0.815319
C69   C     C_1   0.995598 0.500001 0.132240 -0.200096
C70   C     C_1   0.495600 0.000001 0.132242 -0.200267
C71   C     C_1   0.996233 0.500001 0.175192 0.006846
C72   C     C_1   0.496235 0.000002 0.175195 0.006636
C73   C     C_1   0.996980 0.500002 0.226094 0.007172
C74   C     C_1   0.496982 0.000003 0.226096 0.006972
C75   C     C_1   0.497590 0.000003 0.269022 0.005992
C76   C     C_1   0.997588 0.500002 0.269020 0.006151
C77   C     C_1   0.498262 0.000002 0.319850 0.004515
C78   C     C_1   0.998261 0.500002 0.319848 0.004635
C79   C     C_1   0.498737 0.000001 0.362643 -0.198036
C80   C     C_1   0.998736 0.500001 0.362643 -0.197938
C81   C     C_1   0.994231 0.500001 0.857734 -0.204900
C82   C     C_1   0.494231 0.000001 0.857734 -0.204788
C83   C     C_3   0.232645 0.531973 0.263881 0.355851
C84   C     C_3   0.233308 0.460444 0.245706 0.424147
C85   C     C_3   0.732653 0.028980 0.266841 0.355962
C86   C     C_3   0.733322 0.959623 0.241799 0.424127
C87   C     C_1   0.995392 0.500001 0.816576 0.003390
C88   C     C_1   0.495392 0.000001 0.816576 0.003462
C89   C     C_1   0.996927 0.500001 0.767949 0.004720
C90   C     C_1   0.496928 0.000001 0.767950 0.004758
C91   C     C_1   0.498223 0.000001 0.726931 0.004597
C92   C     C_1   0.998223 0.500001 0.726931 0.004579
C93   C     C_1   0.499627 0.000000 0.678168 0.003961
C94   C     C_1   0.999627 0.500000 0.678167 0.003957
C95   C     C_1   0.500499 0.000000 0.636711 -0.198610
C96   C     C_1   0.000499 0.500000 0.636711 -0.198600
C97   C     C_3   0.261123 0.543691 0.250519 -0.309064
C98   C     C_3   0.261307 0.470667 0.231629 -0.270916
C99   C     C_3   0.761111 0.044735 0.254783 -0.309062
C100  C     C_3   0.761296 0.973912 0.228879 -0.270944
C101  C     C_1   0.373340 0.500611 0.373835 -0.196054
C102  C     C_1   0.873340 0.000708 0.373851 -0.196052
C103  C     C_1   0.120458 0.500122 0.121025 -0.171911
C104  C     C_1   0.620458 0.000123 0.121049 -0.171896
C105  C     C_3   0.261290 0.490975 0.303957 0.353080
C106  C     C_3   0.761311 0.987085 0.302870 0.353068
C107  C     C_3   0.289235 0.501657 0.290170 -0.007604
C108  C     C_3   0.789235 0.001798 0.290285 -0.007628
Cu1   Cu    Cu3+1 0.500480 0.500000 0.542990 0.956044
Cu2   Cu    Cu3+1 0.000480 1.000000 0.542990 0.955822
Cu3   Cu    Cu3+1 0.499450 0.500000 0.457010 0.961524
Cu4   Cu    Cu3+1 0.999450 0.000000 0.457010 0.961481
Cu5   Cu    Cu3+1 0.993800 0.542460 0.993900 0.963633
Cu6   Cu    Cu3+1 0.993800 0.457540 0.993900 0.969688
Cu7   Cu    Cu3+1 0.493800 0.042460 0.993900 0.963219
Cu8   Cu    Cu3+1 0.493800 0.957540 0.993900 0.970306
Cu9   Cu    Cu3+1 0.458020 0.000000 0.458050 0.961896
Cu10  Cu    Cu3+1 0.958020 0.500000 0.458050 0.961967
Cu11  Cu    Cu3+1 0.541920 1.000000 0.541950 0.963105
Cu12  Cu    Cu3+1 0.041920 0.500000 0.541950 0.963245
H1    H     H_    0.274348 0.577345 0.253783 0.150562
H2    H     H_    0.274384 0.445775 0.219944 0.154093
H3    H     H_    0.774325 0.079208 0.261353 0.150506
H4    H     H_    0.774361 0.951554 0.214869 0.154215
H5    H     H_    0.218762 0.521219 0.143990 0.167311
H6    H     H_    0.718719 0.028580 0.146364 0.167376
O1    O     O_R   0.500410 0.561970 0.536310 -0.562641
O2    O     O_R   0.500410 0.438030 0.536310 -0.561791
O3    O     O_R   0.000410 0.061970 0.536310 -0.562688
O4    O     O_R   0.000410 0.938030 0.536310 -0.561789
O5    O     O_R   0.932590 0.535860 0.932690 -0.557624
O6    O     O_R   0.932590 0.464140 0.932690 -0.557592
O7    O     O_R   0.432590 0.035860 0.932690 -0.557614
O8    O     O_R   0.432590 0.964140 0.932690 -0.557587
O9    O     O_R   0.463790 0.000000 0.401850 -0.558534
O10   O     O_R   0.963790 0.500000 0.401850 -0.558544
O11   O     O_R   0.534640 1.000000 0.472710 -0.558248
O12   O     O_R   0.034640 0.500000 0.472710 -0.558187
O13   O     O_R   0.464530 0.938000 0.464560 -0.558887
O14   O     O_R   0.464530 0.062000 0.464560 -0.558686
O15   O     O_R   0.964530 0.438000 0.464560 -0.558875
O16   O     O_R   0.964530 0.562000 0.464560 -0.558690
O17   O     O_R   0.535390 0.937990 0.535420 -0.558099
O18   O     O_R   0.535390 0.062010 0.535420 -0.558332
O19   O     O_R   0.035390 0.437990 0.535420 -0.558097
O20   O     O_R   0.035390 0.562010 0.535420 -0.558304
O21   O     O_R   0.465290 0.000000 0.527290 -0.558549
O22   O     O_R   0.965290 0.500000 0.527290 -0.558544
O23   O     O_R   0.536150 1.000000 0.598150 -0.558227
O24   O     O_R   0.036150 0.500000 0.598150 -0.558232
O25   O     O_R   0.499540 0.561910 0.463710 -0.560577
O26   O     O_R   0.499540 0.438090 0.463710 -0.561195
O27   O     O_R   0.999540 0.061910 0.463710 -0.560534
O28   O     O_R   0.999540 0.938090 0.463710 -0.561239
O29   O     O_R   0.439190 0.500000 0.475090 -0.579982
O30   O     O_R   0.939190 1.000000 0.475090 -0.580187
O31   O     O_R   0.438320 0.500000 0.402480 -0.574602
O32   O     O_R   0.938320 0.000000 0.402480 -0.574602
O33   O     O_R   0.561610 0.500000 0.597520 -0.556924
O34   O     O_R   0.061610 0.000000 0.597520 -0.556931
O35   O     O_R   0.560740 0.500000 0.524910 -0.556884
O36   O     O_R   0.060740 0.000000 0.524910 -0.556889
O37   O     O_R   0.994560 0.535840 0.056620 -0.561564
O38   O     O_R   0.994560 0.464160 0.056620 -0.559858
O39   O     O_R   0.494560 0.035840 0.056620 -0.561682
O40   O     O_R   0.494560 0.964160 0.056620 -0.559792
O41   O     O_R   0.055010 0.535850 0.055100 -0.577118
O42   O     O_R   0.055010 0.464150 0.055100 -0.570922
O43   O     O_R   0.555010 0.035850 0.055100 -0.577790
O44   O     O_R   0.555010 0.964150 0.055100 -0.570250
O45   O     O_R   0.993040 0.535870 0.931160 -0.562350
O46   O     O_R   0.993040 0.464130 0.931160 -0.561588
O47   O     O_R   0.493040 0.035870 0.931160 -0.562396
O48   O     O_R   0.493040 0.964130 0.931160 -0.561469
O49   O     O_3   0.213484 0.560719 0.277479 -0.605668
C109  C     C_3   0.233269 0.603906 0.296253 0.036573
H7    H     H_    0.224465 0.621699 0.255290 0.156926
H8    H     H_    0.269357 0.601083 0.335199 0.120897
C110  C     C_3   0.216730 0.631867 0.319810 -0.310142
H9    H     H_    0.180760 0.635259 0.281401 0.230821
H10   H     H_    0.224822 0.614057 0.360179 0.216999
C111  C     C_3   0.237166 0.679131 0.341004 -0.922843
H11   H     H_    0.228948 0.697842 0.301094 0.257740
H12   H     H_    0.273109 0.676537 0.380294 0.255774
H13   H     H_    0.224447 0.698561 0.357723 0.260592
O50   O     O_3   0.215465 0.418152 0.240593 -0.598297
C112  C     C_3   0.248501 0.384874 0.277530 0.109444
H14   H     H_    0.243983 0.367028 0.305933 0.174146
H15   H     H_    0.282320 0.398814 0.311803 0.143346
C113  C     C_3   0.243775 0.350342 0.234243 -0.371269
H16   H     H_    0.210979 0.334470 0.202975 0.236384
H17   H     H_    0.246913 0.367890 0.204131 0.216394
C114  C     C_3   0.278336 0.313243 0.272128 -0.910146
H18   H     H_    0.311403 0.328291 0.302690 0.256803
H19   H     H_    0.273878 0.288666 0.239391 0.262361
H20   H     H_    0.275406 0.294719 0.301943 0.258948
O51   O     O_3   0.713497 0.054384 0.283097 -0.605834
C115  C     C_3   0.733258 0.097487 0.306040 0.036416
H21   H     H_    0.724438 0.118307 0.266940 0.156958
H22   H     H_    0.769348 0.094437 0.344694 0.121021
C116  C     C_3   0.716712 0.121409 0.332115 -0.310150
H23   H     H_    0.680738 0.124976 0.294052 0.230775
H24   H     H_    0.724824 0.100563 0.370624 0.217020
C117  C     C_3   0.737114 0.168402 0.357852 -0.922783
H25   H     H_    0.728873 0.190088 0.319886 0.257746
H26   H     H_    0.773060 0.165541 0.396869 0.255722
H27   H     H_    0.724390 0.184869 0.376316 0.260611
O52   O     O_3   0.715495 0.916279 0.232531 -0.598229
C118  C     C_3   0.748544 0.882809 0.266241 0.109496
H28   H     H_    0.744043 0.861867 0.292786 0.174192
H29   H     H_    0.782360 0.896669 0.301839 0.143268
C119  C     C_3   0.743818 0.852155 0.219803 -0.371291
H30   H     H_    0.711023 0.836193 0.186997 0.236390
H31   H     H_    0.746957 0.872830 0.191540 0.216378
C120  C     C_3   0.778380 0.814925 0.254094 -0.910093
H32   H     H_    0.811448 0.830160 0.286122 0.256820
H33   H     H_    0.773925 0.793189 0.219119 0.262342
H34   H     H_    0.775450 0.793327 0.281968 0.258954
O53   O     O_3   0.277399 0.476118 0.362569 -0.611749
C121  C     C_3   0.296327 0.512757 0.405356 0.078291
H35   H     H_    0.270253 0.533522 0.395106 0.182130
H36   H     H_    0.316504 0.534750 0.403099 0.127090
C122  C     C_3   0.325646 0.493971 0.472267 -0.326220
H37   H     H_    0.306080 0.472372 0.475929 0.229950
H38   H     H_    0.351532 0.472593 0.482784 0.227067
C123  C     C_3   0.346825 0.532188 0.520766 -0.923344
H39   H     H_    0.367335 0.553635 0.518849 0.258070
H40   H     H_    0.367772 0.517451 0.568801 0.261549
H41   H     H_    0.321520 0.553697 0.511606 0.256731
O54   O     O_3   0.777439 0.968173 0.359847 -0.611860
C124  C     C_3   0.796375 0.002327 0.406086 0.078016
H42   H     H_    0.770306 0.021454 0.397783 0.182177
H43   H     H_    0.816557 0.026397 0.406073 0.127462
C125  C     C_3   0.825688 0.979987 0.470990 -0.326027
H44   H     H_    0.806114 0.956236 0.472439 0.229978
H45   H     H_    0.851566 0.960202 0.479498 0.226810
C126  C     C_3   0.846880 0.015375 0.523081 -0.923368
H46   H     H_    0.867407 0.038889 0.523369 0.258101
H47   H     H_    0.867812 0.998081 0.569551 0.261517
H48   H     H_    0.821583 0.035222 0.515931 0.256683

loop_
_geom_bond_atom_site_label_1
_geom_bond_atom_site_label_2
_ccdc_geom_bond_type
Cu11  O23   S    
C4    O28   A    
C42   C44   S    
C52   C70   S    
Cu12  O20   S    
C113  H16   S    
C40   C60   S    
C7    C98   S    
C83   O49   S    
C67   O23   A    
Cu11  O17   S    
C116  H23   S    
C54   O44   A    
C57   O6    A    
C10   C108  S    
C122  H37   S    
Cu3   O35   S    
C38   O30   A    
Cu7   O43   S    
Cu10  O15   S    
Cu3   O26   S    
C121  H36   S    
C116  H24   S    
C122  C123  S    
Cu10  O10   S    
C39   C41   T    
C86   C106  S    
C58   O8    A    
Cu6   O46   S    
C99   C108  S    
C105  C107  S    
C68   C96   S    
C6    C85   S    
Cu4   O32   S    
C59   O35   A    
C32   C36   T    
C62   C80   S    
C8    C99   S    
C76   C78   S    
C34   C64   S    
C12   C104  T    
Cu9   Cu11  S    
C6    C12   S    
Cu4   O36   S    
C5    C83   S    
C36   C66   S    
Cu8   O8    S    
C35   C65   S    
C62   O10   A    
Cu7   Cu8   S    
C29   C33   T    
C3    O27   A    
C118  C119  S    
C49   C57   S    
C84   O50   S    
Cu2   O3    S    
Cu5   O45   S    
C37   O31   A    
Cu7   O47   S    
C69   C71   T    
C37   O29   A    
C111  H11   S    
C112  C113  S    
C97   H1    S    
Cu1   O2    S    
C113  C114  S    
C52   O40   A    
C15   C19   T    
C59   O33   A    
Cu1   O1    S    
C109  C110  S    
C63   O17   A    
C20   C24   S    
Cu6   O6    S    
O52   C118  S    
C105  O53   S    
C60   O36   A    
C119  C120  S    
C51   O37   A    
C115  H21   S    
C23   C27   T    
C55   C81   S    
C86   C100  S    
C68   O22   A    
C33   C63   S    
C38   C102  S    
C110  C111  S    
C7    C97   S    
C109  H8    S    
Cu12  O19   S    
C93   C95   T    
Cu4   O28   S    
C126  H46   S    
C53   C103  S    
C67   C95   S    
Cu11  O18   S    
C41   C43   S    
C54   O43   A    
Cu8   O40   S    
Cu9   O13   S    
C125  H45   S    
C2    C14   S    
C55   O45   A    
C121  H35   S    
C44   C46   T    
C118  H28   S    
Cu10  Cu12  S    
C45   C47   S    
C58   O7    A    
C25   C29   S    
C3    O3    A    
C46   C48   S    
C100  C108  S    
C66   O20   A    
C74   C75   T    
C30   C34   T    
C27   C31   S    
C50   C58   S    
C60   O34   A    
C28   C32   S    
C68   O24   A    
C38   O32   A    
C72   C74   S    
C120  H34   S    
C86   O52   S    
O53   C121  S    
C5    C7    S    
C5    C84   S    
C4    O4    A    
C64   O18   A    
C114  H19   S    
C11   C103  T    
C91   C93   S    
O54   C124  S    
C7    H5    S    
C98   C107  S    
C83   C105  S    
C56   O48   A    
C100  H4    S    
C125  C126  S    
Cu11  O11   S    
C4    C16   S    
C114  H18   S    
C19   C23   S    
C120  H32   S    
C85   C99   S    
C52   O39   A    
Cu5   O37   S    
C65   O15   A    
C53   O42   A    
Cu6   O38   S    
O49   C109  S    
C117  H27   S    
C10   C102  T    
Cu2   Cu4   S    
C16   C20   T    
C114  H20   S    
C39   C59   S    
C17   C21   S    
C115  C116  S    
C92   C94   S    
C84   C105  S    
C77   C79   T    
Cu8   O44   S    
C51   O38   A    
C124  H43   S    
C62   O12   A    
C89   C92   T    
C94   C96   T    
C75   C77   S    
C81   C87   T    
C110  H9    S    
C56   C82   S    
C8    H6    S    
C109  H7    S    
C117  H26   S    
C26   C30   S    
C123  H40   S    
Cu4   O27   S    
C126  H47   S    
C5    C11   S    
C67   O21   A    
C73   C76   T    
C31   C35   T    
C2    O26   A    
Cu9   O14   S    
Cu7   O39   S    
C125  H44   S    
Cu12  O12   S    
C65   O19   A    
C85   C106  S    
Cu1   O33   S    
C55   O46   A    
Cu2   O34   S    
C61   O9    A    
C24   C28   T    
C99   H3    S    
Cu5   Cu6   S    
C64   O14   A    
C85   O51   S    
C98   H2    S    
C21   C25   T    
C113  H17   S    
Cu5   O5    S    
C18   C22   S    
C63   O13   A    
C14   C18   T    
C57   O5    A    
C1    O1    A    
C119  H31   S    
C115  H22   S    
Cu10  O16   S    
Cu3   O25   S    
Cu5   O41   S    
C6    C8    S    
C122  H38   S    
Cu6   O42   S    
C66   O16   A    
Cu8   O48   S    
C116  C117  S    
C47   C49   T    
C123  H41   S    
Cu7   O7    S    
C54   C104  S    
Cu2   O4    S    
Cu12  O24   S    
C6    C86   S    
C13   C17   T    
C56   O47   A    
Cu9   O21   S    
C84   C98   S    
C120  H33   S    
C88   C90   S    
Cu3   O31   S    
C112  H14   S    
C43   C45   T    
C37   C101  S    
C61   O11   A    
C90   C91   T    
C119  H30   S    
C106  C108  S    
C61   C79   S    
C82   C88   T    
Cu1   Cu3   S    
C48   C50   T    
C118  H29   S    
C1    O25   A    
C124  C125  S    
C78   C80   T    
C83   C97   S    
C8    C100  S    
O51   C115  S    
Cu1   O29   S    
C111  H12   S    
C112  H15   S    
Cu2   O30   S    
Cu10  O22   S    
C97   C107  S    
C106  O54   S    
C1    C13   S    
C117  H25   S    
C9    C101  T    
C123  H39   S    
C22   C26   T    
C126  H48   S    
C71   C73   S    
C124  H42   S    
C87   C89   S    
C40   C42   T    
C9    C107  S    
C3    C15   S    
C70   C72   T    
C51   C69   S    
C53   O41   A    
O50   C112  S    
C111  H13   S    
C121  C122  S    
C2    O2    A    
C110  H10   S    
Cu9   O9    S    
