data_mof_unit_45723.cif
_audit_creation_date              2012-10-26T20:06:14-0400
_audit_creation_method            fapswitch 2.2
_symmetry_space_group_name_H-M    P1
_symmetry_Int_Tables_number       1
_space_group_crystal_system       triclinic
_cell_length_a                    9.534243
_cell_length_b                    10.832365
_cell_length_c                    13.446073
_cell_angle_alpha                 90.762642
_cell_angle_beta                  71.634199
_cell_angle_gamma                 89.681602
_cell_volume                      1317.76867522

loop_
_atom_site_label
_atom_site_type_symbol
_atom_type_description
_atom_site_fract_x
_atom_site_fract_y
_atom_site_fract_z
_atom_type_partial_charge
C1    C     C_R   0.499717 0.737889 0.500210 0.547664
C2    C     C_R   0.366737 0.507317 0.818279 -0.041355
C3    C     C_R   0.625996 0.935528 0.502922 -0.130473
C4    C     C_R   0.419202 0.505357 0.701214 0.531899
C5    C     C_R   0.626318 0.063242 0.502753 -0.122088
C6    C     C_R   0.500283 0.128246 0.499967 0.018007
C7    C     C_R   0.373873 0.064484 0.497400 -0.123262
C8    C     C_R   0.373527 0.936766 0.497616 -0.131216
C9    C     C_R   0.499617 0.871765 0.500295 0.015563
C10   C     C_R   0.899082 0.584483 0.558667 0.014682
C11   C     C_R   0.047511 0.584102 0.558983 0.005599
C12   C     C_R   0.437050 0.499910 0.979544 0.033902
C13   C     C_R   0.102953 0.416084 0.441223 0.056293
C14   C     C_R   0.954787 0.414981 0.440113 0.126518
C15   C     C_R   0.500225 0.262117 0.499927 0.555649
C16   C     C_R   0.579775 0.500307 0.299642 0.543389
C17   C     C_R   0.787509 0.599449 0.026498 -0.101459
C18   C     C_R   0.626558 0.511802 0.185499 -0.000154
C19   C     C_R   0.223218 0.464180 0.875409 0.002228
C20   C     C_R   0.192192 0.434838 0.980773 -0.104379
C21   C     C_R   0.297592 0.448449 0.031073 -0.140068
C22   C     C_2   0.917663 0.320865 0.371429 0.208980
C23   C     C_R   0.467038 0.537487 0.874146 0.022242
C24   C     C_2   0.100372 0.452205 0.830223 0.238907
C25   C     C_R   0.546157 0.518592 0.030308 0.041699
C26   C     C_R   0.679681 0.579492 0.977096 0.072272
C27   C     C_R   0.701178 0.625107 0.877170 -0.120091
C28   C     C_R   0.594674 0.607857 0.828034 -0.107872
C29   C     C_R   0.525101 0.481794 0.133683 -0.118687
C30   C     C_R   0.760602 0.566595 0.130658 -0.129850
Cu1   Cu    Cu3+1 0.359340 0.499980 0.500000 0.945082
Cu2   Cu    Cu3+1 0.640660 0.500020 0.500000 0.938293
H1    H     H_    0.840887 0.589620 0.169582 0.127691
H2    H     H_    0.428101 0.432944 0.177880 0.118681
H3    H     H_    0.262568 0.422243 0.112017 0.115978
H4    H     H_    0.084127 0.401065 0.025406 0.165454
H5    H     H_    0.611225 0.654642 0.754935 0.126448
H6    H     H_    0.724576 0.887022 0.505204 0.134320
H7    H     H_    0.823215 0.329901 0.344957 0.174457
H8    H     H_    0.086440 0.518208 0.774178 0.119611
H9    H     H_    0.724964 0.110752 0.504986 0.161690
H10   H     H_    0.275275 0.112992 0.495147 0.150101
H11   H     H_    0.274798 0.889227 0.495547 0.135424
H12   H     H_    0.822581 0.653008 0.604958 0.100652
H13   H     H_    0.081949 0.651681 0.606285 0.097709
H14   H     H_    0.183517 0.350594 0.393927 0.157135
H15   H     H_    0.799297 0.677135 0.837672 0.091355
H16   H     H_    0.889920 0.645338 0.985951 0.105867
N1    N     N_R   0.147940 0.499970 0.499970 -0.246491
N2    N     N_R   0.852060 0.500060 0.499990 -0.250609
O1    O     O_R   0.381250 0.680340 0.500010 -0.507778
O2    O     O_2   0.009109 0.370627 0.858637 -0.496965
O3    O     O_R   0.618820 0.680370 0.500010 -0.514487
O4    O     O_R   0.323240 0.499950 0.650980 -0.510267
O5    O     O_R   0.560810 0.499980 0.650980 -0.488187
O6    O     O_R   0.381180 0.319630 0.499990 -0.502498
O7    O     O_R   0.618750 0.319660 0.499990 -0.519963
O8    O     O_R   0.439190 0.500020 0.349020 -0.503022
O9    O     O_R   0.676760 0.500050 0.349020 -0.531297
O10   O     O_2   0.996135 0.229530 0.341330 -0.558924

loop_
_geom_bond_atom_site_label_1
_geom_bond_atom_site_label_2
_ccdc_geom_bond_type
C24   O2    D    
C2    C4    S    
C17   H16   S    
C6    C7    A    
C11   N1    A    
Cu1   O6    S    
C15   O7    A    
Cu2   O5    S    
C19   C20   A    
Cu2   O9    S    
C8    H11   S    
C12   C25   A    
C25   C26   A    
C15   O6    A    
C14   C22   S    
C19   C24   S    
C2    C19   A    
C7    C8    A    
C4    O5    A    
C18   C29   A    
C16   O8    A    
C13   C14   A    
C22   O10   D    
C17   C30   A    
C1    O1    A    
C12   C23   A    
Cu2   N2    S    
C26   C27   A    
C14   N2    A    
C12   C21   A    
Cu2   O7    S    
Cu1   N1    S    
C3    C9    A    
C22   H7    S    
C28   H5    S    
Cu1   O8    S    
C24   H8    S    
Cu1   O4    S    
C25   C29   A    
C5    C6    A    
C13   N1    A    
C21   H3    S    
C11   H13   S    
C10   C11   A    
C17   C26   A    
C18   C30   A    
C10   H12   S    
C10   N2    A    
Cu2   O3    S    
C2    C23   A    
C1    C9    S    
C20   C21   A    
C16   C18   S    
C7    H10   S    
C27   H15   S    
C27   C28   A    
C5    H9    S    
C13   H14   S    
C1    O3    A    
C30   H1    S    
C4    O4    A    
C6    C15   S    
C23   C28   A    
C29   H2    S    
Cu1   Cu2   S    
C3    H6    S    
Cu1   O1    S    
C8    C9    A    
C3    C5    A    
C16   O9    A    
C20   H4    S    
