data_mof_unit_55440.cif
_audit_creation_date              2012-10-26T20:43:03-0400
_audit_creation_method            fapswitch 2.2
_symmetry_space_group_name_H-M    P1
_symmetry_Int_Tables_number       1
_space_group_crystal_system       triclinic
_cell_length_a                    10.817624
_cell_length_b                    9.523079
_cell_length_c                    15.046343
_cell_angle_alpha                 89.76574
_cell_angle_beta                  90.788745
_cell_angle_gamma                 89.987567
_cell_volume                      1549.87055831

loop_
_atom_site_label
_atom_site_type_symbol
_atom_type_description
_atom_site_fract_x
_atom_site_fract_y
_atom_site_fract_z
_atom_type_partial_charge
C1    C     C_R   0.262110 0.500006 0.500827 0.551685
C2    C     C_R   0.128228 0.499926 0.501183 0.011596
C3    C     C_R   0.413581 0.074768 0.451873 0.012129
C4    C     C_R   0.586613 0.925224 0.547845 0.011313
C5    C     C_R   0.586868 0.073901 0.547505 0.010649
C6    C     C_R   0.413682 0.925951 0.451786 0.012518
C7    C     C_R   0.498886 0.500214 0.329089 0.609142
C8    C     C_R   0.502807 0.499822 0.670942 0.620931
C9    C     C_R   0.612744 0.475220 0.814573 0.200014
C10   C     C_R   0.388826 0.522479 0.185317 0.210753
C11   C     C_R   0.502065 0.499609 0.767325 0.032270
C12   C     C_R   0.737911 0.499968 0.500159 0.569136
C13   C     C_R   0.500007 0.500524 0.232758 0.025209
C14   C     C_R   0.391274 0.528486 0.811167 0.079239
C15   C     C_R   0.611913 0.477161 0.188986 0.079207
C16   C     C_R   0.390563 0.530802 0.904872 0.013441
C17   C     C_R   0.613329 0.479047 0.095276 0.013417
C18   C     C_R   0.501825 0.504787 0.953122 -0.002690
C19   C     C_R   0.501909 0.504272 0.047020 -0.004637
C20   C     C_R   0.613257 0.480020 0.907786 0.018573
C21   C     C_R   0.390401 0.528881 0.092324 0.024862
C22   C     C_R   0.281564 0.557915 0.951567 -0.145904
C23   C     C_R   0.281965 0.558530 0.043781 -0.122283
C24   C     C_R   0.723630 0.459602 0.048624 -0.142943
C25   C     C_3   0.751159 0.318931 0.758411 -0.000629
C26   C     C_3   0.887704 0.305950 0.735448 -0.259985
C27   C     C_3   0.922364 0.155700 0.711390 -0.488739
C28   C     C_3   0.229593 0.413164 0.258337 0.015434
C29   C     C_3   0.117515 0.373015 0.200650 -0.279867
C30   C     C_3   0.047992 0.248695 0.240228 -0.487283
C31   C     C_3   0.207802 0.435730 0.739188 -0.306130
C32   C     C_3   0.794188 0.570497 0.262859 -0.301602
C33   C     C_R   0.723598 0.461000 0.956395 -0.123345
C34   C     C_R   0.063797 0.372731 0.494468 -0.172328
C35   C     C_R   0.936166 0.627050 0.507264 -0.145862
C36   C     C_R   0.936003 0.372800 0.493508 -0.157673
C37   C     C_R   0.063966 0.627061 0.507584 -0.135102
C38   C     C_R   0.871740 0.499928 0.500273 0.018679
Cu1   Cu    Cu3+1 0.500000 0.640660 0.500000 0.966605
Cu2   Cu    Cu3+1 0.500000 0.359340 0.500000 0.933632
H1    H     H_    0.194444 0.577916 0.917832 0.113779
H2    H     H_    0.656025 0.869022 0.586287 0.111216
H3    H     H_    0.657053 0.129261 0.584922 0.089430
H4    H     H_    0.344664 0.870224 0.413013 0.118317
H5    H     H_    0.694165 0.275384 0.703379 0.159060
H6    H     H_    0.734359 0.255778 0.819723 0.118913
H7    H     H_    0.908513 0.376216 0.678604 0.189501
H8    H     H_    0.944671 0.340004 0.793447 0.149308
H9    H     H_    0.902639 0.083425 0.767555 0.150142
H10   H     H_    0.022610 0.150594 0.696774 0.146893
H11   H     H_    0.869754 0.121297 0.651461 0.134814
H12   H     H_    0.811393 0.443932 0.082464 0.110142
H13   H     H_    0.198473 0.426690 0.327516 0.163151
H14   H     H_    0.297272 0.324487 0.259478 0.118715
H15   H     H_    0.053488 0.463968 0.194675 0.167499
H16   H     H_    0.148885 0.344058 0.133187 0.155277
H17   H     H_    0.110666 0.157004 0.248499 0.147253
H18   H     H_    0.970424 0.218816 0.195073 0.141820
H19   H     H_    0.009508 0.277240 0.305766 0.156214
H20   H     H_    0.232248 0.643300 0.779728 0.249923
H21   H     H_    0.172423 0.387704 0.801229 0.128413
H22   H     H_    0.262678 0.356672 0.702673 0.173956
H23   H     H_    0.196176 0.581879 0.076818 0.149898
H24   H     H_    0.128150 0.467640 0.696488 0.146570
H25   H     H_    0.772414 0.364562 0.218730 0.246840
H26   H     H_    0.830038 0.621060 0.201761 0.132848
H27   H     H_    0.873873 0.538354 0.305538 0.147808
H28   H     H_    0.738039 0.647543 0.300061 0.176271
H29   H     H_    0.810912 0.446007 0.923427 0.144764
H30   H     H_    0.111849 0.273367 0.489223 0.123468
H31   H     H_    0.888103 0.726397 0.512609 0.124374
H32   H     H_    0.887825 0.273467 0.487861 0.130968
H33   H     H_    0.112163 0.726412 0.513030 0.130204
H34   H     H_    0.344475 0.131059 0.413170 0.096504
N1    N     N_R   0.500000 0.852070 0.500000 -0.230220
N2    N     N_R   0.500000 0.147930 0.500000 -0.224631
N3    N     N_2   0.282578 0.557549 0.759533 -0.514374
N4    N     N_2   0.720849 0.448336 0.240484 -0.517512
O1    O     O_R   0.319640 0.618740 0.499990 -0.500225
O2    O     O_3   0.279083 0.543611 0.230024 -0.586526
O3    O     O_R   0.680360 0.381260 0.500010 -0.506679
O4    O     O_R   0.680360 0.618740 0.500010 -0.518570
O5    O     O_R   0.319640 0.381260 0.499990 -0.527538
O6    O     O_R   0.499970 0.618800 0.370260 -0.493645
O7    O     O_R   0.500030 0.381200 0.629740 -0.522346
O8    O     O_R   0.500030 0.618800 0.629740 -0.478585
O9    O     O_R   0.499970 0.381200 0.370260 -0.502724
O10   O     O_3   0.722717 0.462591 0.769231 -0.584112

loop_
_geom_bond_atom_site_label_1
_geom_bond_atom_site_label_2
_ccdc_geom_bond_type
C24   H12   S    
C31   H21   S    
Cu2   O5    S    
C3    C6    A    
C6    N1    A    
C26   C27   S    
Cu2   O9    S    
C28   C29   S    
C19   C21   A    
Cu1   O6    S    
C1    C2    S    
C9    O10   S    
C28   H14   S    
C11   C14   A    
C22   H1    S    
C30   H17   S    
C8    O7    A    
C14   N3    S    
C3    H34   S    
C4    N1    A    
C7    O9    A    
Cu1   N1    S    
C34   H30   S    
C18   C20   A    
C27   H10   S    
C33   H29   S    
C32   H28   S    
C2    C34   A    
C23   H23   S    
C7    O6    A    
C5    H3    S    
C35   H31   S    
C6    H4    S    
C31   H22   S    
Cu2   O3    S    
C27   H11   S    
C31   N3    S    
C10   C21   A    
H20   N3    S    
C17   C24   A    
C35   C38   A    
Cu1   Cu2   S    
C10   O2    S    
C18   C19   A    
C29   H15   S    
C25   C26   S    
C25   O10   S    
Cu2   N2    S    
Cu1   O1    S    
Cu2   O7    S    
C29   C30   S    
C9    C20   A    
C30   H19   S    
C12   O4    A    
C3    N2    A    
C9    C11   A    
C26   H7    S    
C32   H27   S    
C20   C33   A    
C13   C15   A    
C1    O1    A    
C14   C16   A    
C25   H5    S    
C32   H26   S    
C15   C17   A    
C37   H33   S    
C16   C22   A    
H25   N4    S    
C35   C37   A    
C31   H24   S    
Cu1   O4    S    
C4    C5    A    
C10   C13   A    
C28   H13   S    
C29   H16   S    
C26   H8    S    
C1    O5    A    
C24   C33   A    
C5    N2    A    
C21   C23   A    
C2    C37   A    
C4    H2    S    
C8    C11   S    
C30   H18   S    
C36   C38   A    
C17   C19   A    
C34   C36   A    
C12   O3    A    
C8    O8    A    
C12   C38   S    
C28   O2    S    
C32   N4    S    
C15   N4    S    
C27   H9    S    
C7    C13   S    
C16   C18   A    
C22   C23   A    
Cu1   O8    S    
C25   H6    S    
C36   H32   S    
