data_mof_unit_13255.cif
_audit_creation_date              2012-12-10T18:32:45-0500
_audit_creation_method            fapswitch 2.2
_symmetry_space_group_name_H-M    P1
_symmetry_Int_Tables_number       1
_space_group_crystal_system       triclinic
_cell_length_a                    14.996856
_cell_length_b                    15.404181
_cell_length_c                    15.756035
_cell_angle_alpha                 89.434446
_cell_angle_beta                  104.766884
_cell_angle_gamma                 82.306
_cell_volume                      3484.28281497

loop_
_atom_site_label
_atom_site_type_symbol
_atom_type_description
_atom_site_fract_x
_atom_site_fract_y
_atom_site_fract_z
_atom_type_partial_charge
C1    C     C_R   0.441336 0.662765 0.485164 0.893423
C2    C     C_3   0.402320 0.517289 0.023281 0.401093
C3    C     C_3   0.504148 0.496696 0.084427 0.015741
C4    C     C_3   0.556045 0.406271 0.065112 -0.226209
C5    C     C_3   0.551334 0.401821 0.964326 -0.199124
C6    C     C_1   0.499458 0.498146 0.174986 0.116092
C7    C     C_1   0.509217 0.497314 0.827205 -0.024809
C8    C     C_1   0.505082 0.498129 0.751012 -0.174178
C9    C     C_R   0.405559 0.755937 0.460701 -0.135564
C10   C     C_R   0.591924 0.245823 0.498958 -0.058242
C11   C     C_R   0.283380 0.877393 0.401731 -0.219782
C12   C     C_R   0.501343 0.499648 0.661573 0.900632
C13   C     C_R   0.309701 0.789665 0.431131 0.286588
C14   C     C_R   0.471976 0.811568 0.460219 -0.298877
C15   C     C_R   0.446503 0.898779 0.429062 0.098172
C16   C     C_R   0.350588 0.932254 0.401672 0.116303
C17   C     C_R   0.514273 0.955230 0.431470 0.083515
C18   C     C_R   0.484837 0.046539 0.422406 0.060748
C19   C     C_R   0.388968 0.077780 0.388704 -0.236588
C20   C     C_R   0.322944 0.020863 0.377166 -0.200175
C21   C     C_R   0.610374 0.924147 0.445364 -0.223496
C22   C     C_R   0.676195 0.981715 0.461822 -0.230440
C23   C     C_R   0.558083 0.337661 0.509382 0.859982
C24   C     C_R   0.648310 0.070730 0.469112 0.165719
C25   C     C_R   0.552170 0.103360 0.450356 0.076225
C26   C     C_R   0.715014 0.127200 0.497740 -0.209894
C27   C     C_R   0.686891 0.214674 0.512263 -0.210490
C28   C     C_R   0.525893 0.190156 0.468005 -0.259104
C29   C     C_R   0.843251 0.636503 0.630512 -0.316781
C30   C     C_R   0.753936 0.614265 0.608625 0.006727
C31   C     C_R   0.793474 0.510890 0.508754 -0.031172
C32   C     C_R   0.885445 0.530646 0.527649 -0.001275
C33   C     C_R   0.909426 0.594816 0.590297 0.171786
C34   C     C_R   0.498818 0.500142 0.338479 0.890885
C35   C     C_R   0.953696 0.489139 0.487234 0.080963
C36   C     C_R   0.045711 0.512149 0.511249 0.080228
C37   C     C_R   0.066147 0.576421 0.574098 -0.171685
C38   C     C_R   0.999093 0.616853 0.612547 -0.181681
C39   C     C_R   0.932938 0.425677 0.423561 -0.205488
C40   C     C_R   0.999982 0.385291 0.385062 -0.191525
C41   C     C_R   0.089987 0.406494 0.408172 0.172176
C42   C     C_R   0.114170 0.470122 0.471370 0.000939
C43   C     C_R   0.156284 0.364585 0.368208 -0.299227
C44   C     C_R   0.245840 0.386263 0.390710 0.039073
C45   C     C_3   0.407902 0.517083 0.925784 0.009014
C46   C     C_R   0.206601 0.488720 0.491469 0.016457
C47   C     C_3   0.570635 0.573078 0.968159 -0.045709
C48   C     C_3   0.561464 0.570145 0.067252 -0.059228
C49   C     C_1   0.497356 0.499176 0.249597 -0.085918
C50   C     C_3   0.512570 0.497862 0.919605 0.033443
H1    H     H_    0.630299 0.407116 0.098069 0.174352
H2    H     H_    0.249827 0.047064 0.353247 0.148155
H3    H     H_    0.453537 0.214542 0.461285 0.165001
H4    H     H_    0.739114 0.257442 0.534463 0.160730
H5    H     H_    0.749351 0.955804 0.473627 0.155991
H6    H     H_    0.209958 0.903276 0.380470 0.170686
H7    H     H_    0.544423 0.786594 0.487445 0.176899
H8    H     H_    0.376220 0.582418 0.896203 0.171610
H9    H     H_    0.363529 0.146027 0.369991 0.144823
H10   H     H_    0.636271 0.855663 0.442611 0.161607
H11   H     H_    0.788730 0.103268 0.510649 0.144124
H12   H     H_    0.017771 0.665825 0.660394 0.156920
H13   H     H_    0.232182 0.535647 0.538290 0.149240
H14   H     H_    0.297812 0.354790 0.360075 0.137060
H15   H     H_    0.981051 0.336965 0.336555 0.143496
H16   H     H_    0.860493 0.685634 0.678474 0.146863
H17   H     H_    0.701979 0.645739 0.639268 0.130453
H18   H     H_    0.768365 0.462743 0.463173 0.128506
H19   H     H_    0.133517 0.597583 0.595371 0.161151
H20   H     H_    0.865181 0.405486 0.401331 0.140282
H21   H     H_    0.138914 0.315820 0.319865 0.147649
H22   H     H_    0.520010 0.632123 0.077944 0.203240
H23   H     H_    0.496783 0.361940 0.934527 0.196314
N1    N     N_R   0.731690 0.552720 0.548990 -0.098807
N2    N     N_R   0.268300 0.447240 0.450950 -0.102894
O1    O     O_R   0.383120 0.605620 0.475300 -0.565826
O2    O     O_R   0.531890 0.639510 0.506740 -0.626933
O3    O     O_R   0.425580 0.483050 0.607130 -0.595526
O4    O     O_R   0.574360 0.516930 0.638570 -0.628853
O5    O     O_R   0.468110 0.360490 0.493260 -0.625470
O6    O     O_R   0.616880 0.394380 0.524700 -0.624421
O7    O     O_R   0.425640 0.483070 0.361430 -0.596302
O8    O     O_R   0.574420 0.516950 0.392870 -0.603924
Zn1   Zn    Zn3+2 0.400660 0.477370 0.479010 0.995561
Zn2   Zn    Zn3+2 0.599340 0.522630 0.520990 0.946538
Br1   Br    Br    0.339324 0.632786 0.044425 -0.472195
Br2   Br    Br    0.324344 0.444490 0.849286 -0.484346
Br3   Br    Br    0.318122 0.440759 0.051739 -0.419055
Br4   Br    Br    0.210030 0.722952 0.430753 -0.517096
C51   C     C_R   0.672779 0.557780 0.957373 0.155164
C52   C     C_R   0.692926 0.596296 0.883029 -0.184290
C53   C     C_R   0.782746 0.585246 0.870893 -0.147198
C54   C     C_R   0.855255 0.534239 0.931212 -0.098354
C55   C     C_R   0.837647 0.492865 0.002893 -0.120791
C56   C     C_R   0.747788 0.503283 0.015184 -0.063238
H24   H     H_    0.638962 0.634437 0.832565 0.148304
H25   H     H_    0.795878 0.615909 0.814037 0.138016
H26   H     H_    0.924741 0.525411 0.921515 0.157867
H27   H     H_    0.893478 0.450942 0.048378 0.149536
H28   H     H_    0.738664 0.465042 0.068520 0.160787
C57   C     C_R   0.531815 0.670519 0.932312 0.074540
C58   C     C_R   0.464125 0.696047 0.851805 -0.168301
C59   C     C_R   0.436602 0.784301 0.824159 -0.106816
C60   C     C_R   0.476988 0.849623 0.874150 -0.098653
C61   C     C_R   0.546283 0.826845 0.951390 -0.125217
C62   C     C_R   0.574145 0.738859 0.979422 -0.107764
H29   H     H_    0.431986 0.650297 0.807342 0.138393
H30   H     H_    0.384320 0.801982 0.762901 0.138868
H31   H     H_    0.455668 0.917818 0.852245 0.131574
H32   H     H_    0.579302 0.877413 0.989386 0.137246
H33   H     H_    0.630241 0.724092 0.038264 0.185463
Br5   Br    Br    0.671397 0.582435 0.164644 -0.584556
C63   C     C_R   0.638377 0.345248 0.945975 0.105964
C64   C     C_R   0.667002 0.259916 0.986281 -0.166880
C65   C     C_R   0.742461 0.204572 0.970887 -0.131154
C66   C     C_R   0.790513 0.231531 0.912990 -0.106363
C67   C     C_R   0.762275 0.313437 0.869569 -0.141026
C68   C     C_R   0.686823 0.369004 0.884778 -0.104202
H34   H     H_    0.630935 0.233710 0.029160 0.147380
H35   H     H_    0.763029 0.140088 0.003426 0.136768
H36   H     H_    0.848874 0.188582 0.900983 0.135337
H37   H     H_    0.798904 0.334207 0.823662 0.141121
H38   H     H_    0.670272 0.430477 0.848555 0.152451
C69   C     C_R   0.532650 0.325583 0.109689 0.135716
C70   C     C_R   0.465721 0.272859 0.067260 -0.088935
C71   C     C_R   0.449497 0.199685 0.111385 -0.122265
C72   C     C_R   0.500023 0.177017 0.197851 -0.110992
C73   C     C_R   0.567360 0.227224 0.240403 -0.136553
C74   C     C_R   0.583914 0.300394 0.196806 -0.180328
H39   H     H_    0.424103 0.287835 0.000815 0.173499
H40   H     H_    0.397382 0.160487 0.078345 0.144714
H41   H     H_    0.487219 0.120374 0.231773 0.143090
H42   H     H_    0.607131 0.209359 0.307214 0.152318
H43   H     H_    0.636925 0.337944 0.231517 0.134897

loop_
_geom_bond_atom_site_label_1
_geom_bond_atom_site_label_2
_ccdc_geom_bond_type
C10   C27   A    
C61   H32   S    
C57   C58   A    
C47   C57   S    
C37   H19   S    
C1    O2    A    
C41   C42   A    
C36   C42   A    
C19   C20   A    
O5    Zn1   S    
C3    C6    S    
C73   C74   A    
O1    Zn1   S    
C64   C65   A    
C27   H4    S    
C7    C8    T    
C44   H14   S    
C25   C28   A    
C26   C27   A    
C54   C55   A    
C45   C50   S    
C36   C37   A    
C45   Br2   S    
C26   H11   S    
C24   C26   A    
C60   H31   S    
C30   N1    A    
N2    Zn1   S    
C65   C66   A    
C12   O4    A    
C29   C33   A    
C3    C48   S    
C71   H40   S    
C66   C67   A    
C4    C69   S    
C18   C19   A    
C42   C46   A    
C9    C13   A    
C72   H41   S    
C60   C61   A    
C52   H24   S    
C70   H39   S    
C35   C36   A    
C12   O3    A    
C47   C48   S    
C2    Br3   S    
C59   H30   S    
C23   O5    A    
C29   C30   A    
C64   H34   S    
C8    C12   S    
C13   Br4   S    
O2    Zn2   S    
C6    C49   T    
C21   C22   A    
C41   C43   A    
C55   C56   A    
C18   C25   A    
C48   H22   S    
C46   N2    A    
C53   H25   S    
C47   C50   S    
C62   H33   S    
C2    C45   S    
C31   H18   S    
C45   H8    S    
C66   H36   S    
C4    H1    S    
C32   C35   A    
C51   C56   A    
C1    C9    S    
C24   C25   A    
C21   H10   S    
C52   C53   A    
C9    C14   A    
C56   H28   S    
C31   N1    A    
C19   H9    S    
C17   C21   A    
C63   C68   A    
C44   N2    A    
C35   C39   A    
C67   H37   S    
C48   Br5   S    
C37   C38   A    
C11   C16   A    
C31   C32   A    
C16   C20   A    
C17   C18   A    
C58   H29   S    
C40   C41   A    
O8    Zn2   S    
O7    Zn1   S    
C40   H15   S    
C43   C44   A    
C70   C71   A    
C47   C51   S    
C22   C24   A    
C5    C50   S    
C34   O8    A    
C72   C73   A    
O4    Zn2   S    
C63   C64   A    
C10   C28   A    
C57   C62   A    
C15   C17   A    
C14   H7    S    
C34   C49   S    
C43   H21   S    
C23   O6    A    
C5    C63   S    
C1    O1    A    
C30   H17   S    
C7    C50   S    
C4    C5    S    
C28   H3    S    
C22   H5    S    
C10   C23   S    
C61   C62   A    
C33   C38   A    
C46   H13   S    
C32   C33   A    
C2    C3    S    
C20   H2    S    
C67   C68   A    
C11   C13   A    
C51   C52   A    
C55   H27   S    
C71   C72   A    
C15   C16   A    
C53   C54   A    
C39   H20   S    
C69   C74   A    
C2    Br1   S    
C68   H38   S    
N1    Zn2   S    
C5    H23   S    
C58   C59   A    
C74   H43   S    
C29   H16   S    
C39   C40   A    
O3    Zn1   S    
C65   H35   S    
C59   C60   A    
C14   C15   A    
C34   O7    A    
C73   H42   S    
C54   H26   S    
O6    Zn2   S    
C11   H6    S    
C3    C4    S    
C69   C70   A    
C38   H12   S    
