data_mof_unit_26056.cif
_audit_creation_date              2012-12-10T18:09:55-0500
_audit_creation_method            fapswitch 2.2
_symmetry_space_group_name_H-M    P1
_symmetry_Int_Tables_number       1
_space_group_crystal_system       triclinic
_cell_length_a                    10.758488
_cell_length_b                    12.70934
_cell_length_c                    13.168976
_cell_angle_alpha                 81.979367
_cell_angle_beta                  92.864689
_cell_angle_gamma                 102.179577
_cell_volume                      1742.49701617

loop_
_atom_site_label
_atom_site_type_symbol
_atom_type_description
_atom_site_fract_x
_atom_site_fract_y
_atom_site_fract_z
_atom_type_partial_charge
C1    C     C_R   0.490570 0.438490 0.691612 0.888667
C2    C     C_R   0.474464 0.454860 0.970189 0.023679
C3    C     C_R   0.529868 0.468440 0.873704 -0.185913
C4    C     C_R   0.741381 0.502967 0.493879 0.926851
C5    C     C_R   0.515808 0.537124 0.034063 0.028734
C6    C     C_R   0.611298 0.630162 0.000415 -0.034670
C7    C     C_R   0.675887 0.633705 0.909934 0.389565
C8    C     C_R   0.642253 0.547019 0.852964 0.466560
C9    C     C_R   0.471730 0.526138 0.133328 -0.200031
C10   C     C_R   0.612092 0.694183 0.164956 -0.235537
C11   C     C_R   0.479531 0.397707 0.802107 -0.193872
C12   C     C_3   0.120764 0.498885 0.514203 -0.110570
C13   C     C_R   0.278119 0.080404 0.390741 -0.282529
C14   C     C_R   0.663560 0.800477 0.622342 -0.086715
C15   C     C_R   0.716581 0.907424 0.633185 -0.313323
C16   C     C_R   0.513842 0.560651 0.309279 0.885851
C17   C     C_R   0.665840 0.990648 0.576891 0.554942
C18   C     C_R   0.547035 0.965227 0.523387 -0.182714
C19   C     C_R   0.503457 0.855111 0.506343 0.041973
C20   C     C_R   0.473069 0.043233 0.481721 -0.017218
C21   C     C_R   0.353793 0.007823 0.432913 0.128556
C22   C     C_R   0.313055 0.900885 0.420363 -0.407673
C23   C     C_3   0.095836 0.597792 0.436478 -0.491905
C24   C     C_R   0.397086 0.830900 0.437938 0.544277
C25   C     C_R   0.506883 0.154266 0.490335 -0.013147
C26   C     C_R   0.321707 0.189146 0.395664 0.016611
C27   C     C_R   0.258192 0.497110 0.508840 0.859907
C28   C     C_3   0.901517 0.393952 0.470628 -0.439147
C29   C     C_3   0.043943 0.396417 0.469378 -0.416621
C30   C     C_3   0.952121 0.596011 0.418461 0.378260
C31   C     C_3   0.927019 0.515723 0.608079 0.287195
C32   C     C_3   0.878303 0.504279 0.496379 -0.145989
C33   C     C_3   0.245242 0.623610 0.693423 -0.339577
C34   C     C_3   0.065433 0.496560 0.628044 0.826801
C35   C     C_3   0.891997 0.693941 0.917931 -0.289887
C36   C     C_3   0.452871 0.150256 0.778406 -0.263547
C37   C     C_3   0.787086 0.442012 0.844187 -0.296347
C38   C     C_3   0.811905 0.102345 0.473088 -0.364523
C39   C     C_3   0.360595 0.772758 0.278260 -0.326763
C40   C     C_3   0.931901 0.672420 0.248528 -0.355378
C41   C     C_3   0.959327 0.710433 0.617070 -0.189993
C42   C     C_3   0.154731 0.365303 0.737593 -0.250270
C43   C     C_R   0.651298 0.711647 0.064039 -0.147793
C44   C     C_R   0.529169 0.597378 0.200674 -0.057436
C45   C     C_R   0.403894 0.295183 0.836944 0.487151
C46   C     C_R   0.356263 0.276492 0.935748 -0.260388
C47   C     C_R   0.385652 0.356928 0.999986 -0.220677
H1    H     H_    0.340076 0.337676 0.073068 0.145117
H2    H     H_    0.884121 0.640956 0.993173 0.128797
H3    H     H_    0.959513 0.770693 0.928930 0.167025
H4    H     H_    0.933682 0.655117 0.861341 0.243179
H5    H     H_    0.721522 0.784141 0.039284 0.174251
H6    H     H_    0.400131 0.457916 0.163674 0.135957
H7    H     H_    0.457935 0.105903 0.857118 0.146814
H8    H     H_    0.548829 0.197277 0.754637 0.162813
H9    H     H_    0.422058 0.088889 0.725113 0.187941
H10   H     H_    0.291874 0.200677 0.961330 0.157834
H11   H     H_    0.856699 0.326882 0.529447 0.221470
H12   H     H_    0.187516 0.053459 0.352736 0.129529
H13   H     H_    0.785719 0.435802 0.929607 0.125725
H14   H     H_    0.888815 0.456727 0.824708 0.230775
H15   H     H_    0.738395 0.363229 0.819668 0.159972
H16   H     H_    0.264750 0.247295 0.364665 0.122218
H17   H     H_    0.221050 0.874760 0.384216 0.147960
H18   H     H_    0.586893 0.188958 0.535631 0.191250
H19   H     H_    0.706473 0.736078 0.661524 0.232205
H20   H     H_    0.853992 0.030228 0.468018 0.158593
H21   H     H_    0.892939 0.172159 0.471996 0.192695
H22   H     H_    0.750269 0.117090 0.404490 0.172738
H23   H     H_    0.857602 0.375458 0.395069 0.238639
H24   H     H_    0.803745 0.926162 0.677922 0.188130
H25   H     H_    0.444280 0.834079 0.247059 0.166379
H26   H     H_    0.271257 0.801767 0.257909 0.135279
H27   H     H_    0.350893 0.700017 0.239010 0.177313
H28   H     H_    0.063941 0.320380 0.513699 0.224466
H29   H     H_    0.071782 0.397055 0.388847 0.202193
H30   H     H_    0.032879 0.716316 0.248018 0.150185
H31   H     H_    0.869312 0.725940 0.267395 0.155904
H32   H     H_    0.905393 0.652306 0.170182 0.198363
H33   H     H_    0.139144 0.596078 0.361792 0.227247
H34   H     H_    0.269307 0.665507 0.762419 0.184075
H35   H     H_    0.052086 0.717075 0.583274 0.132208
H36   H     H_    0.977170 0.757005 0.683372 0.187849
H37   H     H_    0.896963 0.751252 0.562767 0.135158
H38   H     H_    0.864772 0.444503 0.652085 0.139737
H39   H     H_    0.176475 0.413054 0.803104 0.190285
H40   H     H_    0.236795 0.376391 0.687607 0.163190
H41   H     H_    0.132436 0.278503 0.770680 0.216187
H42   H     H_    0.261591 0.688726 0.627348 0.190650
H43   H     H_    0.306265 0.564062 0.698944 0.187586
H44   H     H_    0.931983 0.674867 0.431696 0.069787
H45   H     H_    0.145052 0.675438 0.461806 0.163526
H46   H     H_    0.653280 0.752190 0.216510 0.146731
N1    N     N_R   0.433240 0.222190 0.444680 -0.115018
N2    N     N_R   0.566070 0.776970 0.554790 -0.126804
O1    O     O_R   0.468120 0.366740 0.627160 -0.579491
O2    O     O_3   0.775413 0.719326 0.879376 -0.610579
O3    O     O_3   0.363445 0.217703 0.771952 -0.613053
O4    O     O_3   0.732167 0.527118 0.791445 -0.550604
O5    O     O_3   0.743368 0.092625 0.564017 -0.631783
O6    O     O_3   0.375732 0.742193 0.385368 -0.557441
O7    O     O_3   0.914076 0.574890 0.317086 -0.587650
O8    O     O_3   0.896026 0.603470 0.652753 -0.534753
O9    O     O_3   0.047908 0.388309 0.680715 -0.680026
O10   O     O_R   0.510770 0.544830 0.662520 -0.621288
O11   O     O_R   0.663880 0.410950 0.482330 -0.637368
O12   O     O_R   0.706530 0.589040 0.517700 -0.592699
O13   O     O_R   0.489230 0.455170 0.337480 -0.622311
O14   O     O_R   0.531880 0.633260 0.372840 -0.559061
O15   O     O_R   0.293470 0.410960 0.482300 -0.630498
O16   O     O_R   0.336120 0.589050 0.517670 -0.584974
O17   O     O_3   0.117298 0.572269 0.698476 -0.630176
Zn1   Zn    Zn3+2 0.471520 0.381090 0.476390 0.959632
Zn2   Zn    Zn3+2 0.528480 0.618910 0.523610 0.984590

loop_
_geom_bond_atom_site_label_1
_geom_bond_atom_site_label_2
_ccdc_geom_bond_type
C26   N1    A    
C31   H38   S    
C12   C29   S    
C34   O17   S    
C1    C11   S    
C37   H15   S    
C7    C8    A    
C29   H29   S    
C45   C46   A    
C12   C23   S    
C28   C29   S    
C8    O4    S    
C24   O6    S    
C45   O3    S    
C5    C6    A    
C43   H5    S    
C20   C25   A    
N2    Zn2   S    
C41   H36   S    
C18   C19   A    
C39   H27   S    
C31   C32   S    
C27   O15   A    
C35   H2    S    
C39   H25   S    
C42   H39   S    
C23   H33   S    
C16   C44   S    
C18   C20   A    
C23   H45   S    
C38   H22   S    
C27   O16   A    
C25   N1    A    
C21   C22   A    
N1    Zn1   S    
C16   O14   A    
C39   O6    S    
C4    O12   A    
C40   H32   S    
O11   Zn1   S    
C10   C44   A    
C23   C30   S    
O10   Zn2   S    
C28   C32   S    
C3    C11   A    
C38   O5    S    
C3    C8    A    
C12   C27   S    
C10   H46   S    
C41   H37   S    
C4    O11   A    
C34   O9    S    
C41   O8    S    
C31   O8    S    
O13   Zn1   S    
C26   H16   S    
O12   Zn2   S    
C5    C9    A    
C36   H9    S    
C33   H42   S    
C47   H1    S    
C30   O7    S    
C35   H3    S    
C17   C18   A    
C14   H19   S    
C31   C34   S    
C13   C21   A    
C33   O17   S    
C38   H20   S    
O15   Zn1   S    
C4    C32   S    
O14   Zn2   S    
C13   H12   S    
C38   H21   S    
C6    C43   A    
C46   H10   S    
C35   H4    S    
C22   C24   A    
O1    Zn1   S    
C11   C45   A    
C2    C5    A    
C9    H6    S    
C12   C34   S    
C14   N2    A    
C37   O4    S    
C19   N2    A    
C15   C17   A    
C46   C47   A    
C9    C44   A    
C7    O2    S    
C10   C43   A    
C40   H30   S    
C28   H23   S    
C30   H44   S    
C42   O9    S    
C37   H14   S    
C6    C7    A    
C29   H28   S    
C28   H11   S    
C2    C47   A    
C15   H24   S    
C2    C3    A    
C36   H8    S    
C33   H43   S    
C30   C32   S    
C1    O1    A    
C41   H35   S    
C19   C24   A    
O16   Zn2   S    
C40   H31   S    
C39   H26   S    
C13   C26   A    
C17   O5    S    
C37   H13   S    
C36   H7    S    
C16   O13   A    
C40   O7    S    
C42   H41   S    
C20   C21   A    
C25   H18   S    
C14   C15   A    
C36   O3    S    
C42   H40   S    
C22   H17   S    
C35   O2    S    
C33   H34   S    
C1    O10   A    
