data_mof_unit_28136.cif
_audit_creation_date              2012-12-10T19:50:34-0500
_audit_creation_method            fapswitch 2.2
_symmetry_space_group_name_H-M    P1
_symmetry_Int_Tables_number       1
_space_group_crystal_system       triclinic
_cell_length_a                    18.199918
_cell_length_b                    18.282669
_cell_length_c                    18.323219
_cell_angle_alpha                 119.755611
_cell_angle_beta                  90.253171
_cell_angle_gamma                 119.704187
_cell_volume                      4336.75098292

loop_
_atom_site_label
_atom_site_type_symbol
_atom_type_description
_atom_site_fract_x
_atom_site_fract_y
_atom_site_fract_z
_atom_type_partial_charge
C1    C     C_R   0.639968 0.779774 0.639329 0.852007
C2    C     C_R   0.195398 0.948544 0.158845 -0.047346
C3    C     C_R   0.191234 0.892009 0.193327 -0.102249
C4    C     C_R   0.359242 0.220285 0.360101 0.866527
C5    C     C_R   0.247099 0.946128 0.279736 -0.126501
C6    C     C_3   0.225685 0.940768 0.356445 0.427065
C7    C     C_3   0.286222 0.057494 0.415195 0.415909
C8    C     C_R   0.788476 0.555152 0.341080 -0.035671
C9    C     C_R   0.695286 0.489963 0.303518 -0.171686
C10   C     C_R   0.656836 0.413816 0.210570 0.596507
C11   C     C_R   0.711094 0.415227 0.156965 -0.298976
C12   C     C_3   0.835443 0.569416 0.768367 0.612963
C13   C     C_R   0.803842 0.491698 0.195302 -0.115635
C14   C     C_R   0.841835 0.556245 0.288041 -0.018869
C15   C     C_3   0.907649 0.670304 0.349756 0.545957
C16   C     C_R   0.362126 0.502036 0.642168 0.795151
C17   C     C_3   0.848718 0.668676 0.408222 -0.531533
C18   C     C_R   0.788163 0.948505 0.725063 -0.011252
C19   C     C_R   0.695017 0.890858 0.693320 -0.167175
C20   C     C_R   0.655040 0.945107 0.716845 -0.304254
C21   C     C_R   0.708102 0.053030 0.771066 0.617155
C22   C     C_R   0.802709 0.108864 0.803903 -0.205238
C23   C     C_3   0.765271 0.592776 0.792589 -0.018060
C24   C     C_R   0.838973 0.052457 0.779864 -0.090864
C25   C     C_3   0.925601 0.062889 0.791464 -0.181106
C26   C     C_3   0.867956 0.943588 0.727838 0.678691
C27   C     C_R   0.274684 0.561612 0.338433 0.080552
C28   C     C_R   0.639991 0.498750 0.359952 0.823852
C29   C     C_R   0.322657 0.519482 0.305946 -0.131549
C30   C     C_R   0.328732 0.490951 0.220147 0.031160
C31   C     C_R   0.260080 0.468593 0.159311 0.032123
C32   C     C_R   0.207553 0.507656 0.194148 -0.136322
C33   C     C_R   0.224175 0.563754 0.285539 0.068693
C34   C     C_3   0.729756 0.521455 0.824596 0.032757
C35   C     C_3   0.159426 0.558836 0.336362 -0.459982
C36   C     C_3   0.214329 0.552804 0.393577 -0.105379
C37   C     C_R   0.268486 0.555114 0.715412 -0.013643
C38   C     C_R   0.315175 0.511025 0.706933 -0.115027
C39   C     C_R   0.316549 0.479514 0.763905 0.091724
C40   C     C_R   0.362605 0.503867 0.359322 0.813761
C41   C     C_R   0.258599 0.476873 0.814378 -0.253594
C42   C     C_R   0.202480 0.507536 0.811129 -0.153826
C43   C     C_R   0.213424 0.553799 0.766736 0.059594
C44   C     C_3   0.144743 0.535120 0.702343 0.470548
C45   C     C_3   0.662706 0.427840 0.729642 -0.186774
C46   C     C_3   0.206261 0.537976 0.645751 -0.217474
C47   C     C_R   0.859814 0.499172 0.139761 0.867513
C48   C     C_R   0.140016 0.500050 0.860090 0.809616
C49   C     C_R   0.137263 0.779824 0.139406 0.853248
C50   C     C_R   0.859755 0.220088 0.860024 0.841213
C51   C     C_R   0.142074 0.499615 0.140479 0.807953
C52   C     C_R   0.641660 0.499786 0.641268 0.813257
C53   C     C_R   0.858281 0.499814 0.858351 0.801987
C54   C     C_3   0.769800 0.476887 0.673636 0.008016
C55   C     C_3   0.734434 0.405996 0.706123 0.039797
C56   C     C_3   0.699208 0.499751 0.697969 -0.144152
C57   C     C_3   0.800608 0.498957 0.800810 -0.178764
C58   C     C_3   0.715870 0.299669 0.663283 -0.397755
C59   C     C_3   0.643641 0.220531 0.571016 -0.323892
C60   C     C_3   0.622397 0.113875 0.531756 -0.833219
C61   C     C_3   0.794457 0.459784 0.589405 -0.382701
C62   C     C_3   0.868165 0.440926 0.583676 -0.310606
C63   C     C_3   0.899505 0.436984 0.505488 -0.875111
C64   C     C_3   0.978710 0.111603 0.887341 -0.307861
C65   C     C_3   0.922375 0.097047 0.947580 -0.269795
C66   C     C_3   0.981890 0.146810 0.039682 -0.951751
C67   C     C_R   0.301921 0.052079 0.333294 -0.079230
C68   C     C_3   0.885312 0.903277 0.638272 -0.457849
C69   C     C_3   0.976974 0.918766 0.649588 -0.332832
C70   C     C_3   0.019735 0.939090 0.584407 -0.846947
C71   C     C_3   0.404899 0.482053 0.192590 -0.364709
C72   C     C_3   0.497336 0.583591 0.254894 -0.363278
C73   C     C_3   0.572153 0.578034 0.221104 -0.841812
C74   C     C_3   0.231311 0.383099 0.061809 -0.358905
C75   C     C_3   0.272282 0.422694 0.005490 -0.334612
C76   C     C_3   0.272304 0.339689 0.922273 -0.920209
C77   C     C_3   0.164086 0.451641 0.388201 -0.385140
C78   C     C_R   0.303078 0.108748 0.302896 -0.247573
C79   C     C_3   0.116462 0.350641 0.293770 -0.318267
C80   C     C_3   0.079424 0.258170 0.298280 -0.877624
C81   C     C_3   0.375956 0.446472 0.772298 -0.398761
C82   C     C_3   0.324821 0.328850 0.710955 -0.315344
C83   C     C_3   0.385045 0.294891 0.715819 -0.818504
C84   C     C_3   0.245837 0.626299 0.633208 -0.287804
C85   C     C_3   0.315741 0.734968 0.717091 -0.265711
C86   C     C_3   0.349263 0.815255 0.696610 -0.886658
C87   C     C_3   0.786285 0.700375 0.836604 -0.344479
C88   C     C_3   0.855489 0.776572 0.930606 -0.349282
C89   C     C_R   0.252631 0.056453 0.213999 0.592373
C90   C     C_3   0.887420 0.886436 0.967372 -0.847745
C91   C     C_3   0.704420 0.538782 0.908479 -0.366932
C92   C     C_3   0.628926 0.554566 0.911394 -0.353579
C93   C     C_3   0.596539 0.558737 0.989146 -0.888740
C94   C     C_3   0.138078 0.898913 0.066182 -0.328086
C95   C     C_3   0.190222 0.883699 0.000664 -0.372020
C96   C     C_3   0.129324 0.815559 0.904516 -0.652930
F1    F     F_    0.363454 0.095408 0.474714 -0.677710
F2    F     F_    0.566984 0.341644 0.170530 -0.643938
F3    F     F_    0.908532 0.719982 0.311860 -0.618987
F4    F     F_    0.666341 0.101449 0.790881 -0.650057
F5    F     F_    0.867039 0.894617 0.766563 -0.680578
F6    F     F_    0.924415 0.642139 0.787943 -0.690829
F7    F     F_    0.135730 0.615911 0.739306 -0.664353
F8    F     F_    0.254926 0.110289 0.181862 -0.658457
F9    F     F_    0.136609 0.902919 0.349132 -0.638369
H1    H     H_    0.250109 0.903116 0.371385 0.111524
H2    H     H_    0.089751 0.489956 0.294910 0.188179
H3    H     H_    0.248962 0.622572 0.463303 0.150912
H4    H     H_    0.255974 0.448878 0.854808 0.174791
H5    H     H_    0.079710 0.458819 0.670457 0.030265
H6    H     H_    0.175736 0.461666 0.581347 0.096538
H7    H     H_    0.591066 0.368964 0.712747 0.164560
H8    H     H_    0.683428 0.114917 0.524588 0.249212
H9    H     H_    0.596918 0.088112 0.575327 0.277738
H10   H     H_    0.570114 0.058149 0.464944 0.256919
H11   H     H_    0.581203 0.216881 0.575941 0.259272
H12   H     H_    0.251687 0.095400 0.445591 0.111917
H13   H     H_    0.666948 0.243008 0.525107 0.219961
H14   H     H_    0.779058 0.305393 0.658523 0.179505
H15   H     H_    0.693008 0.274275 0.707641 0.239320
H16   H     H_    0.842600 0.373949 0.441802 0.257847
H17   H     H_    0.927895 0.511248 0.513704 0.268575
H18   H     H_    0.952385 0.422678 0.502697 0.245724
H19   H     H_    0.926745 0.503293 0.646062 0.289456
H20   H     H_    0.842387 0.366777 0.574527 0.206818
H21   H     H_    0.733635 0.393673 0.529801 0.179029
H22   H     H_    0.818159 0.529448 0.590639 0.233276
H23   H     H_    0.679859 0.359316 0.085448 0.208494
H24   H     H_    0.020585 0.113743 0.034132 0.278502
H25   H     H_    0.029299 0.231170 0.073651 0.256925
H26   H     H_    0.939543 0.132744 0.080924 0.258829
H27   H     H_    0.886222 0.133527 0.956328 0.210505
H28   H     H_    0.872022 0.014097 0.917161 0.263499
H29   H     H_    0.019290 0.080958 0.883498 0.207984
H30   H     H_    0.026361 0.195214 0.918884 0.205950
H31   H     H_    0.972899 0.878349 0.515034 0.291842
H32   H     H_    0.038180 0.014606 0.601009 0.257795
H33   H     H_    0.081469 0.940781 0.589151 0.258434
H34   H     H_    0.975143 0.694573 0.381024 0.082447
H35   H     H_    0.024708 0.985021 0.718095 0.224239
H36   H     H_    0.968128 0.849134 0.638995 0.240419
H37   H     H_    0.831677 0.820078 0.590134 0.220939
H38   H     H_    0.881925 0.943547 0.609913 0.169223
H39   H     H_    0.570481 0.513344 0.214069 0.293997
H40   H     H_    0.564425 0.566846 0.155497 0.261156
H41   H     H_    0.638232 0.650743 0.269143 0.247294
H42   H     H_    0.499098 0.647278 0.259110 0.220313
H43   H     H_    0.510570 0.601840 0.323007 0.211186
H44   H     H_    0.400573 0.417493 0.188604 0.252527
H45   H     H_    0.880995 0.689169 0.473174 0.176802
H46   H     H_    0.400508 0.463566 0.124807 0.208440
H47   H     H_    0.307395 0.312779 0.940491 0.270422
H48   H     H_    0.202455 0.273442 0.877540 0.265072
H49   H     H_    0.308718 0.371660 0.886365 0.250619
H50   H     H_    0.233413 0.444596 0.985128 0.255626
H51   H     H_    0.342150 0.492388 0.044008 0.208328
H52   H     H_    0.249980 0.332166 0.058095 0.196505
H53   H     H_    0.157621 0.329484 0.031922 0.207513
H54   H     H_    0.134804 0.264114 0.332300 0.261511
H55   H     H_    0.030657 0.253791 0.334971 0.255546
H56   H     H_    0.816268 0.707928 0.412185 0.222985
H57   H     H_    0.044701 0.186426 0.229743 0.259611
H58   H     H_    0.059602 0.339866 0.256699 0.213471
H59   H     H_    0.163230 0.350951 0.255224 0.232889
H60   H     H_    0.212983 0.453994 0.427288 0.204677
H61   H     H_    0.113537 0.450893 0.422207 0.192733
H62   H     H_    0.441450 0.326429 0.692479 0.275295
H63   H     H_    0.411914 0.321796 0.785242 0.248737
H64   H     H_    0.345840 0.209659 0.672174 0.271604
H65   H     H_    0.266450 0.292667 0.730409 0.209247
H66   H     H_    0.298414 0.300011 0.640778 0.250095
H67   H     H_    0.582847 0.904542 0.693588 0.199998
H68   H     H_    0.438799 0.484859 0.759300 0.213093
H69   H     H_    0.399163 0.473715 0.842560 0.177995
H70   H     H_    0.381240 0.799015 0.644460 0.262948
H71   H     H_    0.292739 0.815122 0.673284 0.265443
H72   H     H_    0.399710 0.892761 0.757817 0.270983
H73   H     H_    0.286622 0.754858 0.771086 0.266412
H74   H     H_    0.374255 0.738603 0.741525 0.224841
H75   H     H_    0.278791 0.609982 0.582106 0.200095
H76   H     H_    0.189725 0.624284 0.605807 0.210053
H77   H     H_    0.921621 0.909681 0.925188 0.301249
H78   H     H_    0.968158 0.101491 0.761684 0.133944
H79   H     H_    0.829785 0.892871 0.969301 0.261722
H80   H     H_    0.935773 0.939530 0.036116 0.244037
H81   H     H_    0.825267 0.757070 0.976109 0.215428
H82   H     H_    0.914662 0.772933 0.929756 0.257313
H83   H     H_    0.812890 0.727333 0.793994 0.264869
H84   H     H_    0.723473 0.696149 0.839359 0.171719
H85   H     H_    0.569373 0.485282 0.982115 0.269839
H86   H     H_    0.652598 0.623174 0.053291 0.271068
H87   H     H_    0.542446 0.570925 0.989933 0.244397
H88   H     H_    0.653098 0.627575 0.918865 0.221651
H89   H     H_    0.164618 0.632120 0.373829 0.192276
H90   H     H_    0.571282 0.490504 0.848451 0.226116
H91   H     H_    0.681917 0.470000 0.908332 0.227236
H92   H     H_    0.764501 0.606171 0.968456 0.183975
H93   H     H_    0.080788 0.736244 0.885525 0.329365
H94   H     H_    0.092610 0.846093 0.896203 0.257701
H95   H     H_    0.170214 0.812971 0.859669 0.259245
H96   H     H_    0.244477 0.959794 0.016104 0.252180
H97   H     H_    0.222005 0.847847 0.007450 0.242960
H98   H     H_    0.072630 0.826331 0.042916 0.205190
H99   H     H_    0.118752 0.948417 0.067521 0.224636
O1    O     O_3   0.500000 0.500000 0.500000 -0.499849
O2    O     O_R   0.945260 0.268310 0.884540 -0.659407
O3    O     O_R   0.117230 0.560570 0.177940 -0.641263
O4    O     O_R   0.676910 0.731570 0.616180 -0.628868
O5    O     O_R   0.821960 0.439250 0.882690 -0.645856
O6    O     O_R   0.117230 0.439140 0.056500 -0.671472
O7    O     O_R   0.943400 0.560680 0.882690 -0.612455
O8    O     O_R   0.115380 0.731510 0.054650 -0.668514
O9    O     O_R   0.823040 0.268340 0.883770 -0.577384
O10   O     O_R   0.945260 0.560610 0.176860 -0.621849
O11   O     O_R   0.116150 0.439180 0.884540 -0.664153
O12   O     O_R   0.384580 0.439270 0.616180 -0.653721
O13   O     O_R   0.384580 0.268400 0.445300 -0.639787
O14   O     O_R   0.383810 0.560730 0.615410 -0.646718
O15   O     O_R   0.554700 0.439300 0.323100 -0.580313
O16   O     O_R   0.382730 0.560770 0.443450 -0.666692
O17   O     O_R   0.678000 0.560660 0.617260 -0.640357
O18   O     O_R   0.382730 0.439340 0.322020 -0.634635
O19   O     O_R   0.556550 0.439230 0.617260 -0.641780
O20   O     O_R   0.676910 0.560700 0.445300 -0.653670
O21   O     O_R   0.554700 0.731600 0.615410 -0.655421
O22   O     O_R   0.383810 0.268430 0.323100 -0.561433
O23   O     O_3   0.999960 0.499910 0.999960 -0.499623
O24   O     O_R   0.823040 0.439210 0.054650 -0.650892
O25   O     O_R   0.115380 0.560640 0.883770 -0.609465
O26   O     O_R   0.116150 0.731480 0.176860 -0.596775
Zn1   Zn    Zn3+2 0.457170 0.413230 0.543930 0.961180
Zn2   Zn    Zn3+2 0.456070 0.586770 0.542830 0.928687
Zn3   Zn    Zn3+2 0.456070 0.413270 0.369320 1.031439
Zn4   Zn    Zn3+2 0.630690 0.586730 0.543930 0.963402
Zn5   Zn    Zn3+2 0.042790 0.586680 0.956030 0.977850
Zn6   Zn    Zn3+2 0.043880 0.586640 0.130630 0.999138
Zn7   Zn    Zn3+2 0.043880 0.413140 0.957130 0.918112
Zn8   Zn    Zn3+2 0.869270 0.413190 0.956030 0.997764

loop_
_geom_bond_atom_site_label_1
_geom_bond_atom_site_label_2
_ccdc_geom_bond_type
C96   H94   S    
C87   C88   S    
C82   H65   S    
O18   Zn3   S    
C37   C43   A    
O17   Zn4   S    
C27   C29   A    
C41   C42   A    
C7    H12   S    
C60   H9    S    
C95   C96   S    
C18   C26   S    
C79   H59   S    
C5    C67   A    
C92   H90   S    
C63   H17   S    
C62   H19   S    
C30   C71   S    
C3    C49   S    
C45   H7    S    
C23   C56   S    
C39   C41   A    
C71   H44   S    
C93   H85   S    
C27   C33   A    
C95   H97   S    
C12   F6    S    
O23   Zn6   S    
C12   C23   S    
C37   C38   A    
O22   Zn3   S    
C18   C24   A    
O26   Zn6   S    
O1    Zn4   S    
C16   O12   A    
C18   C19   A    
C36   C77   S    
C26   F5    S    
C5    C6    S    
C51   O3    A    
C80   H55   S    
C36   H3    S    
C76   H47   S    
C77   H60   S    
O23   Zn7   S    
C47   O10   A    
C76   H48   S    
C59   H11   S    
O12   Zn1   S    
C49   O8    A    
C68   H38   S    
C10   F2    S    
C86   H70   S    
C49   O26   A    
C84   H75   S    
C1    O4    A    
O15   Zn3   S    
C34   C91   S    
C92   C93   S    
O20   Zn4   S    
C35   H89   S    
C82   H66   S    
C75   H51   S    
C88   H82   S    
C71   H46   S    
C47   O24   A    
C35   C36   S    
C45   C56   S    
C44   C46   S    
C8    C9    A    
C64   C65   S    
C34   C57   S    
C8    C14   A    
C16   O14   A    
C61   H21   S    
O11   Zn7   S    
C4    O22   A    
C29   C30   A    
C9    C10   A    
C86   H71   S    
C61   C62   S    
C37   C46   S    
C28   O20   A    
C87   H84   S    
C66   H24   S    
C69   H35   S    
C88   H81   S    
C64   H30   S    
C52   O17   A    
C23   C87   S    
C21   C22   A    
C40   O16   A    
C70   H31   S    
C65   H27   S    
C60   H8    S    
C94   C95   S    
C67   C78   A    
C63   H16   S    
C44   F7    S    
O19   Zn1   S    
O3    Zn6   S    
C81   C82   S    
C15   H34   S    
C93   H86   S    
C78   C89   A    
C38   C39   A    
C54   C56   S    
C1    C19   S    
O21   Zn2   S    
C74   C75   S    
C74   H53   S    
C13   C14   A    
C64   H29   S    
C90   H77   S    
C2    C94   S    
C84   C85   S    
C24   C25   S    
C39   C81   S    
C90   H80   S    
O9    Zn8   S    
C15   F3    S    
C91   C92   S    
C13   C47   S    
C21   F4    S    
C53   C57   S    
C68   C69   S    
C80   H54   S    
C41   H4    S    
C50   O9    A    
C25   C26   S    
C85   C86   S    
O23   Zn8   S    
C83   H62   S    
C82   C83   S    
C86   H72   S    
O16   Zn2   S    
C40   O18   A    
C25   C64   S    
C81   H68   S    
O25   Zn5   S    
C2    C89   A    
C96   H93   S    
C75   C76   S    
O6    Zn7   S    
C32   C51   S    
C4    C78   S    
C62   C63   S    
C31   C32   A    
C85   H74   S    
C23   C34   S    
O14   Zn2   S    
C58   H15   S    
C6    H1    S    
C77   C79   S    
C61   H22   S    
C34   C45   S    
C42   C48   S    
O5    Zn8   S    
C68   H37   S    
C80   H57   S    
C87   H83   S    
C17   H56   S    
C52   O19   A    
C46   C84   S    
C48   O25   A    
C50   O2    A    
C20   H67   S    
C90   H79   S    
C92   H88   S    
C28   O15   A    
C55   C57   S    
C43   C44   S    
C22   C24   A    
O1    Zn1   S    
C94   H99   S    
C42   C43   A    
C12   C57   S    
O4    Zn4   S    
O8    Zn5   S    
C66   H26   S    
C93   H87   S    
C1    O21   A    
C15   C17   S    
C54   C55   S    
C84   H76   S    
C88   C90   S    
C53   O7    A    
C7    F1    S    
C74   H52   S    
O10   Zn6   S    
C79   H58   S    
C72   C73   S    
C3    C5    A    
C62   H20   S    
C63   H18   S    
C70   H33   S    
C6    C7    S    
C54   C61   S    
C27   C36   S    
C59   H13   S    
C72   H42   S    
O23   Zn5   S    
C83   H63   S    
C8    C17   S    
C22   C50   S    
C73   H41   S    
C26   C68   S    
C81   H69   S    
C19   C20   A    
O1    Zn3   S    
O24   Zn8   S    
C85   H73   S    
C71   C72   S    
C89   F8    S    
C96   H95   S    
C72   H43   S    
C95   H96   S    
C32   C33   A    
C91   H91   S    
C11   C13   A    
C51   O6    A    
C30   C31   A    
C52   C56   S    
C12   C54   S    
C83   H64   S    
C29   C40   S    
C76   H49   S    
C58   H14   S    
C33   C35   S    
C6    F9    S    
O7    Zn5   S    
C2    C3    A    
O2    Zn7   S    
C11   H23   S    
C65   C66   S    
C69   C70   S    
C31   C74   S    
C58   C59   S    
C48   O11   A    
C35   H2    S    
C10   C11   A    
C7    C67   S    
C79   C80   S    
C91   H92   S    
C75   H50   S    
C59   C60   S    
C20   C21   A    
C45   C55   S    
C70   H32   S    
C53   O5    A    
C4    O13   A    
C55   C58   S    
C73   H40   S    
C14   C15   S    
C60   H10   S    
O1    Zn2   S    
C94   H98   S    
C77   H61   S    
C46   H6    S    
C65   H28   S    
C69   H36   S    
C73   H39   S    
O13   Zn1   S    
C25   H78   S    
C9    C28   S    
C16   C38   S    
C66   H25   S    
C17   H45   S    
C44   H5    S    
