data_mof_unit_53437.cif
_audit_creation_date              2012-12-10T19:48:19-0500
_audit_creation_method            fapswitch 2.2
_symmetry_space_group_name_H-M    P1
_symmetry_Int_Tables_number       1
_space_group_crystal_system       triclinic
_cell_length_a                    18.210111
_cell_length_b                    18.210011
_cell_length_c                    30.232334
_cell_angle_alpha                 89.99904
_cell_angle_beta                  89.998837
_cell_angle_gamma                 90.005715
_cell_volume                      10025.2330184

loop_
_atom_site_label
_atom_site_type_symbol
_atom_type_description
_atom_site_fract_x
_atom_site_fract_y
_atom_site_fract_z
_atom_type_partial_charge
C1    C     C_R   0.141304 0.500003 0.000000 0.945138
C2    C     C_1   0.500009 0.217808 0.000001 -0.194359
C3    C     C_R   0.095579 0.594309 0.772414 0.367314
C4    C     C_R   0.406071 0.904049 0.227576 0.367406
C5    C     C_R   0.904025 0.593881 0.227573 0.367418
C6    C     C_R   0.593915 0.095962 0.227571 0.367422
C7    C     C_R   0.095975 0.406115 0.227573 0.367403
C8    C     C_3   0.832754 0.707569 0.283826 0.158752
C9    C     C_3   0.894303 0.764242 0.277165 -0.392502
C10   C     C_3   0.866259 0.831821 0.252513 -0.956957
C11   C     C_3   0.292351 0.832806 0.283832 0.158759
C12   C     C_3   0.235704 0.894368 0.277171 -0.392520
C13   C     C_1   0.782191 0.499991 0.999999 -0.194423
C14   C     C_3   0.168114 0.866337 0.252520 -0.956958
C15   C     C_3   0.167238 0.292421 0.283826 0.158740
C16   C     C_3   0.105685 0.235751 0.277172 -0.392528
C17   C     C_3   0.133722 0.168165 0.252525 -0.956961
C18   C     C_3   0.707632 0.167213 0.283821 0.158754
C19   C     C_3   0.764284 0.105655 0.277160 -0.392509
C20   C     C_3   0.831873 0.133690 0.252508 -0.956950
C21   C     C_3   0.833597 0.291710 0.716165 0.158812
C22   C     C_3   0.895370 0.235301 0.722852 -0.392475
C23   C     C_3   0.867564 0.167589 0.747478 -0.956756
C24   C     C_1   0.499991 0.782192 0.999999 -0.194363
C25   C     C_3   0.293101 0.168067 0.716187 0.158690
C26   C     C_3   0.236180 0.106736 0.722809 -0.392543
C27   C     C_3   0.168713 0.135005 0.747477 -0.957143
C28   C     C_3   0.166365 0.708318 0.716156 0.158754
C29   C     C_3   0.104584 0.764720 0.722835 -0.392504
C30   C     C_3   0.132379 0.832441 0.747455 -0.956778
C31   C     C_3   0.706885 0.831918 0.716186 0.158678
C32   C     C_3   0.763814 0.893243 0.722798 -0.392561
C33   C     C_3   0.831282 0.864969 0.747463 -0.957132
C34   C     C_3   0.421803 0.215533 0.795366 0.090567
C35   C     C_1   0.717818 0.000008 0.499997 -0.175339
C36   C     C_3   0.472657 0.216661 0.835805 -0.312999
C37   C     C_3   0.514208 0.289222 0.839254 -0.970762
C38   C     C_3   0.785125 0.419902 0.795414 0.090739
C39   C     C_3   0.783427 0.470355 0.836025 -0.312758
C40   C     C_3   0.710457 0.511146 0.839569 -0.970490
C41   C     C_3   0.578159 0.784466 0.795366 0.090585
C42   C     C_3   0.527325 0.783335 0.835816 -0.312960
C43   C     C_3   0.485747 0.710787 0.839261 -0.970773
C44   C     C_3   0.214868 0.580096 0.795380 0.090738
C45   C     C_3   0.216559 0.529578 0.835963 -0.312804
C46   C     C_1   0.000008 0.717818 0.500005 -0.175252
C47   C     C_3   0.289521 0.488765 0.839479 -0.970534
C48   C     C_3   0.420772 0.784820 0.204613 0.090657
C49   C     C_3   0.471433 0.783403 0.164090 -0.312912
C50   C     C_3   0.512574 0.710623 0.160588 -0.970617
C51   C     C_3   0.784799 0.579130 0.204610 0.090633
C52   C     C_3   0.783413 0.528434 0.164103 -0.312946
C53   C     C_3   0.710643 0.487261 0.160602 -0.970607
C54   C     C_3   0.579210 0.215192 0.204607 0.090637
C55   C     C_3   0.528502 0.216582 0.164105 -0.312982
C56   C     C_3   0.487355 0.289359 0.160603 -0.970590
C57   C     C_1   0.282182 0.999992 0.499996 -0.175309
C58   C     C_3   0.215201 0.420876 0.204611 0.090653
C59   C     C_3   0.216609 0.471540 0.164088 -0.312890
C60   C     C_3   0.289376 0.512720 0.160590 -0.970629
C61   C     C_3   0.004014 0.321348 0.359073 0.092844
C62   C     C_3   0.929836 0.332356 0.382295 -0.400263
C63   C     C_3   0.882452 0.263391 0.379304 -0.928269
C64   C     C_3   0.678653 0.003977 0.359061 0.092844
C65   C     C_3   0.667625 0.929801 0.382286 -0.400202
C66   C     C_3   0.736556 0.882388 0.379264 -0.928344
C67   C     C_3   0.995979 0.678651 0.359068 0.092855
C68   C     C_1   0.999992 0.282182 0.500004 -0.175268
C69   C     C_3   0.070160 0.667647 0.382287 -0.400267
C70   C     C_3   0.117536 0.736617 0.379297 -0.928279
C71   C     C_3   0.321341 0.996025 0.359072 0.092860
C72   C     C_3   0.332373 0.070204 0.382291 -0.400243
C73   C     C_3   0.263429 0.117603 0.379290 -0.928315
C74   C     C_3   0.003303 0.678677 0.640902 0.092737
C75   C     C_3   0.929207 0.667392 0.617633 -0.400135
C76   C     C_3   0.881533 0.736144 0.620643 -0.928425
C77   C     C_3   0.678624 0.995358 0.640962 0.092888
C78   C     C_3   0.667844 0.069621 0.617796 -0.400296
C79   C     C_R   0.000001 0.500000 0.087202 0.966939
C80   C     C_3   0.736954 0.116787 0.620828 -0.928215
C81   C     C_3   0.996670 0.321330 0.640914 0.092749
C82   C     C_3   0.070767 0.332601 0.617641 -0.400112
C83   C     C_3   0.118438 0.263849 0.620665 -0.928447
C84   C     C_3   0.321375 0.004641 0.640963 0.092896
C85   C     C_3   0.332156 0.930380 0.617797 -0.400312
C86   C     C_3   0.263039 0.883222 0.620819 -0.928205
C87   C     C_3   0.672111 0.990451 0.868745 0.171373
C88   C     C_3   0.725981 0.989821 0.829957 -0.370565
C89   C     C_3   0.792481 0.038576 0.838883 -0.982529
C90   C     C_R   0.499999 1.000000 0.087202 0.966880
C91   C     C_3   0.008304 0.672164 0.868803 0.171530
C92   C     C_3   0.008564 0.726168 0.830085 -0.370289
C93   C     C_3   0.959460 0.792354 0.839133 -0.982598
C94   C     C_3   0.327898 0.009522 0.868748 0.171388
C95   C     C_3   0.274024 0.010144 0.829963 -0.370559
C96   C     C_3   0.207542 0.961364 0.838891 -0.982551
C97   C     C_3   0.991717 0.327846 0.868801 0.171535
C98   C     C_3   0.991455 0.273838 0.830086 -0.370266
C99   C     C_3   0.040599 0.207678 0.839123 -0.982631
C100  C     C_3   0.672130 0.008867 0.131224 0.171473
C101  C     C_R   0.000001 0.500001 0.912796 0.966594
C102  C     C_3   0.726074 0.009299 0.169972 -0.370420
C103  C     C_3   0.792381 0.960326 0.160986 -0.982596
C104  C     C_3   0.008912 0.327868 0.131224 0.171459
C105  C     C_3   0.009358 0.273923 0.169973 -0.370407
C106  C     C_3   0.960410 0.207588 0.160986 -0.982590
C107  C     C_3   0.327865 0.991135 0.131225 0.171466
C108  C     C_3   0.273918 0.990705 0.169973 -0.370406
C109  C     C_3   0.207608 0.039672 0.160984 -0.982599
C110  C     C_3   0.991109 0.672127 0.131224 0.171467
C111  C     C_3   0.990668 0.726072 0.169972 -0.370397
C112  C     C_R   0.500003 0.141304 0.000000 0.945271
C113  C     C_R   0.500001 0.000000 0.912799 0.967268
C114  C     C_3   0.039647 0.792387 0.160990 -0.982610
C115  C     C_R   0.500000 1.000000 0.586813 0.996413
C116  C     C_R   0.999999 0.500000 0.586809 0.997081
C117  C     C_R   0.500001 0.000001 0.413189 0.996737
C118  C     C_R   0.000001 0.500000 0.413189 0.996728
C119  C     C_1   0.282673 0.500007 0.000001 -0.188165
C120  C     C_1   0.500007 0.282674 0.000001 -0.188017
C121  C     C_1   0.717326 0.499993 0.999999 -0.188173
C122  C     C_1   0.499993 0.717327 0.999999 -0.188030
C123  C     C_1   0.782673 0.000006 0.500000 -0.187810
C124  C     C_R   0.858695 0.499997 1.000000 0.945133
C125  C     C_1   0.000006 0.782672 0.500002 -0.187847
C126  C     C_1   0.217327 0.999994 0.499998 -0.187838
C127  C     C_1   0.999994 0.217328 0.500001 -0.187830
C128  C     C_R   0.500003 0.359183 0.000000 0.928090
C129  C     C_R   0.640817 0.499997 1.000000 0.928081
C130  C     C_R   0.499997 0.640817 1.000000 0.928088
C131  C     C_R   0.359183 0.500003 0.000000 0.928079
C132  C     C_R   0.000002 0.859179 0.500000 0.928883
C133  C     C_R   0.140821 0.999998 0.499999 0.928867
C134  C     C_R   0.999998 0.140821 0.500000 0.928886
C135  C     C_R   0.499997 0.858696 1.000000 0.945276
C136  C     C_R   0.859179 0.000002 0.500000 0.928872
C137  C     C_R   0.032121 0.441317 0.343058 0.453907
C138  C     C_R   0.558693 0.032109 0.343057 0.453890
C139  C     C_R   0.967880 0.558680 0.343058 0.453902
C140  C     C_R   0.441301 0.967899 0.343060 0.453886
C141  C     C_R   0.031867 0.558827 0.656932 0.453766
C142  C     C_R   0.558555 0.967651 0.656951 0.454076
C143  C     C_R   0.968115 0.441184 0.656936 0.453756
C144  C     C_R   0.441444 0.032348 0.656951 0.454068
C145  C     C_R   0.557342 0.965210 0.841249 0.409942
C146  C     C_R   0.641302 0.000003 0.499996 0.916412
C147  C     C_R   0.034353 0.557617 0.841237 0.409948
C148  C     C_R   0.442661 0.034792 0.841250 0.409947
C149  C     C_R   0.965642 0.442390 0.841238 0.409921
C150  C     C_R   0.557485 0.034562 0.158756 0.409948
C151  C     C_R   0.034574 0.442524 0.158756 0.409934
C152  C     C_R   0.442508 0.965442 0.158758 0.409934
C153  C     C_R   0.965429 0.557474 0.158756 0.409943
C154  C     C_R   0.000002 0.499999 0.365546 -0.339196
C155  C     C_R   0.499998 0.000003 0.365547 -0.339179
C156  C     C_R   0.999995 0.500003 0.634448 -0.339070
C157  C     C_R   0.000003 0.641302 0.500006 0.916754
C158  C     C_R   0.499999 0.999999 0.634459 -0.339387
C159  C     C_R   0.500002 0.000002 0.864500 -0.378642
C160  C     C_R   0.999999 0.500002 0.864491 -0.378730
C161  C     C_R   0.499997 0.000001 0.135505 -0.378688
C162  C     C_R   0.000001 0.499999 0.135505 -0.378701
C163  C     C_R   0.958445 0.553743 0.296990 -0.119095
C164  C     C_R   0.446232 0.958463 0.296992 -0.119096
C165  C     C_R   0.041554 0.446252 0.296990 -0.119104
C166  C     C_R   0.553759 0.041548 0.296989 -0.119087
C167  C     C_R   0.958659 0.446081 0.703004 -0.119050
C168  C     C_R   0.358698 0.999997 0.499996 0.916416
C169  C     C_R   0.446422 0.041770 0.703018 -0.119140
C170  C     C_R   0.041317 0.553937 0.703001 -0.119054
C171  C     C_R   0.553576 0.958229 0.703018 -0.119144
C172  C     C_R   0.448941 0.043685 0.795302 -0.108745
C173  C     C_R   0.956712 0.448589 0.795289 -0.108643
C174  C     C_R   0.551059 0.956317 0.795301 -0.108741
C175  C     C_R   0.043271 0.551425 0.795286 -0.108654
C176  C     C_R   0.448742 0.956533 0.204707 -0.108698
C177  C     C_R   0.956519 0.551233 0.204705 -0.108709
C178  C     C_R   0.551248 0.043475 0.204705 -0.108712
C179  C     C_R   0.999997 0.358698 0.500006 0.916744
C180  C     C_R   0.043481 0.448763 0.204705 -0.108694
C181  C     C_R   0.999999 0.499997 0.273863 -0.158803
C182  C     C_R   0.499995 0.000005 0.273863 -0.158796
C183  C     C_R   0.999988 0.500010 0.726130 -0.158814
C184  C     C_R   0.500000 0.000001 0.726144 -0.158797
C185  C     C_R   0.500001 0.000002 0.772188 -0.154405
C186  C     C_R   0.999989 0.500009 0.772175 -0.154343
C187  C     C_R   0.499995 0.000004 0.227819 -0.154378
C188  C     C_R   0.999999 0.499997 0.227819 -0.154375
C189  C     C_R   0.907951 0.599852 0.274379 0.363114
C190  C     C_1   0.217808 0.500009 0.000001 -0.194418
C191  C     C_R   0.400101 0.907980 0.274382 0.363121
C192  C     C_R   0.092046 0.400142 0.274379 0.363123
C193  C     C_R   0.599887 0.092033 0.274377 0.363111
C194  C     C_R   0.908359 0.399750 0.725615 0.363203
C195  C     C_R   0.400520 0.092452 0.725630 0.363045
C196  C     C_R   0.091617 0.600269 0.725609 0.363192
C197  C     C_R   0.599474 0.907544 0.725629 0.363043
C198  C     C_R   0.406517 0.096360 0.772436 0.367502
C199  C     C_R   0.904403 0.405704 0.772420 0.367301
C200  C     C_R   0.593475 0.903637 0.772436 0.367496
H1    H     H_    0.795424 0.730718 0.309330 0.149335
H2    H     H_    0.217576 0.915213 0.309841 0.208288
H3    H     H_    0.546285 0.220150 0.235636 0.127627
H4    H     H_    0.561508 0.208403 0.133572 0.260518
H5    H     H_    0.487614 0.171532 0.166592 0.202486
H6    H     H_    0.453206 0.298408 0.190561 0.258040
H7    H     H_    0.450843 0.288294 0.131185 0.274989
H8    H     H_    0.526700 0.335577 0.156876 0.268818
H9    H     H_    0.264507 0.384996 0.203400 0.152125
H10   H     H_    0.220128 0.453839 0.235626 0.127609
H11   H     H_    0.208467 0.438495 0.133567 0.260514
H12   H     H_    0.171543 0.512406 0.166544 0.202504
H13   H     H_    0.259732 0.940578 0.258410 0.208114
H14   H     H_    0.298385 0.546912 0.190535 0.258034
H15   H     H_    0.288327 0.549194 0.131155 0.275009
H16   H     H_    0.335610 0.473394 0.156899 0.268802
H17   H     H_    0.029672 0.270732 0.372518 0.175255
H18   H     H_    0.994503 0.312035 0.323159 0.119329
H19   H     H_    0.939101 0.345670 0.417525 0.242618
H20   H     H_    0.899613 0.378616 0.366719 0.216476
H21   H     H_    0.871767 0.249225 0.344160 0.251690
H22   H     H_    0.829066 0.273242 0.396026 0.274802
H23   H     H_    0.910242 0.216502 0.395818 0.273747
H24   H     H_    0.183829 0.844588 0.219539 0.274729
H25   H     H_    0.729282 0.029626 0.372500 0.175245
H26   H     H_    0.687954 0.994465 0.323146 0.119343
H27   H     H_    0.654357 0.939070 0.417522 0.242611
H28   H     H_    0.621329 0.899598 0.366730 0.216493
H29   H     H_    0.750667 0.871689 0.344115 0.251693
H30   H     H_    0.726694 0.829010 0.395994 0.274799
H31   H     H_    0.783484 0.910160 0.395753 0.273729
H32   H     H_    0.970319 0.729266 0.372513 0.175259
H33   H     H_    0.005488 0.687965 0.323154 0.119325
H34   H     H_    0.060897 0.654327 0.417517 0.242617
H35   H     H_    0.128544 0.912065 0.247790 0.266126
H36   H     H_    0.100386 0.621392 0.366709 0.216470
H37   H     H_    0.128205 0.750799 0.344154 0.251686
H38   H     H_    0.170929 0.726764 0.396008 0.274800
H39   H     H_    0.089749 0.783497 0.395822 0.273754
H40   H     H_    0.270716 0.970375 0.372517 0.175258
H41   H     H_    0.312033 0.005535 0.323158 0.119337
H42   H     H_    0.345670 0.060939 0.417524 0.242630
H43   H     H_    0.378651 0.100414 0.366720 0.216483
H44   H     H_    0.249278 0.128283 0.344143 0.251694
H45   H     H_    0.273298 0.170990 0.396007 0.274796
H46   H     H_    0.140789 0.822110 0.271727 0.256574
H47   H     H_    0.216524 0.089827 0.395801 0.273740
H48   H     H_    0.028791 0.729402 0.627481 0.175288
H49   H     H_    0.993700 0.687931 0.676813 0.119364
H50   H     H_    0.938586 0.654193 0.582398 0.242826
H51   H     H_    0.899151 0.620970 0.633157 0.216563
H52   H     H_    0.870724 0.750188 0.655789 0.251777
H53   H     H_    0.828219 0.726094 0.603881 0.274819
H54   H     H_    0.909159 0.783188 0.604182 0.273611
H55   H     H_    0.729151 0.969565 0.627490 0.175187
H56   H     H_    0.687986 0.004770 0.676880 0.119335
H57   H     H_    0.204571 0.269273 0.309327 0.149339
H58   H     H_    0.654500 0.060474 0.582558 0.242397
H59   H     H_    0.621678 0.099955 0.633394 0.216428
H60   H     H_    0.751150 0.127344 0.655982 0.251599
H61   H     H_    0.727268 0.170242 0.604153 0.274783
H62   H     H_    0.783758 0.088892 0.604291 0.273852
H63   H     H_    0.971176 0.270604 0.627500 0.175278
H64   H     H_    0.006272 0.312082 0.676826 0.119361
H65   H     H_    0.061388 0.345781 0.582404 0.242807
H66   H     H_    0.100824 0.379030 0.633156 0.216564
H67   H     H_    0.129250 0.249826 0.655814 0.251773
H68   H     H_    0.203214 0.297649 0.254677 0.167981
H69   H     H_    0.171751 0.273887 0.603897 0.274821
H70   H     H_    0.090809 0.216796 0.604217 0.273609
H71   H     H_    0.270849 0.030437 0.627492 0.175199
H72   H     H_    0.312012 0.995227 0.676881 0.119329
H73   H     H_    0.345517 0.939528 0.582561 0.242404
H74   H     H_    0.378312 0.900040 0.633401 0.216421
H75   H     H_    0.248816 0.872678 0.655971 0.251595
H76   H     H_    0.272731 0.829761 0.604154 0.274782
H77   H     H_    0.216250 0.911117 0.604267 0.273860
H78   H     H_    0.702797 0.977381 0.899521 0.161906
H79   H     H_    0.084848 0.217622 0.309846 0.208300
H80   H     H_    0.649439 0.046983 0.873155 0.111974
H81   H     H_    0.745000 0.932736 0.824107 0.267238
H82   H     H_    0.697720 0.010539 0.799927 0.197422
H83   H     H_    0.774880 0.096306 0.844233 0.267873
H84   H     H_    0.830062 0.036741 0.809978 0.277577
H85   H     H_    0.822774 0.018864 0.868478 0.266576
H86   H     H_    0.021153 0.702834 0.899619 0.161948
H87   H     H_    0.951934 0.649064 0.873182 0.111703
H88   H     H_    0.065529 0.745544 0.824220 0.267361
H89   H     H_    0.987952 0.697882 0.800035 0.197429
H90   H     H_    0.059467 0.259759 0.258414 0.208106
H91   H     H_    0.901825 0.774409 0.844454 0.267963
H92   H     H_    0.961107 0.830088 0.810298 0.277682
H93   H     H_    0.979012 0.822612 0.868780 0.266483
H94   H     H_    0.297212 0.022579 0.899526 0.161905
H95   H     H_    0.350583 0.952995 0.873154 0.111969
H96   H     H_    0.254986 0.067224 0.824117 0.267237
H97   H     H_    0.302289 0.989440 0.799931 0.197429
H98   H     H_    0.225163 0.903637 0.844232 0.267876
H99   H     H_    0.169953 0.963199 0.809991 0.277582
H100  H     H_    0.177249 0.981056 0.868491 0.266576
H101  H     H_    0.155462 0.183880 0.219540 0.274724
H102  H     H_    0.978883 0.297175 0.899620 0.161936
H103  H     H_    0.048084 0.350956 0.873171 0.111709
H104  H     H_    0.934495 0.254434 0.824238 0.267331
H105  H     H_    0.012031 0.302132 0.800029 0.197446
H106  H     H_    0.098231 0.225652 0.844416 0.267967
H107  H     H_    0.038935 0.169932 0.810295 0.277686
H108  H     H_    0.021096 0.177423 0.868784 0.266485
H109  H     H_    0.702809 0.021805 0.100424 0.161925
H110  H     H_    0.649214 0.952423 0.126837 0.111824
H111  H     H_    0.745311 0.066316 0.175818 0.267287
H112  H     H_    0.796772 0.702336 0.254681 0.167966
H113  H     H_    0.088001 0.128576 0.247803 0.266123
H114  H     H_    0.697792 0.988664 0.200018 0.197438
H115  H     H_    0.774567 0.902649 0.155669 0.267924
H116  H     H_    0.830051 0.962068 0.189849 0.277638
H117  H     H_    0.822656 0.979920 0.131354 0.266531
H118  H     H_    0.021861 0.297196 0.100425 0.161928
H119  H     H_    0.952462 0.350757 0.126837 0.111835
H120  H     H_    0.066381 0.254718 0.175822 0.267294
H121  H     H_    0.988708 0.302193 0.200017 0.197435
H122  H     H_    0.902728 0.225370 0.155666 0.267923
H123  H     H_    0.962162 0.169918 0.189849 0.277639
H124  H     H_    0.177958 0.140861 0.271730 0.256577
H125  H     H_    0.980020 0.177325 0.131355 0.266530
H126  H     H_    0.297188 0.978194 0.100426 0.161926
H127  H     H_    0.350780 0.047579 0.126836 0.111825
H128  H     H_    0.254685 0.933687 0.175823 0.267296
H129  H     H_    0.302197 0.011346 0.200018 0.197437
H130  H     H_    0.225418 0.097349 0.155663 0.267924
H131  H     H_    0.169936 0.037932 0.189847 0.277640
H132  H     H_    0.177335 0.020070 0.131354 0.266529
H133  H     H_    0.978168 0.702801 0.100424 0.161917
H134  H     H_    0.047556 0.649230 0.126838 0.111838
H135  H     H_    0.730796 0.204539 0.309324 0.149334
H136  H     H_    0.933650 0.745300 0.175813 0.267273
H137  H     H_    0.011292 0.697794 0.200020 0.197446
H138  H     H_    0.097326 0.774581 0.155687 0.267925
H139  H     H_    0.037887 0.830064 0.189850 0.277639
H140  H     H_    0.020073 0.822652 0.131352 0.266532
H141  H     H_    0.702412 0.203196 0.254676 0.167964
H142  H     H_    0.782411 0.084812 0.309831 0.208292
H143  H     H_    0.740258 0.059443 0.258401 0.208113
H144  H     H_    0.816158 0.155437 0.219526 0.274728
H145  H     H_    0.871446 0.087965 0.247778 0.266123
H146  H     H_    0.859195 0.177919 0.271713 0.256576
H147  H     H_    0.796387 0.268394 0.690651 0.149355
H148  H     H_    0.915142 0.782377 0.309835 0.208288
H149  H     H_    0.797566 0.296795 0.745297 0.167920
H150  H     H_    0.916337 0.217269 0.690191 0.208252
H151  H     H_    0.941459 0.259504 0.741638 0.208135
H152  H     H_    0.845693 0.183201 0.780449 0.274661
H153  H     H_    0.913439 0.128198 0.752233 0.266131
H154  H     H_    0.823481 0.140099 0.728238 0.256566
H155  H     H_    0.270112 0.205524 0.690697 0.149327
H156  H     H_    0.298462 0.203988 0.745350 0.168023
H157  H     H_    0.217966 0.086025 0.690124 0.208366
H158  H     H_    0.260003 0.060394 0.741543 0.208079
H159  H     H_    0.940519 0.740233 0.258405 0.208109
H160  H     H_    0.184524 0.156628 0.780472 0.274772
H161  H     H_    0.128944 0.089434 0.752177 0.266118
H162  H     H_    0.141580 0.179381 0.728303 0.256583
H163  H     H_    0.203579 0.731635 0.690643 0.149374
H164  H     H_    0.202388 0.703239 0.745291 0.167938
H165  H     H_    0.083620 0.782743 0.690172 0.208274
H166  H     H_    0.058496 0.740515 0.741622 0.208127
H167  H     H_    0.154251 0.816840 0.780427 0.274654
H168  H     H_    0.086498 0.871827 0.752205 0.266136
H169  H     H_    0.176459 0.859934 0.728211 0.256570
H170  H     H_    0.844512 0.816098 0.219532 0.274729
H171  H     H_    0.729866 0.794452 0.690699 0.149330
H172  H     H_    0.701522 0.796005 0.745354 0.168038
H173  H     H_    0.782025 0.913946 0.690110 0.208380
H174  H     H_    0.740001 0.939591 0.741531 0.208073
H175  H     H_    0.815476 0.843364 0.780464 0.274763
H176  H     H_    0.871063 0.910533 0.752150 0.266114
H177  H     H_    0.858399 0.820578 0.728294 0.256576
H178  H     H_    0.386138 0.264989 0.796664 0.152199
H179  H     H_    0.454642 0.220370 0.764297 0.127739
H180  H     H_    0.439711 0.208649 0.866379 0.260404
H181  H     H_    0.911979 0.871409 0.247781 0.266122
H182  H     H_    0.513294 0.171401 0.833269 0.202470
H183  H     H_    0.548311 0.298090 0.809256 0.258015
H184  H     H_    0.550809 0.287971 0.868629 0.274860
H185  H     H_    0.475128 0.335646 0.843023 0.268788
H186  H     H_    0.735972 0.383794 0.796529 0.152042
H187  H     H_    0.780109 0.453000 0.764455 0.127463
H188  H     H_    0.791694 0.437199 0.866491 0.260603
H189  H     H_    0.828298 0.511458 0.833660 0.202554
H190  H     H_    0.701313 0.545445 0.809684 0.258059
H191  H     H_    0.711295 0.547473 0.869072 0.275168
H192  H     H_    0.822027 0.859130 0.271719 0.256578
H193  H     H_    0.664410 0.471568 0.843170 0.268817
H194  H     H_    0.613812 0.735001 0.796651 0.152181
H195  H     H_    0.545303 0.779649 0.764303 0.127730
H196  H     H_    0.560290 0.791317 0.866384 0.260389
H197  H     H_    0.486704 0.828611 0.833296 0.202484
H198  H     H_    0.451625 0.701950 0.809269 0.258016
H199  H     H_    0.449163 0.712036 0.868644 0.274867
H200  H     H_    0.524811 0.664346 0.843012 0.268778
H201  H     H_    0.264022 0.616201 0.796516 0.152061
H202  H     H_    0.219887 0.547048 0.764402 0.127519
H203  H     H_    0.269185 0.795483 0.309337 0.149334
H204  H     H_    0.208301 0.562687 0.866448 0.260584
H205  H     H_    0.171679 0.488488 0.833578 0.202550
H206  H     H_    0.298653 0.454512 0.809574 0.258070
H207  H     H_    0.288678 0.452391 0.868962 0.275138
H208  H     H_    0.335576 0.528328 0.843099 0.268822
H209  H     H_    0.384869 0.735523 0.203402 0.152120
H210  H     H_    0.453734 0.779880 0.235629 0.127604
H211  H     H_    0.438391 0.791562 0.133569 0.260519
H212  H     H_    0.512324 0.828454 0.166547 0.202502
H213  H     H_    0.546763 0.701596 0.190531 0.258041
H214  H     H_    0.297568 0.796821 0.254688 0.167967
H215  H     H_    0.549047 0.711665 0.131152 0.275010
H216  H     H_    0.473224 0.664402 0.156895 0.268808
H217  H     H_    0.735497 0.615012 0.203379 0.152140
H218  H     H_    0.779852 0.546193 0.235636 0.127623
H219  H     H_    0.791580 0.561454 0.133573 0.260522
H220  H     H_    0.828470 0.487562 0.166581 0.202487
H221  H     H_    0.701607 0.453095 0.190555 0.258034
H222  H     H_    0.711707 0.450762 0.131178 0.274994
H223  H     H_    0.664417 0.526590 0.156887 0.268809
H224  H     H_    0.615110 0.264488 0.203367 0.152145
O1    O     O_R   0.107310 0.560570 0.000010 -0.624003
O2    O     O_R   0.939430 0.607310 0.500010 -0.620878
O3    O     O_R   0.392690 0.939430 0.500010 -0.620655
O4    O     O_R   0.060570 0.392690 0.500010 -0.620869
O5    O     O_R   0.607310 0.939430 0.499990 -0.620788
O6    O     O_R   0.939430 0.392690 0.499990 -0.620740
O7    O     O_R   0.392690 0.060570 0.499990 -0.620792
O8    O     O_R   0.060570 0.607310 0.499990 -0.620734
O9    O     O_R   0.999950 0.560580 0.066080 -0.619521
O10   O     O_R   0.439420 0.999950 0.066080 -0.619526
O11   O     O_R   0.000050 0.439420 0.066080 -0.619525
O12   O     O_R   0.439430 0.107310 0.000010 -0.623982
O13   O     O_R   0.560580 0.000050 0.066080 -0.619527
O14   O     O_R   0.999950 0.439420 0.933920 -0.619387
O15   O     O_R   0.439420 0.000050 0.933920 -0.619668
O16   O     O_R   0.000050 0.560580 0.933920 -0.619391
O17   O     O_R   0.560580 0.999950 0.933920 -0.619668
O18   O     O_R   0.499950 0.060580 0.566080 -0.612723
O19   O     O_R   0.939420 0.499950 0.566080 -0.613235
O20   O     O_R   0.500050 0.939420 0.566080 -0.612728
O21   O     O_R   0.060580 0.500050 0.566080 -0.613233
O22   O     O_R   0.499950 0.939420 0.433920 -0.612998
O23   O     O_R   0.892690 0.439430 0.000010 -0.624003
O24   O     O_R   0.939420 0.500050 0.433920 -0.612946
O25   O     O_R   0.500050 0.060580 0.433920 -0.613002
O26   O     O_R   0.060580 0.499950 0.433920 -0.612950
O27   O     O_R   0.499980 0.392670 0.037330 -0.619679
O28   O     O_R   0.607330 0.499980 0.037330 -0.619631
O29   O     O_R   0.500020 0.607330 0.037330 -0.619686
O30   O     O_R   0.392670 0.500020 0.037330 -0.619638
O31   O     O_R   0.499980 0.607330 0.962670 -0.619573
O32   O     O_R   0.607330 0.500020 0.962670 -0.619749
O33   O     O_R   0.500020 0.392670 0.962670 -0.619576
O34   O     O_R   0.560570 0.892690 0.000010 -0.623982
O35   O     O_R   0.392670 0.499980 0.962670 -0.619732
O36   O     O_R   0.999980 0.892670 0.537330 -0.625301
O37   O     O_R   0.107330 0.999980 0.537330 -0.625468
O38   O     O_R   0.000020 0.107330 0.537330 -0.625298
O39   O     O_R   0.892670 0.000020 0.537330 -0.625472
O40   O     O_R   0.999980 0.107330 0.462670 -0.625416
O41   O     O_R   0.107330 0.000020 0.462670 -0.625380
O42   O     O_R   0.000020 0.892670 0.462670 -0.625413
O43   O     O_R   0.892670 0.999980 0.462670 -0.625371
O44   O     O_3   0.857090 0.638627 0.300283 -0.611326
O45   O     O_R   0.107310 0.439430 0.999990 -0.624009
O46   O     O_3   0.361303 0.857128 0.300288 -0.611322
O47   O     O_3   0.142907 0.361366 0.300282 -0.611319
O48   O     O_3   0.638683 0.142886 0.300280 -0.611328
O49   O     O_3   0.857663 0.360753 0.699709 -0.611302
O50   O     O_3   0.361949 0.143470 0.699727 -0.611334
O51   O     O_3   0.142310 0.639270 0.699702 -0.611299
O52   O     O_3   0.638039 0.856522 0.699727 -0.611328
O53   O     O_3   0.375080 0.153162 0.796227 -0.625021
O54   O     O_3   0.847892 0.373720 0.796205 -0.625102
O55   O     O_3   0.624898 0.846826 0.796227 -0.625034
O56   O     O_R   0.439430 0.892690 0.999990 -0.623976
O57   O     O_3   0.152102 0.626278 0.796194 -0.625116
O58   O     O_3   0.374340 0.847401 0.203790 -0.625059
O59   O     O_3   0.847370 0.625588 0.203784 -0.625043
O60   O     O_3   0.625643 0.152612 0.203781 -0.625048
O61   O     O_3   0.152634 0.374414 0.203784 -0.625063
O62   O     O_3   0.053659 0.380012 0.367005 -0.587284
O63   O     O_3   0.620009 0.053631 0.367001 -0.587308
O64   O     O_3   0.946338 0.619984 0.367003 -0.587282
O65   O     O_3   0.379988 0.946373 0.367008 -0.587303
O66   O     O_3   0.053175 0.620212 0.632980 -0.587414
O67   O     O_R   0.892690 0.560570 0.999990 -0.624007
O68   O     O_3   0.619797 0.945914 0.633012 -0.587182
O69   O     O_3   0.946804 0.379798 0.632987 -0.587415
O70   O     O_3   0.380203 0.054086 0.633012 -0.587178
O71   O     O_3   0.617078 0.935837 0.863557 -0.593719
O72   O     O_3   0.063315 0.617560 0.863545 -0.593738
O73   O     O_3   0.382916 0.064150 0.863557 -0.593715
O74   O     O_3   0.936694 0.382439 0.863546 -0.593754
O75   O     O_3   0.617341 0.063704 0.136448 -0.593723
O76   O     O_3   0.063733 0.382683 0.136448 -0.593738
O77   O     O_3   0.382653 0.936299 0.136451 -0.593738
O78   O     O_R   0.560570 0.107310 0.999990 -0.623971
O79   O     O_3   0.936279 0.617320 0.136449 -0.593727
O80   O     O_R   0.607310 0.060570 0.500010 -0.620657
Zn1   Zn    Zn3+2 0.000000 0.580890 0.000000 0.940752
Zn2   Zn    Zn3+2 0.500000 0.500000 0.950170 0.946567
Zn3   Zn    Zn3+2 1.000000 0.000000 0.549830 0.935597
Zn4   Zn    Zn3+2 1.000000 0.000000 0.450170 0.935585
Zn5   Zn    Zn3+2 0.419110 0.000000 0.000000 0.940745
Zn6   Zn    Zn3+2 0.000000 0.419110 0.000000 0.940748
Zn7   Zn    Zn3+2 0.580890 0.000000 0.000000 0.940746
Zn8   Zn    Zn3+2 0.500000 0.080890 0.500000 1.000103
Zn9   Zn    Zn3+2 0.919110 0.500000 0.500000 0.999859
Zn10  Zn    Zn3+2 0.500000 0.919110 0.500000 1.000103
Zn11  Zn    Zn3+2 0.080890 0.500000 0.500000 0.999861
Zn12  Zn    Zn3+2 0.500000 0.500000 0.049830 0.946558

loop_
_geom_bond_atom_site_label_1
_geom_bond_atom_site_label_2
_ccdc_geom_bond_type
C89   H85   S    
C157  O2    A    
C134  O40   A    
C19   C20   S    
C90   O13   A    
C96   H100  S    
C55   C56   S    
C113  O17   A    
C13   C121  T    
C52   H220  S    
C53   H221  S    
C60   H15   S    
C61   H17   S    
C67   O64   S    
C28   O51   S    
C1    O45   A    
C73   H45   S    
C20   H144  S    
C196  O51   S    
C108  C109  S    
C86   H77   S    
C48   H210  S    
C110  C111  S    
C64   H25   S    
C17   H124  S    
C46   C125  T    
O32   Zn2   S    
C91   H87   S    
C84   O70   S    
C54   H224  S    
C78   H59   S    
C111  H137  S    
C99   H107  S    
C97   H103  S    
C70   H37   S    
C50   H215  S    
C164  C191  A    
C98   H104  S    
C20   H145  S    
C15   H57   S    
C195  C198  A    
C16   H90   S    
C1    C190  S    
C59   C60   S    
C106  H122  S    
C21   C22   S    
C95   H97   S    
C4    C191  A    
C11   H203  S    
O45   Zn6   S    
C113  O15   A    
C77   H56   S    
C142  C158  A    
C104  C105  S    
C81   O69   S    
O56   Zn5   S    
C51   H217  S    
C45   C47   S    
C118  O26   A    
C51   C52   S    
O25   Zn8   S    
C23   H154  S    
C15   H68   S    
C13   C124  S    
C84   H72   S    
C72   C73   S    
C157  O8    A    
C139  C154  A    
C144  C169  A    
C11   H214  S    
C17   H113  S    
C94   H95   S    
C91   O72   S    
C116  O21   A    
C90   O10   A    
O18   Zn8   S    
C34   H179  S    
C72   H42   S    
C100  H110  S    
O31   Zn2   S    
C64   H26   S    
C19   H142  S    
C141  C156  A    
C47   H208  S    
O38   Zn3   S    
C38   H186  S    
C138  O63   S    
C10   H192  S    
C26   H157  S    
C7    C192  A    
C134  O38   A    
C27   H161  S    
C28   H163  S    
C133  O37   A    
C76   H52   S    
C146  O80   A    
C91   C92   S    
C150  C161  A    
C28   C29   S    
C111  H136  S    
C69   H36   S    
O3    Zn10  S    
C141  O66   S    
C6    O60   S    
C114  H139  S    
C44   H202  S    
O8    Zn11  S    
C139  O64   S    
C73   H47   S    
C4    O58   S    
C110  H133  S    
C3    O57   S    
C192  O47   S    
C37   H184  S    
C62   H19   S    
C5    C189  A    
C86   H75   S    
C175  C186  A    
C51   O59   S    
C102  H114  S    
C56   H7    S    
O2    Zn9   S    
C87   H80   S    
C50   H213  S    
C69   C70   S    
C116  C156  S    
C29   H166  S    
C88   C89   S    
C98   C99   S    
C22   C23   S    
C63   H22   S    
C87   H78   S    
C93   H91   S    
C33   H177  S    
C163  C181  A    
O27   Zn12  S    
C166  C182  A    
C127  C134  S    
C40   H193  S    
O6    Zn9   S    
C97   C98   S    
C169  C195  A    
C57   C168  S    
C85   C86   S    
C85   H74   S    
C54   O60   S    
C100  O75   S    
C36   C37   S    
C47   H207  S    
C33   H175  S    
C148  O73   S    
C145  C159  A    
C78   C80   S    
O78   Zn7   S    
C55   H4    S    
C54   H3    S    
C45   H204  S    
C129  O28   A    
C103  H115  S    
C184  C185  A    
C65   H27   S    
O26   Zn11  S    
C7    O61   S    
O1    Zn1   S    
C60   H14   S    
C92   C93   S    
O13   Zn7   S    
O11   Zn6   S    
O34   Zn7   S    
C101  C160  S    
C32   H174  S    
C117  C155  S    
C119  C131  S    
C107  C108  S    
C172  C198  A    
C12   H2    S    
C82   H65   S    
C75   H50   S    
C76   H54   S    
C9    C10   S    
C152  C161  A    
C38   O54   S    
C58   O61   S    
C98   H105  S    
C147  C160  A    
C153  O79   S    
C1    O1    A    
C14   H35   S    
C59   H11   S    
C45   H205  S    
C128  O33   A    
C153  C177  A    
C41   H195  S    
C117  O22   A    
C115  C158  S    
C63   H23   S    
C80   H62   S    
C183  C186  A    
C39   C40   S    
C2    C120  T    
C25   C26   S    
C66   H31   S    
C101  O14   A    
C96   H99   S    
C83   H70   S    
C169  C184  A    
C29   C30   S    
O37   Zn3   S    
O35   Zn2   S    
C74   H48   S    
C22   H151  S    
C49   H212  S    
C31   C32   S    
C172  C185  A    
C8    H112  S    
C93   H93   S    
C147  O72   S    
C113  C159  S    
C112  O78   A    
C135  O56   A    
C143  C167  A    
C36   H180  S    
C81   H63   S    
C19   H143  S    
C39   H188  S    
C146  O5    A    
C109  H131  S    
C74   H49   S    
C52   C53   S    
C58   H9    S    
C63   H21   S    
C54   C55   S    
O19   Zn9   S    
C89   H84   S    
C93   H92   S    
C151  O76   S    
C104  H119  S    
O80   Zn8   S    
C140  C164  A    
C10   H181  S    
C44   O57   S    
C68   C179  S    
C138  C166  A    
O16   Zn1   S    
C35   C123  T    
C60   H16   S    
O5    Zn10  S    
C110  H134  S    
C170  C196  A    
C25   O50   S    
C73   H44   S    
C85   H73   S    
C7    C180  A    
C118  C154  S    
C135  O34   A    
C34   C36   S    
C61   C62   S    
C149  C160  A    
C18   H141  S    
C56   H6    S    
C145  C174  A    
C49   C50   S    
C97   H102  S    
C70   H38   S    
C50   H216  S    
C104  O76   S    
C20   H146  S    
C26   H158  S    
C142  C171  A    
C138  C155  A    
C87   C88   S    
C106  H123  S    
C173  C199  A    
C136  O43   A    
C41   C42   S    
O22   Zn10  S    
C25   H156  S    
C77   H55   S    
C119  C190  T    
C9    H159  S    
C137  C165  A    
C61   O62   S    
O7    Zn8   S    
C77   C78   S    
C23   H152  S    
C66   H29   S    
C2    C112  S    
C26   C27   S    
C41   O55   S    
C101  O16   A    
C8    H1    S    
C23   H153  S    
C174  C185  A    
C140  O65   S    
C147  C175  A    
C53   H223  S    
C31   H172  S    
C47   H206  S    
C193  O48   S    
C18   C19   S    
C180  C188  A    
C107  O77   S    
C18   O48   S    
C16   C17   S    
C84   H71   S    
C92   H88   S    
C30   H167  S    
C38   H187  S    
C71   O65   S    
C6    C178  A    
C105  H121  S    
C115  O20   A    
C124  O67   A    
C114  H138  S    
C12   H13   S    
C28   H164  S    
C75   H51   S    
C145  O71   S    
O42   Zn4   S    
C181  C188  A    
C44   H201  S    
C55   H5    S    
C129  O32   A    
C117  O25   A    
C52   H219  S    
C171  C184  A    
C95   H96   S    
C61   H18   S    
C114  H140  S    
O10   Zn5   S    
C149  O74   S    
C43   H198  S    
C11   O46   S    
C58   C59   S    
C195  O50   S    
C32   C33   S    
C37   H183  S    
C35   C146  S    
C62   H20   S    
C110  O79   S    
C107  H126  S    
C48   H209  S    
C62   C63   S    
C133  O41   A    
C53   H222  S    
C56   H8    S    
C152  O77   S    
C151  C162  A    
C24   C122  T    
C78   H58   S    
C99   H108  S    
C163  C189  A    
C96   H98   S    
C84   C85   S    
O4    Zn11  S    
C177  C188  A    
C68   C127  T    
C178  C187  A    
C3    C175  A    
C48   C49   S    
C17   H101  S    
C67   H32   S    
C191  O46   S    
C42   C43   S    
C79   C162  S    
C27   H160  S    
C44   C45   S    
C176  C187  A    
C72   H43   S    
C64   O63   S    
O15   Zn5   S    
C121  C129  S    
O12   Zn5   S    
C120  C128  S    
C74   O66   S    
C197  O52   S    
C105  C106  S    
C174  C200  A    
C3    C196  A    
C153  C162  A    
C104  H118  S    
C64   C65   S    
C94   H94   S    
C34   H178  S    
C100  H109  S    
C151  C180  A    
C38   C39   S    
C88   H82   S    
C102  H111  S    
C9    H148  S    
C139  C163  A    
C141  C170  A    
C137  C154  A    
C111  C114  S    
C94   C95   S    
C40   H191  S    
C164  C182  A    
C140  C155  A    
C42   H196  S    
C71   C72   S    
C198  O53   S    
C166  C193  A    
C15   O47   S    
C82   C83   S    
C4    C176  A    
O20   Zn10  S    
C115  O18   A    
C91   H86   S    
C27   H162  S    
C51   H218  S    
C148  C159  A    
C6    C193  A    
C130  O31   A    
C86   H76   S    
C103  H117  S    
C170  C183  A    
C197  C200  A    
C48   O58   S    
C95   C96   S    
C75   C76   S    
C88   H81   S    
C165  C192  A    
C42   H197  S    
O30   Zn12  S    
C81   C82   S    
C43   H200  S    
C144  O70   S    
C199  O54   S    
C41   H194  S    
C14   H24   S    
C150  O75   S    
C16   H79   S    
C39   H189  S    
C79   O11   A    
C15   C16   S    
C99   H106  S    
O28   Zn12  S    
C31   O52   S    
O40   Zn4   S    
C83   H69   S    
C200  O55   S    
C49   H211  S    
C168  O7    A    
C167  C183  A    
C126  C133  S    
C8    C9    S    
C189  O44   S    
C92   H89   S    
C136  O39   A    
C142  O68   S    
C108  H129  S    
C80   H60   S    
O43   Zn4   S    
C150  C178  A    
O36   Zn3   S    
C102  C103  S    
C21   H149  S    
O29   Zn12  S    
C109  H130  S    
C37   H185  S    
C58   H10   S    
C173  C186  A    
C89   H83   S    
O23   Zn6   S    
C74   C75   S    
O21   Zn11  S    
C90   C161  S    
O24   Zn9   S    
C71   H41   S    
C33   H176  S    
C82   H66   S    
C57   C126  T    
C137  O62   S    
C8    O44   S    
C46   C157  S    
C124  O23   A    
C103  H116  S    
C65   H28   S    
C67   C69   S    
C30   H169  S    
C69   H34   S    
C108  H128  S    
O33   Zn2   S    
C179  O6    A    
O14   Zn6   S    
C143  O69   S    
C43   H199  S    
C194  C199  A    
C105  H120  S    
C128  O27   A    
C32   H173  S    
O9    Zn1   S    
C100  C102  S    
C107  H127  S    
C76   H53   S    
C5    C177  A    
C24   C135  S    
C94   O73   S    
C12   C14   S    
C167  C194  A    
C70   H39   S    
C144  C158  A    
C36   H182  S    
C59   H12   S    
C29   H165  S    
C67   H33   S    
C97   O74   S    
C118  O24   A    
C25   H155  S    
C168  O3    A    
C21   H147  S    
C80   H61   S    
C18   H135  S    
O17   Zn7   S    
C11   C12   S    
C79   O9    A    
C130  O29   A    
C131  O35   A    
C66   H30   S    
C10   H170  S    
C34   O53   S    
C123  C136  S    
C112  O12   A    
C71   H40   S    
C165  C181  A    
C83   H67   S    
C171  C197  A    
C21   O49   S    
C22   H150  S    
C125  C132  S    
C143  C156  A    
O39   Zn3   S    
C106  H125  S    
C31   H171  S    
C179  O4    A    
C148  C172  A    
C194  O49   S    
C149  C173  A    
C182  C187  A    
C77   O68   S    
C116  O19   A    
C132  O36   A    
C87   O71   S    
O41   Zn4   S    
C152  C176  A    
C131  O30   A    
C132  O42   A    
C81   H64   S    
C65   C66   S    
O67   Zn1   S    
C40   H190  S    
C122  C130  S    
C109  H132  S    
C5    O59   S    
C30   H168  S    
C14   H46   S    
