data_mof_unit_39374.cif
_audit_creation_date              2012-12-11T15:53:36-0500
_audit_creation_method            fapswitch 2.2
_symmetry_space_group_name_H-M    P1
_symmetry_Int_Tables_number       1
_space_group_crystal_system       triclinic
_cell_length_a                    6.9319
_cell_length_b                    14.546416
_cell_length_c                    15.962836
_cell_angle_alpha                 90.510235
_cell_angle_beta                  90.052067
_cell_angle_gamma                 90.024721
_cell_volume                      1609.53676756

loop_
_atom_site_label
_atom_site_type_symbol
_atom_type_description
_atom_site_fract_x
_atom_site_fract_y
_atom_site_fract_z
_atom_type_partial_charge
O1    O     O_R   0.361600 0.167310 0.164620 -0.540561
O2    O     O_R   0.638400 0.832690 0.835380 -0.540562
O3    O     O_R   0.691080 0.157570 0.338750 -0.544184
O4    O     O_R   0.308920 0.842430 0.661250 -0.544184
O5    O     O_R   0.861410 0.336420 0.339360 -0.537439
O6    O     O_R   0.138590 0.663580 0.660640 -0.537439
C1    C     C_R   0.522048 0.135201 0.367480 0.686924
C2    C     C_R   0.477952 0.864798 0.632520 0.686924
O7    O     O_R   0.691320 0.156280 0.165240 -0.543449
O8    O     O_R   0.308680 0.843720 0.834760 -0.543449
O9    O     O_R   0.861640 0.335130 0.164600 -0.540829
O10   O     O_R   0.138360 0.664870 0.835400 -0.540830
C3    C     C_R   0.522222 0.133810 0.136082 0.686786
C4    C     C_R   0.477778 0.866190 0.863918 0.686786
O11   O     O_R   0.361370 0.168600 0.339370 -0.540723
O12   O     O_R   0.638630 0.831400 0.660630 -0.540723
O13   O     O_3   0.527990 0.310540 0.251980 -0.368087
O14   O     O_3   0.472010 0.689460 0.748020 -0.368087
V1    V     V_3+5 0.802830 0.240980 0.251990 1.397160
V2    V     V_3+5 0.197170 0.759020 0.748010 1.397160
O15   O     O_R   0.191360 0.346160 0.165220 -0.543630
O16   O     O_R   0.808640 0.653840 0.834780 -0.543630
C5    C     C_R   0.022279 0.368229 0.136052 0.683613
C6    C     C_R   0.977721 0.631771 0.863948 0.683614
O17   O     O_R   0.191130 0.347440 0.338740 -0.542110
O18   O     O_R   0.808870 0.652560 0.661260 -0.542110
C7    C     C_R   0.022369 0.369662 0.367643 0.680266
C8    C     C_R   0.977631 0.630337 0.632357 0.680266
V3    V     V_3+5 0.302840 0.262750 0.251990 1.399433
V4    V     V_3+5 0.697160 0.737250 0.748010 1.399433
O19   O     O_3   0.027820 0.193180 0.251990 -0.370244
O20   O     O_3   0.972180 0.806820 0.748010 -0.370244
C9    C     C_3   0.922749 0.419969 0.524288 -0.141417
C10   C     C_3   0.077251 0.580031 0.475712 -0.141417
C11   C     C_3   0.096644 0.468583 0.566802 -0.139966
C12   C     C_3   0.903356 0.531417 0.433198 -0.139966
H1    H     H_    0.859078 0.353516 0.543886 0.101515
H2    H     H_    0.140921 0.646484 0.456114 0.101515
C13   C     C_3   0.988050 0.560694 0.562107 -0.007797
C14   C     C_3   0.011950 0.439306 0.437893 -0.007797
C15   C     C_3   0.813971 0.512875 0.520378 -0.115245
C16   C     C_3   0.186029 0.487125 0.479622 -0.115245
H3    H     H_    0.660466 0.523718 0.537558 0.107255
H4    H     H_    0.339534 0.476281 0.462442 0.107255
C17   C     C_R   0.820593 0.525173 0.967322 -0.157503
C18   C     C_R   0.179407 0.474827 0.032678 -0.157503
H5    H     H_    0.679827 0.543528 0.943265 0.116344
H6    H     H_    0.320173 0.456472 0.056735 0.116344
C19   C     C_R   0.831592 0.462136 0.033025 -0.153161
C20   C     C_R   0.168408 0.537864 0.966975 -0.153161
C21   C     C_R   0.011157 0.436059 0.066683 -0.047055
C22   C     C_R   0.988843 0.563941 0.933317 -0.047055
C23   C     C_R   0.679435 0.026076 0.468045 -0.160708
C24   C     C_R   0.320565 0.973924 0.531955 -0.160708
H7    H     H_    0.820146 0.045049 0.444398 0.116546
H8    H     H_    0.179854 0.954951 0.555602 0.116546
C25   C     C_R   0.668517 0.960923 0.531822 -0.154459
C26   C     C_R   0.331483 0.039077 0.468178 -0.154459
H9    H     H_    0.801339 0.931664 0.555345 0.118333
H10   H     H_    0.198661 0.068336 0.444655 0.118334
C27   C     C_R   0.488936 0.933989 0.564664 -0.046064
C28   C     C_R   0.511063 0.066011 0.435336 -0.046064
C29   C     C_R   0.679438 0.025640 0.032806 -0.157468
C30   C     C_R   0.320562 0.974360 0.967194 -0.157468
C31   C     C_R   0.668480 0.961558 0.967030 -0.152683
C32   C     C_R   0.331520 0.038442 0.032970 -0.152683
H11   H     H_    0.801297 0.932709 0.942725 0.118789
H12   H     H_    0.198703 0.067291 0.057275 0.118789
C33   C     C_R   0.488892 0.935050 0.933292 -0.046508
C34   C     C_R   0.511108 0.064950 0.066708 -0.046508
H13   H     H_    0.176195 0.443048 0.622308 0.103042
H14   H     H_    0.823805 0.556952 0.377692 0.103042
H15   H     H_    0.698763 0.433745 0.057351 0.118471
H16   H     H_    0.301237 0.566255 0.942648 0.118471
H17   H     H_    0.820181 0.044365 0.056993 0.116814
H18   H     H_    0.179819 0.955635 0.943007 0.116814

loop_
_geom_bond_atom_site_label_1
_geom_bond_atom_site_label_2
_ccdc_geom_bond_type
C6    C22   S    
C32   H12   S    
C29   C31   A    
C26   C28   A    
O13   V3    S    
C10   C16   S    
O4    C2    A    
V1    O19   S    
C13   C15   S    
O9    V1    S    
O3    C1    A    
C20   H16   S    
C24   C26   A    
C25   H9    S    
C3    C34   S    
O12   V4    S    
O9    C5    A    
C11   C16   S    
O7    C3    A    
C9    C11   S    
O5    C7    A    
O7    V1    S    
O6    C8    A    
O8    V2    S    
C19   C21   A    
C20   C22   A    
O3    V1    S    
O14   V4    S    
O14   V2    S    
C2    C27   S    
C17   H5    S    
C11   H13   S    
C2    O12   A    
C15   H3    S    
C12   C15   S    
C16   H4    S    
O11   V3    S    
C18   H6    S    
C23   H7    S    
O17   V3    S    
C24   H8    S    
C9    C14   S    
C10   C13   S    
C12   C14   S    
O8    C4    A    
C23   C25   A    
C17   C22   A    
C31   H11   S    
O15   V3    S    
C18   C21   A    
C9    H1    S    
C30   C32   A    
C11   C13   S    
C1    C28   S    
C23   C28   A    
C5    C21   S    
C29   C34   A    
C17   C19   A    
C7    C14   S    
O10   V2    S    
O1    V3    S    
C30   H18   S    
C30   C33   A    
O18   V4    S    
O15   C5    A    
C4    C33   S    
O16   C6    A    
O1    C3    A    
V2    O20   S    
O10   C6    A    
O16   V4    S    
C10   H2    S    
C14   C16   S    
C25   C27   A    
O5    V1    S    
C24   C27   A    
O17   C7    A    
O6    V2    S    
C18   C20   A    
O18   C8    A    
C8    C13   S    
O2    V4    S    
C9    C15   S    
V3    O19   S    
V4    O20   S    
C32   C34   A    
C29   H17   S    
C31   C33   A    
C1    O11   A    
O13   V1    S    
C10   C12   S    
C19   H15   S    
O2    C4    A    
O4    V2    S    
C26   H10   S    
C12   H14   S    
