data_mof_unit_14739.cif
_audit_creation_date              2012-12-11T14:35:56-0500
_audit_creation_method            fapswitch 2.2
_symmetry_space_group_name_H-M    P1
_symmetry_Int_Tables_number       1
_space_group_crystal_system       triclinic
_cell_length_a                    14.518198
_cell_length_b                    16.29368
_cell_length_c                    7.050769
_cell_angle_alpha                 89.999851
_cell_angle_beta                  80.185496
_cell_angle_gamma                 90.0
_cell_volume                      1643.48376831

loop_
_atom_site_label
_atom_site_type_symbol
_atom_type_description
_atom_site_fract_x
_atom_site_fract_y
_atom_site_fract_z
_atom_type_partial_charge
O1    O     O_R   0.337460 0.413110 0.524760 -0.507214
O2    O     O_R   0.662540 0.913110 0.475240 -0.507215
O3    O     O_R   0.348690 0.587910 0.191230 -0.553286
O4    O     O_R   0.651310 0.087910 0.808770 -0.553285
O5    O     O_R   0.166530 0.586890 0.082470 -0.526689
O6    O     O_R   0.833470 0.086890 0.917530 -0.526690
C1    C     C_R   0.371250 0.615882 0.352810 0.579488
C2    C     C_R   0.628750 0.115882 0.647189 0.579488
O7    O     O_R   0.348700 0.413830 0.191250 -0.541757
O8    O     O_R   0.651300 0.913830 0.808750 -0.541757
O9    O     O_R   0.166530 0.411570 0.082490 -0.511508
O10   O     O_R   0.833470 0.911570 0.917510 -0.511507
C3    C     C_R   0.371208 0.385663 0.353669 0.699477
C4    C     C_R   0.628792 0.885663 0.646331 0.699480
O11   O     O_R   0.337460 0.588430 0.524740 -0.571351
O12   O     O_R   0.662540 0.088430 0.475260 -0.571351
O13   O     O_3   0.192230 0.499460 0.407330 -0.361145
O14   O     O_3   0.807770 0.999460 0.592670 -0.361144
V1    V     V_3+5 0.263080 0.500100 0.108540 1.510535
V2    V     V_3+5 0.736920 0.000100 0.891460 1.510537
O15   O     O_R   0.155290 0.412090 0.756570 -0.523202
O16   O     O_R   0.844710 0.912090 0.243430 -0.523203
C5    C     C_R   0.130401 0.385464 0.935278 0.864619
C6    C     C_R   0.869599 0.885464 0.064722 0.864618
O17   O     O_R   0.155290 0.586170 0.756550 -0.550364
O18   O     O_R   0.844710 0.086170 0.243450 -0.550363
C7    C     C_R   0.135248 0.616793 0.932322 0.743664
C8    C     C_R   0.864752 0.116793 0.067677 0.743661
V3    V     V_3+5 0.240910 0.499900 0.616030 1.520997
V4    V     V_3+5 0.759090 0.999900 0.383970 1.520999
O19   O     O_3   0.311760 0.500540 0.867100 -0.387943
O20   O     O_3   0.688240 0.000540 0.132900 -0.387944
C9    C     C_3   0.105502 0.762844 0.086364 0.569004
C10   C     C_3   0.894498 0.262845 0.913634 0.569005
C11   C     C_3   0.040796 0.842351 0.085973 0.537190
C12   C     C_3   0.959204 0.342351 0.914025 0.537190
C13   C     C_3   0.969297 0.660350 0.087847 0.515495
C14   C     C_3   0.030703 0.160350 0.912153 0.515496
C15   C     C_3   0.053125 0.731168 0.766022 0.521510
C16   C     C_3   0.946874 0.231168 0.233978 0.521510
C17   C     C_3   0.066877 0.690418 0.966631 -0.309564
C18   C     C_3   0.933123 0.190418 0.033369 -0.309567
C19   C     C_3   0.943376 0.816147 0.025374 -0.333188
C20   C     C_3   0.056624 0.316147 0.974627 -0.333187
C21   C     C_3   0.900981 0.736241 0.132111 0.093155
C22   C     C_3   0.099019 0.236241 0.867890 0.093154
C23   C     C_3   0.966638 0.793965 0.803541 0.591693
C24   C     C_3   0.033362 0.293964 0.196460 0.591691
H1    H     H_    0.835991 0.725015 0.072270 0.090154
H2    H     H_    0.164009 0.225015 0.927733 0.090153
H3    H     H_    0.448864 0.680301 0.638579 0.130900
H4    H     H_    0.551126 0.180294 0.361425 0.130901
C25   C     C_2   0.440948 0.684322 0.341361 0.153276
C26   C     C_2   0.559054 0.184324 0.658637 0.153276
C27   C     C_2   0.475531 0.708304 0.500285 -0.204158
C28   C     C_2   0.524467 0.208301 0.499717 -0.204160
C29   C     C_2   0.555164 0.820317 0.652641 0.103333
C30   C     C_2   0.444834 0.320316 0.347361 0.103333
C31   C     C_2   0.550967 0.771760 0.496141 0.380300
C32   C     C_2   0.449033 0.271761 0.503863 0.380302
O21   O     O_3   0.108703 0.737256 0.274418 -0.622290
H5    H     H_    0.048414 0.749660 0.355211 0.373310
O22   O     O_3   0.891299 0.237257 0.725579 -0.622287
H6    H     H_    0.951588 0.249661 0.644788 0.373310
O23   O     O_3   0.886656 0.763132 0.738803 -0.623384
H7    H     H_    0.878059 0.704449 0.770728 0.271052
O24   O     O_3   0.113343 0.263132 0.261199 -0.623385
H8    H     H_    0.121939 0.204448 0.229275 0.271054
O25   O     O_3   0.927683 0.601379 0.981490 -0.706120
H9    H     H_    0.863305 0.590010 0.049539 0.267506
O26   O     O_3   0.072316 0.101379 0.018511 -0.706119
H10   H     H_    0.136695 0.090010 0.950463 0.267506
O27   O     O_3   0.619397 0.779436 0.334388 -0.636894
H11   H     H_    0.621199 0.728368 0.257815 0.310142
O28   O     O_3   0.380606 0.279439 0.665620 -0.636894
H12   H     H_    0.378805 0.228373 0.742200 0.310143
O29   O     O_3   0.486818 0.811663 0.813515 -0.653162
H13   H     H_    0.495406 0.855058 0.907344 0.324139
O30   O     O_3   0.513179 0.311660 0.186485 -0.653164
H14   H     H_    0.504591 0.355055 0.092656 0.324141
O31   O     O_3   0.469266 0.725734 0.170257 -0.623378
H15   H     H_    0.436249 0.702861 0.070527 0.324651
O32   O     O_3   0.530745 0.225742 0.829734 -0.623376
H16   H     H_    0.563773 0.202875 0.929459 0.324650
O33   O     O_3   0.198107 0.783714 0.004836 -0.613367
H17   H     H_    0.240536 0.740177 0.038032 0.297148
O34   O     O_3   0.801893 0.283715 0.995160 -0.613368
H18   H     H_    0.759464 0.240178 0.961962 0.297144
O35   O     O_3   0.086471 0.898996 0.950566 -0.605934
H19   H     H_    0.138106 0.925287 0.004572 0.350759
O36   O     O_3   0.913529 0.398996 0.049432 -0.605933
H20   H     H_    0.861894 0.425287 0.995426 0.350759
O37   O     O_3   0.028821 0.883685 0.263650 -0.660070
H21   H     H_    0.972739 0.862277 0.346270 0.330282
O38   O     O_3   0.971179 0.383686 0.736349 -0.660070
H22   H     H_    0.027261 0.362277 0.653729 0.330281
O39   O     O_3   0.985099 0.627401 0.267967 -0.533262
C33   C     C_3   0.975189 0.541829 0.288607 0.036501
H23   H     H_    0.004624 0.522818 0.416846 0.166609
H24   H     H_    0.014283 0.509362 0.162173 0.186721
H25   H     H_    0.900264 0.524115 0.314411 0.116503
O40   O     O_3   0.014902 0.127401 0.732033 -0.533261
C34   C     C_3   0.024812 0.041829 0.711394 0.036501
H26   H     H_    0.995377 0.022819 0.583154 0.166608
H27   H     H_    0.985717 0.009362 0.837827 0.186721
H28   H     H_    0.099737 0.024116 0.685591 0.116502
O41   O     O_3   0.874406 0.749934 0.333165 -0.522945
C35   C     C_3   0.802618 0.695634 0.418834 0.015761
H29   H     H_    0.832732 0.646455 0.497742 0.143490
H30   H     H_    0.761844 0.665816 0.318079 0.042264
H31   H     H_    0.752845 0.730393 0.526046 0.145565
O42   O     O_3   0.125594 0.249935 0.666836 -0.522945
C36   C     C_3   0.197384 0.195636 0.581170 0.015754
H32   H     H_    0.167272 0.146454 0.502268 0.143488
H33   H     H_    0.238162 0.165823 0.681924 0.042270
H34   H     H_    0.247154 0.230395 0.473951 0.145565
O43   O     O_3   0.036967 0.673498 0.625412 -0.623934
H35   H     H_    0.002453 0.625266 0.683091 0.323865
O44   O     O_3   0.963031 0.173498 0.374589 -0.623931
H36   H     H_    0.997544 0.125266 0.316910 0.323865
O45   O     O_3   0.134319 0.779183 0.691250 -0.537060
C37   C     C_3   0.213111 0.737165 0.592333 0.053761
H37   H     H_    0.255065 0.781241 0.493213 0.134440
H38   H     H_    0.196390 0.685480 0.502802 0.189161
H39   H     H_    0.258465 0.716194 0.693849 0.099108
O46   O     O_3   0.865680 0.279183 0.308748 -0.537060
C38   C     C_3   0.786886 0.237165 0.407657 0.053777
H40   H     H_    0.744925 0.281243 0.506757 0.134433
H41   H     H_    0.803607 0.185485 0.497206 0.189157
H42   H     H_    0.741541 0.216186 0.306134 0.099102
O47   O     O_3   0.986963 0.868355 0.703750 -0.614012
H43   H     H_    0.034224 0.860587 0.588546 0.349652
O48   O     O_3   0.013037 0.368354 0.296250 -0.614013
H44   H     H_    0.965776 0.360586 0.411454 0.349652

loop_
_geom_bond_atom_site_label_1
_geom_bond_atom_site_label_2
_ccdc_geom_bond_type
O34   H18   S    
O37   H21   S    
C22   O42   S    
O13   V3    S    
O27   H11   S    
O38   H22   S    
C10   C18   S    
O4    C2    A    
V1    O19   S    
C13   O39   S    
O39   C33   S    
C15   C17   S    
O29   H13   S    
O9    V1    S    
O46   C38   S    
C14   C18   S    
C27   C31   S    
C9    C11   S    
C29   C31   D    
C30   C32   D    
C33   H23   S    
C35   H29   S    
C25   O31   S    
C8    C18   S    
C9    O33   S    
O42   C36   S    
O7    C3    A    
C1    O11   A    
O5    C7    A    
O7    V1    S    
O6    C8    A    
O8    V2    S    
O41   C35   S    
O3    V1    S    
O14   V4    S    
C11   C19   S    
C31   O27   S    
H3    C27   S    
O21   H5    S    
C36   H34   S    
C25   C27   D    
C2    O12   A    
O40   C34   S    
C26   O32   S    
C20   C22   S    
O11   V3    S    
C11   O37   S    
O17   V3    S    
C26   C28   D    
O24   H8    S    
C29   O29   S    
C24   O48   S    
O8    C4    A    
C2    C26   S    
O36   H20   S    
C3    C30   S    
O33   H17   S    
O15   V3    S    
O31   H15   S    
C5    C20   S    
O30   H14   S    
C23   O47   S    
O28   H12   S    
C38   H41   S    
C13   O25   S    
C7    C17   S    
O32   H16   S    
C21   H1    S    
C16   O46   S    
O10   V2    S    
O1    V3    S    
C34   H27   S    
C19   C21   S    
O45   C37   S    
C30   O30   S    
C11   O35   S    
C12   O36   S    
C9    O21   S    
O18   V4    S    
C33   H24   S    
O15   C5    A    
O48   H44   S    
O16   C6    A    
C12   C20   S    
O1    C3    A    
C1    C25   S    
C13   C21   S    
C38   H40   S    
C37   H38   S    
C15   C23   S    
C36   H32   S    
V2    O20   S    
C16   C24   S    
C4    C29   S    
C22   H2    S    
C14   O26   S    
O16   V4    S    
O18   C8    A    
C16   C18   S    
O44   H36   S    
O5    V1    S    
O17   C7    A    
C33   H25   S    
O6    V2    S    
O10   C6    A    
C32   O28   S    
O3    C1    A    
C15   O45   S    
C35   H31   S    
O2    V4    S    
C9    C17   S    
C37   H39   S    
O35   H19   S    
C38   H42   S    
O26   H10   S    
C14   O40   S    
C15   O43   S    
O47   H43   S    
V4    O20   S    
C12   O38   S    
C19   C23   S    
O9    C5    A    
C10   O22   S    
O13   V1    S    
C10   C12   S    
C35   H30   S    
C34   H28   S    
O14   V2    S    
C10   O34   S    
C24   O24   S    
C13   C17   S    
O25   H9    S    
O2    C4    A    
C14   C22   S    
C21   O41   S    
O22   H6    S    
O4    V2    S    
H4    C28   S    
C16   O44   S    
C28   C32   S    
V3    O19   S    
O23   H7    S    
C34   H26   S    
C6    C19   S    
C37   H37   S    
O43   H35   S    
O12   V4    S    
C23   O23   S    
C20   C24   S    
C36   H33   S    
