data_mof_unit_54885.cif
_audit_creation_date              2012-10-26T20:58:18-0400
_audit_creation_method            fapswitch 2.2
_symmetry_space_group_name_H-M    P1
_symmetry_Int_Tables_number       1
_space_group_crystal_system       triclinic
_cell_length_a                    10.624312
_cell_length_b                    14.707535
_cell_length_c                    14.734738
_cell_angle_alpha                 65.047732
_cell_angle_beta                  103.15278
_cell_angle_gamma                 102.846252
_cell_volume                      2011.82109323

loop_
_atom_site_label
_atom_site_type_symbol
_atom_type_description
_atom_site_fract_x
_atom_site_fract_y
_atom_site_fract_z
_atom_type_partial_charge
C1    C     C_R   0.476601 0.119724 0.312370 0.573441
C2    C     C_R   0.461054 0.532656 0.946684 0.037011
C3    C     C_R   0.426368 0.490042 0.872707 -0.128681
C4    C     C_R   0.479294 0.508983 0.123264 -0.126045
C5    C     C_R   0.403865 0.385964 0.899944 -0.120662
C6    C     C_R   0.498936 0.613048 0.095941 -0.125196
C7    C     C_R   0.714862 0.283660 0.669715 -0.150465
C8    C     C_R   0.286186 0.716876 0.329478 -0.154313
C9    C     C_R   0.681699 0.202376 0.639808 0.049552
C10   C     C_R   0.318793 0.797872 0.359825 0.046400
C11   C     C_R   0.519780 0.285729 0.508379 0.033791
C12   C     C_R   0.520885 0.880284 0.687641 0.585168
C13   C     C_R   0.480291 0.714309 0.491516 0.031502
C14   C     C_R   0.549135 0.371506 0.534718 0.003871
C15   C     C_R   0.451527 0.628836 0.464710 0.003082
C16   C     C_R   0.259793 0.000208 0.500451 0.599359
C17   C     C_R   0.740206 0.999819 0.499511 0.594926
C18   C     C_R   0.648599 0.368091 0.617971 0.036666
C19   C     C_R   0.352484 0.632462 0.381158 0.036497
C20   C     C_R   0.483323 0.459201 0.482786 0.023311
C21   C     C_R   0.517549 0.541248 0.516473 0.021773
C22   C     C_R   0.616383 0.532838 0.600736 -0.140710
C23   C     C_R   0.472735 0.291894 0.179037 -0.104014
C24   C     C_R   0.384866 0.467792 0.398266 -0.143049
C25   C     C_R   0.680675 0.448309 0.649793 -0.121687
C26   C     C_R   0.320862 0.552468 0.349003 -0.127777
C27   C     C_3   0.021922 0.032767 0.405775 0.222178
C28   C     C_3   0.978101 0.967304 0.594190 0.277931
C29   C     C_3   0.970079 0.094922 0.447449 -0.155336
C30   C     C_3   0.029936 0.905129 0.552529 -0.135189
C31   C     C_3   0.876536 0.999252 0.499177 -0.016819
C32   C     C_3   0.123482 0.000804 0.500782 -0.006484
C33   C     C_3   0.926492 0.937616 0.455848 -0.167646
C34   C     C_R   0.503583 0.707992 0.820990 -0.107740
C35   C     C_3   0.073535 0.062439 0.544117 -0.134845
C36   C     C_R   0.456379 0.187366 0.204943 0.035299
C37   C     C_R   0.523640 0.812625 0.794876 0.034461
C38   C     C_R   0.400722 0.215622 0.027522 -0.107152
C39   C     C_R   0.530914 0.783696 0.970056 -0.116083
C40   C     C_R   0.418780 0.149298 0.128756 -0.089165
C41   C     C_R   0.538122 0.850393 0.869973 -0.097659
C42   C     C_R   0.450661 0.360140 0.077828 0.042077
C43   C     C_R   0.489534 0.639226 0.920277 0.035845
C44   C     C_R   0.418027 0.320553 0.001479 0.055241
C45   C     C_R   0.506676 0.678660 0.995744 0.051952
C46   C     C_R   0.464520 0.466581 0.050506 0.039437
Cu1   Cu    Cu3+1 0.465750 0.918270 0.475680 0.981083
Cu2   Cu    Cu3+1 0.534250 0.081730 0.524320 0.989466
H1    H     H_    0.942952 0.172139 0.403392 0.152054
H2    H     H_    0.354813 0.410213 0.367658 0.104945
H3    H     H_    0.864687 0.887565 0.418777 0.138734
H4    H     H_    0.135349 0.112495 0.581181 0.154159
H5    H     H_    0.377256 0.356540 0.840884 0.118775
H6    H     H_    0.509312 0.642314 0.154008 0.116793
H7    H     H_    0.501013 0.681931 0.762380 0.120713
H8    H     H_    0.506655 0.318658 0.239221 0.117320
H9    H     H_    0.553785 0.931198 0.851323 0.140148
H10   H     H_    0.404751 0.068573 0.147239 0.136736
H11   H     H_    0.374053 0.184926 0.969456 0.119726
H12   H     H_    0.057067 0.827911 0.596583 0.151229
H13   H     H_    0.542970 0.814234 0.027313 0.114636
H14   H     H_    0.411619 0.534969 0.792524 0.107294
H15   H     H_    0.471932 0.463728 0.201961 0.105419
H16   H     H_    0.756170 0.445518 0.713960 0.126621
H17   H     H_    0.245858 0.555493 0.284499 0.123554
H18   H     H_    0.849143 0.051597 0.219231 0.329700
H19   H     H_    0.060386 0.861449 0.869503 0.370056
H20   H     H_    0.555926 0.719316 0.552341 0.128327
H21   H     H_    0.443736 0.280532 0.447845 0.127123
H22   H     H_    0.269006 0.863606 0.319137 0.175975
H23   H     H_    0.731532 0.136666 0.680480 0.178122
H24   H     H_    0.791173 0.280165 0.733518 0.117208
H25   H     H_    0.210277 0.720584 0.265388 0.110573
H26   H     H_    0.646716 0.590528 0.631188 0.108538
N1    N     N_R   0.585750 0.204560 0.560800 -0.245744
N2    N     N_R   0.414250 0.795440 0.439200 -0.245751
O1    O     O_R   0.454850 0.022100 0.338110 -0.502466
O2    O     O_2   0.098276 0.997957 0.262465 -0.298083
O3    O     O_3   0.915590 0.112501 0.198065 -0.489922
O4    O     O_2   0.904623 0.003906 0.736941 -0.299617
O5    O     O_2   0.841103 0.831808 0.739531 -0.299534
O6    O     O_3   0.084497 0.886837 0.800996 -0.525258
O7    O     O_R   0.545150 0.977900 0.661890 -0.496405
O8    O     O_R   0.512700 0.160150 0.379180 -0.519487
O9    O     O_R   0.487300 0.839850 0.620820 -0.518591
O10   O     O_R   0.287930 0.931000 0.479440 -0.483216
O11   O     O_R   0.712070 0.069000 0.520560 -0.481767
O12   O     O_R   0.345780 0.069050 0.520520 -0.507156
O13   O     O_R   0.654220 0.930950 0.479480 -0.510199
O14   O     O_2   0.156988 0.169761 0.260063 -0.262093
S1    S     S_3+6 0.052926 0.078828 0.278887 0.019655
S2    S     S_3+6 0.947005 0.921573 0.720936 0.006548

loop_
_geom_bond_atom_site_label_1
_geom_bond_atom_site_label_2
_ccdc_geom_bond_type
C30   C32   S    
C6    C45   A    
C27   C29   S    
C34   C37   A    
C1    O1    A    
C14   C18   A    
C23   H8    S    
C39   C41   A    
C29   H1    S    
C27   C33   S    
C1    O8    A    
C15   C19   A    
H18   O3    S    
C4    H15   S    
C23   C42   A    
C12   O9    A    
Cu1   O9    S    
C5    H5    S    
C24   C26   A    
Cu1   N2    S    
C11   C14   A    
O6    S2    S    
C42   C46   A    
C12   C37   S    
C19   C26   A    
O5    S2    D    
C10   N2    A    
C20   C24   A    
C28   C35   S    
C22   C25   A    
C30   H12   S    
Cu2   O12   S    
C27   S1    S    
O3    S1    S    
C39   C45   A    
C34   H7    S    
C21   C22   A    
C16   O10   A    
Cu1   O13   S    
Cu2   N1    S    
C18   C25   A    
C42   C44   A    
C6    H6    S    
C24   H2    S    
C39   H13   S    
C8    C19   A    
C40   H10   S    
Cu1   O10   S    
C14   C20   A    
C36   C40   A    
C17   O13   A    
C4    C6    A    
C7    H24   S    
C4    C46   A    
C2    C46   A    
Cu2   O8    S    
C12   O7    A    
C25   H16   S    
O4    S2    D    
C32   C35   S    
C38   C44   A    
Cu1   Cu2   S    
C13   N2    A    
C2    C43   A    
C7    C18   A    
C31   C33   S    
Cu2   O11   S    
C28   S2    S    
C43   C45   A    
C10   H22   S    
C5    C44   A    
C13   C15   A    
C17   C31   S    
C16   C32   S    
Cu1   O1    S    
C3    H14   S    
C7    C9    A    
C30   C33   S    
C27   C32   S    
C17   O11   A    
C26   H17   S    
C28   C31   S    
C34   C43   A    
C9    H23   S    
C3    C5    A    
C11   H21   S    
O2    S1    D    
C33   H3    S    
C29   C35   S    
Cu2   O7    S    
C28   C30   S    
C2    C3    A    
C41   H9    S    
C29   C31   S    
C11   N1    A    
C38   C40   A    
O14   S1    D    
C8    H25   S    
C37   C41   A    
C38   H11   S    
C15   C21   A    
C20   C21   A    
H19   O6    S    
C8    C10   A    
C23   C36   A    
C35   H4    S    
C16   O12   A    
C22   H26   S    
C9    N1    A    
C1    C36   S    
C13   H20   S    
