data_mof_unit_29624.cif
_audit_creation_date              2013-03-05T15:52:44-0500
_audit_creation_method            fapswitch 2.2
_symmetry_space_group_name_H-M    P1
_symmetry_Int_Tables_number       1
_space_group_crystal_system       triclinic
_cell_length_a                    10.157757
_cell_length_b                    10.665856
_cell_length_c                    13.185175
_cell_angle_alpha                 90.654584
_cell_angle_beta                  74.086462
_cell_angle_gamma                 90.834108
_cell_volume                      1373.5657785

loop_
_atom_site_label
_atom_site_type_symbol
_atom_site_description
_atom_site_fract_x
_atom_site_fract_y
_atom_site_fract_z
_atom_type_partial_charge
O1    O     O_R   0.385310 0.683220 0.500000 -0.634928
O2    O     O_R   0.614640 0.683250 0.500010 -0.581599
C1    C     C_R   0.505288 0.737672 0.484952 0.926626
O3    O     O_R   0.328400 0.499950 0.653610 -0.612818
O4    O     O_R   0.557730 0.499970 0.653620 -0.603105
C2    C     C_R   0.427944 0.480598 0.699919 0.936978
Zn1   Zn    Zn3+2 0.346880 0.499980 0.499990 1.059531
Zn2   Zn    Zn3+2 0.653120 0.500020 0.500010 0.997801
O5    O     O_R   0.385360 0.316750 0.499990 -0.567541
O6    O     O_R   0.614690 0.316780 0.500000 -0.638575
O7    O     O_R   0.442270 0.500030 0.346380 -0.532757
O8    O     O_R   0.671600 0.500050 0.346390 -0.629287
C3    C     C_R   0.497093 0.259888 0.506061 0.864593
C4    C     C_R   0.574312 0.501471 0.297528 0.909633
C5    C     C_R   0.799608 0.434789 0.027472 0.401816
H1    H     H_    0.829978 0.469474 0.178516 0.220349
C6    C     C_R   0.617284 0.487756 0.182559 -0.221298
C7    C     C_R   0.270405 0.381140 0.861278 -0.019982
C8    C     C_R   0.251937 0.323937 0.959816 0.028940
C9    C     C_R   0.345621 0.345501 0.016113 -0.134496
C10   C     C_R   0.470892 0.400430 0.965455 0.122763
C11   C     C_R   0.507118 0.410167 0.856012 0.077353
C12   C     C_R   0.566558 0.430135 0.019572 -0.077723
C13   C     C_R   0.706603 0.418278 0.967190 -0.036685
C14   C     C_R   0.744990 0.392895 0.856909 0.308325
C15   C     C_R   0.645494 0.391643 0.802622 -0.181055
C16   C     C_R   0.523491 0.480062 0.122118 0.279548
C17   C     C_R   0.755103 0.466289 0.133658 -0.250394
C18   C     C_R   0.400321 0.426661 0.806989 -0.149482
H2    H     H_    0.186549 0.385094 0.826182 0.249142
H3    H     H_    0.324064 0.312189 0.096359 0.196576
H4    H     H_    0.164022 0.269029 0.998060 0.232792
H5    H     H_    0.678080 0.366617 0.720050 0.205878
H6    H     H_    0.725202 0.890100 0.460961 0.190603
C19   C     C_R   0.280189 0.886774 0.429776 0.270789
C20   C     C_R   0.149793 0.937029 0.467204 -0.278895
H7    H     H_    0.065047 0.897736 0.441824 0.202386
C21   C     C_R   0.127587 0.033816 0.541087 0.288480
C22   C     C_R   0.240515 0.092443 0.564774 0.290600
C23   C     C_R   0.374861 0.053843 0.512830 -0.047120
C24   C     C_R   0.390217 0.936029 0.465060 -0.018356
C25   C     C_R   0.511283 0.870767 0.463123 -0.076408
C26   C     C_R   0.629061 0.936802 0.467908 -0.125397
H8    H     H_    0.716664 0.114338 0.482883 0.200858
C27   C     C_R   0.622424 0.063959 0.485676 -0.138382
C28   C     C_R   0.495479 0.123985 0.509037 -0.056422
H9    H     H_    0.915845 0.362065 0.382918 0.167510
C29   C     C_R   0.820784 0.648956 0.664969 0.162126
C30   C     C_R   0.876380 0.694667 0.746734 0.227047
C31   C     C_R   0.016020 0.698931 0.730773 0.186864
C32   C     C_R   0.099305 0.649100 0.640518 -0.230168
H10   H     H_    0.203926 0.662290 0.633484 0.253285
C33   C     C_R   0.050403 0.576302 0.569555 0.065619
C34   C     C_R   0.904858 0.575649 0.574974 0.046562
N1    N     N_R   0.856860 0.501200 0.500990 -0.122980
C35   C     C_R   0.950382 0.425064 0.435486 -0.092891
C36   C     C_R   0.090227 0.421640 0.437959 0.410906
N2    N     N_R   0.142450 0.501280 0.501020 -0.109802
Br1   Br    Br    0.307809 0.772048 0.314897 -0.343456
Br2   Br    Br    0.942654 0.082859 0.606199 -0.392386
Br3   Br    Br    0.210710 0.186550 0.691631 -0.391278
Br4   Br    Br    0.652636 0.738847 0.684151 -0.342269
N3    N     N_R   0.791741 0.748327 0.843112 0.264962
O9    O     O_R   0.688409 0.685214 0.901111 -0.338333
O10   O     O_R   0.809134 0.864938 0.867143 -0.242519
Br5   Br    Br    0.100110 0.769209 0.833059 -0.265549
Br6   Br    Br    0.927087 0.373177 0.768103 -0.411880
Br7   Br    Br    0.200140 0.292079 0.356878 -0.439925
N4    N     N_R   0.936933 0.400866 0.988119 0.188676
O11   O     O_R   0.961392 0.282713 0.966796 -0.370685
O12   O     O_R   0.030267 0.475819 0.006202 -0.379922
N5    N     N_R   0.400789 0.552722 0.149889 0.244048
O13   O     O_R   0.288858 0.507151 0.212139 -0.339902
O14   O     O_R   0.391982 0.647307 0.090665 -0.253318

loop_
_geom_bond_atom_site_label_1
_geom_bond_atom_site_label_2
_geom_bond_distance
_ccdc_geom_bond_type
H1    C17   1.083926 S    
N1    C35   1.365406 A    
N3    O10   1.301475 A    
C1    C25   1.448776 S    
C23   C24   1.390611 A    
C30   N3    1.442267 S    
C11   C18   1.420655 A    
C24   C25   1.415893 A    
C8    C9    1.373518 A    
C14   Br6   1.911716 S    
C36   N2    1.380895 A    
C33   C34   1.460350 A    
Zn1   O7    1.991191 S    
O4    C2    1.306515 A    
C20   H7    1.083011 S    
C3    C28   1.450227 S    
O7    C4    1.319072 A    
C35   C36   1.430802 A    
C19   Br1   1.898667 S    
C7    C8    1.405917 A    
N4    O12   1.300891 A    
O5    C3    1.316557 A    
C19   C20   1.393346 A    
C12   C13   1.407515 A    
C7    H2    1.076606 S    
C12   C16   1.403235 A    
Zn1   N2    2.073116 S    
C10   C11   1.392709 A    
C4    C6    1.464170 S    
O3    Zn1   1.982278 S    
C5    N4    1.399796 S    
C8    H4    1.067385 S    
Zn2   N1    2.072975 S    
C22   Br3   1.894631 S    
C32   H10   1.048649 S    
C6    C16   1.400756 A    
C13   C14   1.422255 A    
N5    O14   1.301705 A    
C22   C23   1.413601 A    
C14   C15   1.389262 A    
C27   C28   1.403303 A    
O1    C1    1.308185 A    
C29   C34   1.480277 A    
C31   Br5   1.923613 S    
C15   H5    1.079100 S    
C29   Br4   1.925031 S    
Zn2   O8    1.982279 S    
C31   C32   1.364154 A    
C7    C18   1.400315 A    
C26   C27   1.373143 A    
C21   Br2   1.916616 S    
O3    C2    1.336172 A    
C29   C30   1.425742 A    
O8    C4    1.319721 A    
C10   C12   1.385607 A    
C25   C26   1.395410 A    
C23   C28   1.415585 A    
C36   Br7   1.911967 S    
H8    C27   1.082866 S    
Zn1   O5    1.998582 S    
C34   N1    1.432366 A    
C5    C13   1.399644 A    
O1    Zn1   1.987439 S    
C6    C17   1.392453 A    
O2    Zn2   1.998581 S    
H6    C26   1.083651 S    
N5    O13   1.297652 A    
O6    C3    1.314969 A    
O4    Zn2   1.991191 S    
C33   N2    1.368580 A    
C20   C21   1.388825 A    
O2    C1    1.323819 A    
C5    C17   1.387114 A    
C21   C22   1.405524 A    
N4    O11   1.300614 A    
C19   C24   1.415626 A    
N3    O9    1.300260 A    
C2    C18   1.483017 S    
C9    C10   1.389144 A    
Zn2   O6    1.987440 S    
C30   C31   1.375848 A    
C11   C15   1.404483 A    
C32   C33   1.397186 A    
C16   N5    1.435094 S    
H9    C35   1.082050 S    
C9    H3    1.083033 S    
