data_mof_unit_27633.cif
_audit_creation_date              2012-12-10T17:26:24-0500
_audit_creation_method            fapswitch 2.2
_symmetry_space_group_name_H-M    P1
_symmetry_Int_Tables_number       1
_space_group_crystal_system       triclinic
_cell_length_a                    10.243528
_cell_length_b                    10.869048
_cell_length_c                    27.160127
_cell_angle_alpha                 90.469433
_cell_angle_beta                  82.188544
_cell_angle_gamma                 96.050462
_cell_volume                      2979.13137098

loop_
_atom_site_label
_atom_site_type_symbol
_atom_type_description
_atom_site_fract_x
_atom_site_fract_y
_atom_site_fract_z
_atom_type_partial_charge
C1    C     C_R   0.556355 0.731755 0.495338 1.000754
C2    C     C_R   0.438471 0.589489 0.123294 -0.098647
C3    C     C_R   0.505412 0.511883 0.647224 -0.162319
C4    C     C_R   0.493213 0.484347 0.352331 -0.119583
C5    C     C_R   0.349351 0.574847 0.029038 0.064849
C6    C     C_R   0.342660 0.345332 0.979820 0.067437
C7    C     C_R   0.343142 0.348836 0.031931 -0.014194
C8    C     C_R   0.306920 0.564906 0.981494 -0.016714
C9    C     C_R   0.366772 0.465811 0.054197 0.077565
C10   C     C_R   0.325982 0.454487 0.954752 0.076555
C11   C     C_R   0.391666 0.690022 0.048944 -0.182081
C12   C     C_R   0.443630 0.268264 0.504656 1.003872
C13   C     C_R   0.372355 0.239974 0.951685 -0.174805
C14   C     C_R   0.440497 0.698468 0.094811 -0.026794
C15   C     C_R   0.385476 0.241091 0.899695 -0.019656
C16   C     C_R   0.501544 0.501997 0.593917 0.911445
C17   C     C_R   0.498059 0.495989 0.405933 0.915643
C18   C     C_R   0.254973 0.661909 0.958010 -0.069688
C19   C     C_R   0.330598 0.241228 0.062151 -0.082472
C20   C     C_2   0.589179 0.863603 0.496671 -0.314541
C21   C     C_2   0.410567 0.136471 0.503467 -0.327464
C22   C     C_2   0.496667 0.937629 0.489557 0.104789
C23   C     C_R   0.333069 0.455203 0.902667 -0.053959
C24   C     C_2   0.502568 0.062261 0.510916 0.099490
C25   C     C_2   0.931794 0.523405 0.498664 0.196501
C26   C     C_2   0.073996 0.504575 0.491016 0.166535
C27   C     C_R   0.322367 0.563740 0.826623 0.593439
C28   C     C_R   0.468743 0.372903 0.172864 0.533696
C29   C     C_R   0.380384 0.361650 0.822261 0.540521
C30   C     C_R   0.458259 0.591001 0.173713 0.638473
C31   C     C_R   0.539729 0.414974 0.723422 0.169424
C32   C     C_R   0.587625 0.550363 0.268751 0.165170
C33   C     C_R   0.554604 0.418102 0.671679 -0.205217
C34   C     C_R   0.409137 0.473323 0.101443 -0.050152
C35   C     C_R   0.591600 0.552635 0.319876 -0.260789
C36   C     C_R   0.466232 0.616927 0.673899 -0.138771
C37   C     C_R   0.391386 0.407323 0.333381 -0.124163
C38   C     C_R   0.464166 0.617388 0.725970 -0.050765
C39   C     C_R   0.379767 0.414488 0.282257 -0.095134
C40   C     C_R   0.463711 0.502108 0.750429 0.137489
C41   C     C_R   0.480186 0.484177 0.249854 0.219628
C42   C     C_2   0.433027 0.725938 0.647485 0.992546
C43   C     C_2   0.305472 0.312878 0.365787 0.925632
C44   C     C_2   0.501557 0.735326 0.752008 0.996530
C45   C     C_R   0.303884 0.560536 0.878493 -0.045279
C46   C     C_2   0.264716 0.349071 0.261568 0.998368
C47   C     C_2   0.509152 0.818915 0.108259 1.014686
C48   C     C_2   0.433429 0.130539 0.873865 1.012743
C49   C     C_2   0.180858 0.756066 0.986282 0.908037
C50   C     C_2   0.241961 0.128544 0.052691 0.927126
C51   C     C_R   0.424060 0.364104 0.126544 -0.046989
C52   C     C_R   0.257018 0.659577 0.906373 -0.129175
C53   C     C_R   0.381955 0.248908 0.107362 -0.132969
C54   C     C_R   0.366174 0.350348 0.874556 -0.097973
H1    H     H_    0.320583 0.103651 0.488373 0.137719
H2    H     H_    0.124021 0.221406 0.385330 0.341253
H3    H     H_    0.170294 0.513016 0.421101 0.229694
H4    H     H_    0.181722 0.379764 0.454384 0.243061
H5    H     H_    0.816968 0.625245 0.546791 0.243752
H6    H     H_    0.881762 0.696867 0.490918 0.202265
H7    H     H_    0.131116 0.532286 0.592769 0.220896
H8    H     H_    0.155187 0.678735 0.571640 0.216588
H9    H     H_    0.922749 0.293546 0.496064 0.167058
H10   H     H_    0.911733 0.319252 0.434067 0.219624
H11   H     H_    0.505435 0.921271 0.755803 0.352706
H12   H     H_    0.679286 0.896487 0.511672 0.123316
H13   H     H_    0.113857 0.361571 0.221896 0.354212
H14   H     H_    0.699746 0.708757 0.245857 0.229873
H15   H     H_    0.781309 0.580999 0.241036 0.204835
H16   H     H_    0.585217 0.245375 0.742720 0.258883
H17   H     H_    0.623400 0.360673 0.783628 0.233922
H18   H     H_    0.663144 0.909116 0.137381 0.364554
H19   H     H_    0.571523 0.060858 0.824495 0.352165
H20   H     H_    0.104650 0.919414 0.984922 0.378642
H21   H     H_    0.177133 0.950940 0.070894 0.374978
H22   H     H_    0.603219 0.045373 0.569826 0.211073
H23   H     H_    0.223021 0.735725 0.887856 0.244536
H24   H     H_    0.698099 0.105630 0.517338 0.200994
H25   H     H_    0.300799 0.893757 0.483748 0.194321
H26   H     H_    0.394506 0.954120 0.430988 0.213662
H27   H     H_    0.378467 0.166141 0.129685 0.251044
H28   H     H_    0.671909 0.608280 0.334325 0.161539
H29   H     H_    0.603363 0.346665 0.650641 0.168335
H30   H     H_    0.397512 0.773424 0.026888 0.172211
H31   H     H_    0.397195 0.158770 0.969708 0.161906
H32   H     H_    0.302662 0.850293 0.642307 0.343737
N1    N     N_R   0.391445 0.476754 0.800545 -0.328858
N2    N     N_3   0.620711 0.338268 0.746297 -0.417739
N3    N     N_3   0.606601 0.105481 0.539716 -0.429488
N4    N     N_3   0.391943 0.894183 0.461095 -0.426283
N5    N     N_R   0.474312 0.483658 0.197179 -0.340637
N6    N     N_2   0.842700 0.448890 0.480020 -0.081703
N7    N     N_2   0.157300 0.551110 0.519980 -0.102654
N8    N     N_3   0.121063 0.445683 0.446112 -0.468945
N9    N     N_3   0.899025 0.639501 0.519450 -0.443184
N10   N     N_3   0.105294 0.591671 0.566489 -0.377941
N11   N     N_3   0.865868 0.325898 0.470626 -0.361032
N12   N     N_3   0.692705 0.615505 0.235744 -0.393943
O1    O     O_R   0.431060 0.692470 0.504020 -0.573022
O2    O     O_2   0.499776 0.270737 0.194713 -0.519532
O3    O     O_2   0.453308 0.696739 0.199921 -0.508426
O4    O     O_2   0.373548 0.259697 0.793886 -0.535288
O5    O     O_2   0.508473 0.770746 0.611898 -0.675301
O6    O     O_R   0.314750 0.776763 0.663343 -0.728999
O7    O     O_2   0.354171 0.253009 0.395186 -0.660939
O8    O     O_R   0.170128 0.290094 0.362186 -0.785862
O9    O     O_2   0.559048 0.732214 0.788572 -0.621992
O10   O     O_R   0.474145 0.849439 0.734806 -0.745232
O11   O     O_2   0.241082 0.236680 0.265697 -0.545488
O12   O     O_R   0.568940 0.307530 0.495980 -0.561463
O13   O     O_R   0.187283 0.416183 0.235314 -0.799389
O14   O     O_2   0.469093 0.915822 0.097487 -0.580162
O15   O     O_R   0.624469 0.821775 0.130742 -0.755188
O16   O     O_2   0.377702 0.027694 0.885369 -0.564673
O17   O     O_R   0.546600 0.143238 0.838465 -0.798103
O18   O     O_2   0.127351 0.733996 0.028797 -0.604528
O19   O     O_R   0.165280 0.867129 0.963225 -0.748134
O20   O     O_2   0.157979 0.133894 0.025005 -0.607495
O21   O     O_R   0.247466 0.018619 0.078246 -0.742695
O22   O     O_R   0.651120 0.659650 0.491200 -0.658221
O23   O     O_R   0.348880 0.340350 0.508800 -0.635326
O24   O     O_R   0.389980 0.516390 0.577660 -0.618316
O25   O     O_R   0.610020 0.483610 0.422340 -0.588042
O26   O     O_R   0.610040 0.483570 0.564830 -0.622936
O27   O     O_R   0.389960 0.516430 0.435170 -0.644299
O28   O     O_2   0.267333 0.649495 0.803001 -0.525262
Zn1   Zn    Zn3+2 0.353060 0.521910 0.508560 0.954090
Zn2   Zn    Zn3+2 0.646940 0.478090 0.491440 0.980629

loop_
_geom_bond_atom_site_label_1
_geom_bond_atom_site_label_2
_ccdc_geom_bond_type
C26   N8    S    
C23   C45   A    
H8    N10   S    
C36   C42   S    
H32   O6    S    
C24   N3    S    
C1    O1    A    
C12   O12   A    
C28   O2    S    
H7    N10   S    
C18   C52   A    
C39   C41   A    
C38   C44   S    
C34   C51   A    
C40   N1    S    
C20   H12   S    
O23   Zn1   S    
C27   O28   S    
C11   C14   A    
C29   C54   A    
C3    C33   A    
C47   O14   D    
C31   C40   A    
C53   H27   S    
C43   O7    D    
O24   Zn1   S    
C16   O24   A    
H25   N4    S    
C17   O25   A    
C49   O19   S    
C12   O23   A    
C25   N6    D    
C32   C41   A    
C31   C33   A    
H11   O10   S    
H22   N3    S    
O26   Zn2   S    
H15   N12   S    
C27   C45   A    
C26   N7    D    
C4    C35   A    
H16   N2    S    
C46   O13   S    
C42   O5    D    
H26   N4    S    
H5    N9    S    
C15   C48   S    
N6    Zn2   S    
C35   H28   S    
N6    N11   S    
C44   O10   S    
H24   N3    S    
C50   O21   S    
C32   C35   A    
H21   O21   S    
C15   C54   A    
C21   H1    S    
O1    Zn1   S    
C45   C52   A    
C25   C26   S    
H18   O15   S    
C8    C18   A    
C51   C53   A    
C1    O22   A    
C37   C43   S    
C17   O27   A    
C5    C9    A    
C22   N4    S    
C27   N1    A    
C33   H29   S    
H2    O8    S    
C6    C7    A    
C48   O17   S    
C4    C17   S    
H13   O13   S    
H10   N11   S    
C41   N5    S    
C20   C22   D    
C25   N9    S    
N7    N10   S    
C7    C19   A    
H3    N8    S    
C39   C46   S    
C9    C34   A    
C11   H30   S    
C22   C24   S    
C21   C24   D    
C52   H23   S    
C23   C54   A    
C48   O16   D    
C44   O9    D    
C47   O15   S    
H20   O19   S    
C1    C20   S    
C31   N2    S    
C2    C34   A    
C50   O20   D    
N7    Zn1   S    
C8    C10   A    
C30   N5    A    
C42   O6    S    
C6    C10   A    
C5    C8    A    
O22   Zn2   S    
C5    C11   A    
C14   C47   S    
C10   C23   A    
H19   O17   S    
C2    C30   A    
C13   C15   A    
H4    N8    S    
H9    N11   S    
C6    C13   A    
C38   C40   A    
C19   C50   S    
C19   C53   A    
O25   Zn2   S    
C3    C36   A    
C12   C21   S    
C30   O3    S    
C36   C38   A    
C28   C51   A    
C32   N12   S    
C29   O4    S    
C28   N5    A    
C16   O26   A    
C2    C14   A    
H14   N12   S    
C29   N1    A    
H17   N2    S    
H6    N9    S    
C7    C9    A    
C49   O18   D    
C4    C37   A    
C37   C39   A    
C46   O11   D    
C13   H31   S    
O27   Zn1   S    
C43   O8    S    
C3    C16   S    
C18   C49   S    
O12   Zn2   S    
