data_mof_unit_66122.cif
_audit_creation_date              2012-12-10T16:58:57-0500
_audit_creation_method            fapswitch 2.2
_symmetry_space_group_name_H-M    P1
_symmetry_Int_Tables_number       1
_space_group_crystal_system       triclinic
_cell_length_a                    9.751609
_cell_length_b                    10.904895
_cell_length_c                    17.388629
_cell_angle_alpha                 92.154584
_cell_angle_beta                  86.168313
_cell_angle_gamma                 89.132135
_cell_volume                      1843.38462936

loop_
_atom_site_label
_atom_site_type_symbol
_atom_type_description
_atom_site_fract_x
_atom_site_fract_y
_atom_site_fract_z
_atom_type_partial_charge
C1    C     C_R   0.499671 0.734063 0.493126 0.832997
C2    C     C_R   0.354690 0.440599 0.775892 0.167150
C3    C     C_R   0.412811 0.505054 0.146972 -0.142615
C4    C     C_R   0.406132 0.498748 0.226592 -0.181775
C5    C     C_R   0.653544 0.521497 0.225298 -0.186373
C6    C     C_R   0.660039 0.528277 0.145390 -0.157903
C7    C     C_R   0.540149 0.517954 0.105872 0.182318
C8    C     C_2   0.467273 0.456089 0.978433 -0.199500
C9    C     C_2   0.549850 0.522510 0.021748 -0.216446
C10   C     C_R   0.526444 0.506108 0.266336 -0.024061
C11   C     C_2   0.597605 0.067711 0.459930 -0.167439
C12   C     C_R   0.482007 0.493893 0.649578 0.836678
C13   C     C_2   0.504539 0.133957 0.504280 -0.253113
C14   C     C_2   0.608320 0.934312 0.465436 -0.065608
C15   C     C_2   0.494843 0.864193 0.474326 -0.036789
C16   C     C_2   0.071683 0.574224 0.544912 0.264233
C17   C     C_2   0.915452 0.572692 0.545924 0.231254
C18   C     C_R   0.501024 0.265706 0.500858 0.837375
C19   C     C_R   0.517771 0.500997 0.350373 0.774578
C20   C     C_R   0.474059 0.480746 0.733625 -0.091672
C21   C     C_R   0.593142 0.503714 0.772619 -0.193256
C22   C     C_R   0.593061 0.493730 0.851647 -0.129867
C23   C     C_R   0.472839 0.461788 0.894132 0.142094
C24   C     C_R   0.355366 0.432714 0.855785 -0.176884
Cu1   Cu    Cu3+1 0.361370 0.499980 0.499980 1.022823
Cu2   Cu    Cu3+1 0.638630 0.500020 0.500020 0.990699
H1    H     H_    0.688167 0.528632 0.742184 0.199122
H2    H     H_    0.758754 0.539690 0.114268 0.132322
H3    H     H_    0.674333 0.113451 0.423375 0.160886
H4    H     H_    0.430834 0.091519 0.544080 0.183406
H5    H     H_    0.110943 0.437730 0.464881 0.169052
H6    H     H_    0.899800 0.443057 0.461462 0.166734
H7    H     H_    0.306520 0.488449 0.256889 0.160512
H8    H     H_    0.747602 0.528811 0.254803 0.158952
H9    H     H_    0.627973 0.580565 0.995720 0.152022
H10   H     H_    0.263552 0.403696 0.888218 0.150215
H11   H     H_    0.318107 0.501464 0.117906 0.130835
H12   H     H_    0.389998 0.398166 0.005667 0.149950
H13   H     H_    0.688191 0.509699 0.878696 0.144028
N1    N     N_2   0.152990 0.501340 0.500850 -0.310234
N2    N     N_2   0.846850 0.501370 0.500880 -0.311963
O1    O     O_R   0.382960 0.678040 0.499990 -0.527914
O2    O     O_R   0.617100 0.678080 0.500010 -0.562941
O3    O     O_R   0.369350 0.500000 0.613580 -0.534267
O4    O     O_R   0.603500 0.500040 0.613610 -0.563694
O5    O     O_R   0.382900 0.321920 0.499990 -0.558448
O6    O     O_R   0.617040 0.321960 0.500010 -0.575584
O7    O     O_R   0.396500 0.499960 0.386390 -0.584507
O8    O     O_R   0.630650 0.500000 0.386420 -0.591537
C25   C     C_1   0.746911 0.883749 0.458224 0.316834
N3    N     N_1   0.858135 0.844316 0.451713 -0.230960
I1    I     I_    0.296723 0.927663 0.442362 -0.307357
I2    I     I_    0.158536 0.705616 0.622687 -0.189910
I3    I     I_    0.806928 0.699295 0.627375 -0.264322
I4    I     I_    0.172312 0.378742 0.726984 -0.320131

loop_
_geom_bond_atom_site_label_1
_geom_bond_atom_site_label_2
_ccdc_geom_bond_type
Cu1   O1    S    
C8    C9    D    
H6    N2    S    
C6    C7    A    
C1    C15   S    
C19   O8    A    
Cu1   O5    S    
C8    C23   S    
C10   C19   S    
C23   C24   A    
C18   O6    A    
C12   C20   S    
C25   N3    T    
C21   H1    S    
C5    C10   A    
C12   O3    A    
C14   C25   S    
C15   I1    S    
C5    H8    S    
C11   C13   D    
Cu1   O7    S    
C3    H11   S    
C24   H10   S    
C8    H12   S    
C13   C18   S    
C16   N1    D    
C22   H13   S    
C18   O5    A    
Cu1   O3    S    
C21   C22   A    
Cu1   Cu2   S    
Cu2   O2    S    
C3    C7    A    
C2    I4    S    
C22   C23   A    
Cu1   N1    S    
C2    C24   A    
C5    C6    A    
C11   C14   S    
C17   N2    D    
C4    H7    S    
C4    C10   A    
C3    C4    A    
C13   H4    S    
C1    O1    A    
H5    N1    S    
C11   H3    S    
C7    C9    S    
Cu2   O8    S    
C9    H9    S    
Cu2   O6    S    
C16   I2    S    
C12   O4    A    
C19   O7    A    
Cu2   O4    S    
C20   C21   A    
C14   C15   D    
C2    C20   A    
C17   I3    S    
C1    O2    A    
C6    H2    S    
Cu2   N2    S    
C16   C17   S    
