data_mof_unit_50078.cif
_audit_creation_date              2013-03-05T15:59:36-0500
_audit_creation_method            fapswitch 2.2
_symmetry_space_group_name_H-M    P1
_symmetry_Int_Tables_number       1
_space_group_crystal_system       triclinic
_cell_length_a                    12.685576
_cell_length_b                    13.05787
_cell_length_c                    15.7216
_cell_angle_alpha                 92.18569
_cell_angle_beta                  102.598874
_cell_angle_gamma                 81.941626
_cell_volume                      2516.3498656

loop_
_atom_site_label
_atom_site_type_symbol
_atom_site_description
_atom_site_fract_x
_atom_site_fract_y
_atom_site_fract_z
_atom_type_partial_charge
O1    O     O_R   0.366730 0.627160 0.478790 -0.624888
O2    O     O_R   0.544830 0.662520 0.507160 -0.552732
C1    C     C_R   0.438646 0.691362 0.489576 0.944365
O3    O     O_R   0.410960 0.482330 0.609040 -0.624652
O4    O     O_R   0.589060 0.517690 0.637410 -0.575727
C2    C     C_R   0.501334 0.500222 0.661789 0.868394
Zn1   Zn    Zn3+2 0.381080 0.476390 0.481050 1.056163
Zn2   Zn    Zn3+2 0.618920 0.523610 0.518950 1.092304
O5    O     O_R   0.455170 0.337480 0.492840 -0.561489
O6    O     O_R   0.633270 0.372840 0.521210 -0.577933
O7    O     O_R   0.410940 0.482310 0.362590 -0.569449
O8    O     O_R   0.589040 0.517670 0.390960 -0.592396
C3    C     C_R   0.561459 0.308794 0.515647 0.928474
C4    C     C_R   0.499198 0.498314 0.338304 0.983775
C5    C     C_3   0.403562 0.493519 0.008395 0.278475
C6    C     C_3   0.442060 0.580117 0.963665 -0.255477
H1    H     H_    0.389913 0.649462 0.931652 0.195178
H2    H     H_    0.573262 0.649918 0.074129 0.212039
C7    C     C_1   0.505183 0.499306 0.751418 -0.052265
C8    C     C_1   0.497876 0.495231 0.249008 0.030488
C9    C     C_3   0.468744 0.410158 0.961926 0.309654
C10   C     C_3   0.508285 0.495880 0.918166 -0.056829
C11   C     C_3   0.568428 0.410936 0.037406 0.307060
C12   C     C_3   0.502939 0.493917 0.083585 -0.113226
C13   C     C_3   0.609572 0.496251 0.992852 -0.203725
C14   C     C_3   0.543036 0.580227 0.040081 -0.186749
C15   C     C_1   0.507860 0.498009 0.827175 0.130184
C16   C     C_1   0.499501 0.493973 0.173953 0.158582
H3    H     H_    0.694296 0.496726 0.984805 0.210089
C17   C     C_R   0.720422 0.043293 0.511112 0.344611
C18   C     C_R   0.599032 0.198169 0.530401 -0.187401
C19   C     C_R   0.306863 0.832450 0.525567 -0.210512
C20   C     C_R   0.286856 0.933565 0.554004 0.348533
C21   C     C_R   0.359920 0.001923 0.549387 -0.158143
C22   C     C_R   0.448442 0.972533 0.507773 0.017126
C23   C     C_R   0.458275 0.874946 0.467060 -0.062626
C24   C     C_R   0.530901 0.034373 0.509355 0.012832
C25   C     C_R   0.626736 0.993417 0.480653 -0.147758
C26   C     C_R   0.621362 0.910248 0.419570 0.369940
C27   C     C_R   0.530553 0.854149 0.408856 0.338639
C28   C     C_R   0.519962 0.137230 0.536045 -0.198937
C29   C     C_R   0.706113 0.149060 0.533775 0.253215
C30   C     C_R   0.396795 0.801275 0.487666 -0.058610
H4    H     H_    0.445859 0.174842 0.552220 0.209188
H5    H     H_    0.257171 0.776729 0.539379 0.185681
H6    H     H_    0.347131 0.075302 0.581792 0.183375
C31   C     C_R   0.074740 0.433837 0.333898 0.245191
H7    H     H_    0.859516 0.442993 0.288918 0.241488
N1    N     N_R   0.222180 0.444680 0.455580 -0.178404
C32   C     C_R   0.814061 0.604201 0.621487 0.518419
C33   C     C_R   0.921751 0.578860 0.665849 -0.302763
C34   C     C_R   0.996388 0.520507 0.624713 0.351018
C35   C     C_R   0.965448 0.504564 0.533669 -0.075599
C36   C     C_R   0.851660 0.507161 0.497706 0.064999
C37   C     C_R   0.040407 0.483757 0.477758 0.013508
C38   C     C_R   0.000866 0.465493 0.387756 -0.072792
C39   C     C_R   0.889374 0.466841 0.355357 -0.090593
C40   C     C_R   0.819938 0.468178 0.412005 0.306963
C41   C     C_R   0.152692 0.489469 0.504778 -0.041573
C42   C     C_R   0.183998 0.404814 0.374577 0.443166
N2    N     N_R   0.776980 0.554790 0.543960 -0.173544
H8    H     H_    0.185691 0.528865 0.563852 0.197374
H9    H     H_    0.947514 0.603896 0.732733 0.242061
Br1   Br    Br    0.169028 0.974258 0.611130 -0.290964
S1    S     S_3+6 0.489997 0.780916 0.311807 0.061956
O9    O     O_2   0.583049 0.701082 0.299545 -0.296487
O10   O     O_2   0.391854 0.728757 0.312270 -0.329846
O11   O     O_3   0.455774 0.862469 0.226933 -0.447261
H10   H     H_    0.442227 0.817379 0.174639 0.392188
S2    S     S_3+6 0.254501 0.289868 0.337849 0.138521
O12   O     O_2   0.179681 0.236450 0.268292 -0.184197
O13   O     O_2   0.350102 0.310353 0.302476 -0.234909
O14   O     O_3   0.297696 0.209087 0.422331 -0.568610
H11   H     H_    0.316880 0.140881 0.395846 0.388187
S3    S     S_3+6 0.033888 0.436238 0.218240 0.127069
O15   O     O_2   0.131426 0.436760 0.178806 -0.153439
O16   O     O_2   0.979381 0.342717 0.186391 -0.178088
O17   O     O_3   0.945645 0.543653 0.187371 -0.537080
H12   H     H_    0.917238 0.534223 0.124096 0.397371
S4    S     S_3+6 0.738777 0.713378 0.660956 0.070619
O18   O     O_2   0.684346 0.784169 0.586715 -0.322119
O19   O     O_2   0.655060 0.683781 0.706182 -0.291019
O20   O     O_3   0.824797 0.778275 0.732756 -0.518042
H13   H     H_    0.780118 0.843475 0.744888 0.404113
S5    S     S_3+6 0.267303 0.493922 0.020830 0.155992
O21   O     O_2   0.254757 0.388644 0.049325 -0.112218
O22   O     O_2   0.243025 0.572930 0.088417 -0.242696
O23   O     O_3   0.179745 0.522652 0.925492 -0.419800
H14   H     H_    0.191615 0.592722 0.911048 0.360243
S6    S     S_3+6 0.112488 0.451532 0.693029 0.090601
O24   O     O_2   0.197229 0.522454 0.723333 -0.331895
O25   O     O_2   0.079143 0.414464 0.771323 -0.138719
O26   O     O_3   0.164218 0.347788 0.640976 -0.493475
H15   H     H_    0.244037 0.340222 0.664079 0.397087
Br2   Br    Br    0.749039 0.346652 0.385300 -0.347873
S7    S     S_3+6 0.653301 0.300994 0.090258 0.136339
O27   O     O_2   0.742397 0.336745 0.159485 -0.217485
O28   O     O_2   0.587014 0.239364 0.132140 -0.206407
O29   O     O_3   0.709311 0.227128 0.017335 -0.451515
H16   H     H_    0.661599 0.172760 0.999382 0.402363
S8    S     S_3+6 0.420815 0.297766 0.907324 0.097692
O30   O     O_2   0.313952 0.328844 0.845301 -0.188615
O31   O     O_2   0.502569 0.246597 0.857431 -0.313027
O32   O     O_3   0.403673 0.214997 0.980893 -0.453037
H17   H     H_    0.378319 0.154775 0.946202 0.401562
Br3   Br    Br    0.830630 0.218677 0.581548 -0.272509
S9    S     S_3+6 0.720507 0.885427 0.352404 0.146600
O33   O     O_2   0.781026 0.976580 0.352889 -0.212833
O34   O     O_2   0.799975 0.792753 0.388305 -0.251932
O35   O     O_3   0.666151 0.861912 0.247370 -0.444088
H18   H     H_    0.728862 0.833837 0.221446 0.394814
Br4   Br    Br    0.862374 0.962781 0.545295 -0.198892

loop_
_geom_bond_atom_site_label_1
_geom_bond_atom_site_label_2
_geom_bond_distance
_ccdc_geom_bond_type
C37   C38   1.417325 A    
O26   H15   0.990551 S    
C18   C29   1.409313 A    
C37   C41   1.406534 A    
C19   H5    1.083641 S    
C34   S6    1.773614 S    
C22   C23   1.406093 A    
H2    C14   1.110334 S    
C40   Br2   1.920405 S    
S6    O24   1.504086 D    
H7    C39   1.080345 S    
C35   C36   1.426932 A    
C11   S7    1.782684 S    
C26   S9    1.800260 S    
C2    C7    1.399725 S    
C1    C30   1.457859 S    
S8    O30   1.500827 D    
N1    C42   1.370558 A    
C22   C24   1.403850 A    
C12   C14   1.538827 S    
O3    Zn1   1.965267 S    
C25   C26   1.420890 A    
O7    C4    1.304272 A    
C5    C6    1.541760 S    
S7    O29   1.681782 S    
C38   C39   1.392671 A    
C17   C25   1.418039 A    
C21   C22   1.420168 A    
O14   H11   0.990435 S    
O5    C3    1.320843 A    
O35   H18   0.990774 S    
C31   C42   1.399349 A    
O29   H16   0.990280 S    
C6    H1    1.110133 S    
S1    O10   1.502007 D    
C10   C13   1.540400 S    
S7    O28   1.503327 D    
S9    O33   1.503033 D    
S2    O12   1.502626 D    
C21   H6    1.076657 S    
C7    C15   1.184773 T    
Zn2   N2    2.052672 S    
C5    S5    1.780672 S    
C9    S8    1.785161 S    
C35   C37   1.422904 A    
S8    O31   1.502638 D    
C9    C10   1.531206 S    
C13   H3    1.110141 S    
S9    O34   1.503693 D    
S4    O20   1.682856 S    
O32   H17   0.990425 S    
C32   C33   1.391905 A    
S5    O22   1.502778 D    
C6    C14   1.553431 S    
C33   C34   1.386564 A    
C4    C8    1.399427 S    
C23   C27   1.424433 A    
C33   H9    1.083142 S    
Zn1   N1    2.065000 S    
O3    C2    1.304696 A    
C26   C27   1.426377 A    
O17   H12   0.990618 S    
O11   H10   0.990924 S    
C8    C16   1.184103 T    
C13   C14   1.554978 S    
S5    O21   1.501757 D    
C17   Br4   1.930524 S    
O1    C1    1.303819 A    
Zn1   O7    1.986170 S    
S3    O15   1.500903 D    
C24   C25   1.416422 A    
S3    O16   1.503064 D    
S6    O25   1.502771 D    
O20   H13   0.990934 S    
C42   S2    1.780162 S    
Zn2   O8    1.965265 S    
S1    O11   1.681977 S    
S7    O27   1.500819 D    
S2    O14   1.674612 S    
C20   C21   1.388284 A    
C29   Br3   1.928342 S    
S4    O19   1.499400 D    
C5    C12   1.529030 S    
O8    C4    1.304343 A    
S8    O32   1.680512 S    
C27   S1    1.786412 S    
C9    C11   1.534737 S    
C28   H4    1.074657 S    
C34   C35   1.414665 A    
S6    O26   1.684032 S    
C36   C40   1.415973 A    
S5    O23   1.679530 S    
Zn1   O5    1.918207 S    
C41   H8    1.075523 S    
C6    C10   1.539622 S    
C18   C28   1.383891 A    
O1    Zn1   1.952525 S    
C3    C18   1.466950 S    
O2    Zn2   1.918207 S    
C12   C16   1.430839 S    
S4    O18   1.498439 D    
O6    C3    1.307733 A    
C32   S4    1.771670 S    
O4    Zn2   1.986169 S    
C36   N2    1.383454 A    
N1    C41   1.354891 A    
C10   C15   1.430675 S    
C19   C20   1.384966 A    
O2    C1    1.317553 A    
C31   S3    1.778925 S    
C39   C40   1.380613 A    
O4    C2    1.304330 A    
C20   Br1   1.910410 S    
S9    O35   1.679435 S    
C19   C30   1.403612 A    
C11   C13   1.544721 S    
C24   C28   1.389026 A    
S3    O17   1.682458 S    
C11   C12   1.530387 S    
C5    C9    1.533897 S    
O23   H14   0.990359 S    
Zn2   O6    1.952525 S    
S1    O9    1.502080 D    
C32   N2    1.377726 A    
C17   C29   1.409862 A    
C23   C30   1.408177 A    
S2    O13   1.499371 D    
C31   C38   1.406024 A    
