data_mof_unit_27542.cif
_audit_creation_date              2012-12-11T14:49:54-0500
_audit_creation_method            fapswitch 2.2
_symmetry_space_group_name_H-M    P1
_symmetry_Int_Tables_number       1
_space_group_crystal_system       triclinic
_cell_length_a                    16.973235
_cell_length_b                    16.799308
_cell_length_c                    19.50285
_cell_angle_alpha                 117.816198
_cell_angle_beta                  63.462417
_cell_angle_gamma                 100.512023
_cell_volume                      4397.851782

loop_
_atom_site_label
_atom_site_type_symbol
_atom_type_description
_atom_site_fract_x
_atom_site_fract_y
_atom_site_fract_z
_atom_type_partial_charge
C1    C     C_R   0.049568 0.755808 0.001332 -0.142003
C2    C     C_R   0.250573 0.526602 0.827005 -0.121483
C3    C     C_R   0.184234 0.489935 0.087142 -0.114825
C4    C     C_R   0.765210 0.419637 0.162546 -0.156017
C5    C     C_R   0.987802 0.341099 0.759737 -0.133956
C6    C     C_R   0.258673 0.538052 0.062927 0.049979
C7    C     C_R   0.939062 0.265436 0.758772 0.084903
C8    C     C_R   0.253326 0.470439 0.746445 0.072448
C9    C     C_R   0.051979 0.225013 0.979540 0.071498
C10   C     C_R   0.853853 0.133254 0.701713 -0.219252
C11   C     C_R   0.904179 0.207513 0.695066 0.098347
C12   C     C_R   0.767136 0.440542 0.238791 -0.006111
C13   C     C_R   0.928434 0.221276 0.622630 -0.228443
C14   C     C_R   0.916557 0.154343 0.551779 0.125459
C15   C     C_R   0.876897 0.074098 0.554446 0.037407
C16   C     C_R   0.805220 0.560782 0.961472 -0.127206
C17   C     C_R   0.840279 0.066166 0.631481 0.121333
C18   C     C_R   0.952185 0.163325 0.476031 -0.252815
C19   C     C_R   0.959304 0.089368 0.399535 -0.069881
C20   C     C_R   0.925884 0.005775 0.400305 0.043396
C21   C     C_R   0.880702 0.999594 0.478973 0.050972
C22   C     C_R   0.845578 0.917064 0.481424 0.047753
C23   C     C_R   0.724999 0.548015 0.020287 0.062378
C24   C     C_R   0.800576 0.912549 0.560946 -0.107195
C25   C     C_R   0.797958 0.987892 0.635179 -0.220992
C26   C     C_R   0.941330 0.927041 0.324743 -0.201470
C27   C     C_R   0.917870 0.843793 0.326735 0.098307
C28   C     C_R   0.952187 0.674877 0.246306 -0.073671
C29   C     C_R   0.861587 0.840637 0.404058 -0.208896
C30   C     C_R   0.406750 0.415329 0.650617 -0.254725
C31   C     C_R   0.328098 0.449061 0.666746 0.104878
C32   C     C_R   0.318770 0.464071 0.606256 -0.228713
C33   C     C_R   0.389177 0.449147 0.529805 0.117943
C34   C     C_R   0.961070 0.760452 0.250553 0.042029
C35   C     C_R   0.470211 0.417849 0.513020 0.051474
C36   C     C_R   0.478424 0.398680 0.572915 0.143009
C37   C     C_R   0.379686 0.468638 0.471895 -0.245669
C38   C     C_R   0.451970 0.462484 0.397879 -0.068581
C39   C     C_R   0.535385 0.437528 0.383452 0.039777
C40   C     C_R   0.739997 0.482978 0.038189 -0.121169
C41   C     C_R   0.543784 0.411107 0.439067 0.021731
C42   C     C_R   0.626490 0.383695 0.423911 0.078920
C43   C     C_R   0.631910 0.358090 0.481188 -0.163052
C44   C     C_R   0.558577 0.366359 0.555374 -0.195916
C45   C     C_R   0.250667 0.566947 0.010530 -0.133021
C46   C     C_R   0.611406 0.446253 0.319618 -0.209009
C47   C     C_R   0.693865 0.423388 0.305792 0.063774
C48   C     C_R   0.701986 0.386943 0.354465 0.000999
C49   C     C_R   0.638877 0.589831 0.053705 0.109418
C50   C     C_R   0.327765 0.562853 0.094174 0.131863
C51   C     C_R   0.410828 0.527441 0.150309 -0.222942
C52   C     C_R   0.022518 0.752614 0.171044 -0.115373
C53   C     C_R   0.334598 0.520471 0.138637 -0.161618
C54   C     C_R   0.393564 0.620963 0.070652 -0.257813
C55   C     C_R   0.472136 0.623729 0.077365 0.173962
C56   C     C_R   0.920434 0.262653 0.834540 -0.127060
C57   C     C_R   0.481552 0.574350 0.115269 0.183384
C58   C     C_R   0.564213 0.562662 0.107682 -0.256649
C59   C     C_R   0.628478 0.647093 0.023836 -0.151127
C60   C     C_R   0.544744 0.665704 0.037414 -0.198603
C61   C     C_R   0.895012 0.189650 0.122744 0.092241
C62   C     C_R   0.986436 0.859075 0.971406 0.064665
C63   C     C_R   0.904879 0.953193 0.956764 -0.173188
C64   C     C_R   0.842465 0.488713 0.240045 -0.081878
C65   C     C_R   0.944181 0.868541 0.926704 -0.161716
C66   C     C_R   0.002743 0.937050 0.034236 -0.251211
C67   C     C_R   0.168742 0.456024 0.752137 -0.123986
C68   C     C_R   0.969743 0.021158 0.060104 0.173675
C69   C     C_R   0.915153 0.029242 0.026073 0.086037
C70   C     C_R   0.875532 0.114414 0.060682 -0.229296
C71   C     C_R   0.954330 0.181504 0.150724 -0.120334
C72   C     C_R   0.990092 0.097583 0.121043 -0.180020
C73   C     C_R   0.968090 0.687517 0.928408 -0.113016
C74   C     C_R   0.003597 0.770181 0.963702 0.100891
C75   C     C_2   0.009933 0.100982 0.320351 0.983358
C76   C     C_2   0.761089 0.829689 0.570005 1.025617
C77   C     C_2   0.437018 0.484825 0.339316 0.986424
C78   C     C_R   0.065270 0.308903 0.037614 -0.104308
C79   C     C_1   0.786218 0.356900 0.337109 0.083379
C80   C     C_2   0.857468 0.963176 0.912975 1.043949
C81   C     C_2   0.945353 0.792389 0.846422 1.018016
C82   C     C_2   0.881967 0.511011 0.300203 0.958194
C83   C     C_R   0.987224 0.240137 0.961075 -0.131263
H1    H     H_    0.095448 0.800754 0.024672 0.100509
H2    H     H_    0.963743 0.280013 0.617408 0.120872
H3    H     H_    0.981682 0.226039 0.475102 0.155950
H4    H     H_    0.721183 0.373752 0.136678 0.125923
H5    H     H_    0.976265 0.929265 0.264114 0.148957
H6    H     H_    0.835138 0.777316 0.403670 0.156397
H7    H     H_    0.768240 0.983184 0.695272 0.162601
H8    H     H_    0.411986 0.403149 0.698397 0.132053
H9    H     H_    0.257221 0.491371 0.620301 0.134160
H10   H     H_    0.315782 0.490178 0.485237 0.170746
H11   H     H_    0.607814 0.476375 0.282647 0.159316
H12   H     H_    0.873381 0.220563 0.860823 0.096362
H13   H     H_    0.815976 0.604008 0.931566 0.102475
H14   H     H_    0.693447 0.335238 0.471207 0.149316
H15   H     H_    0.565204 0.349949 0.600147 0.139006
H16   H     H_    0.570014 0.523185 0.135936 0.148103
H17   H     H_    0.684643 0.672715 0.985402 0.139036
H18   H     H_    0.417731 0.488354 0.178497 0.173439
H19   H     H_    0.538107 0.705156 0.009285 0.143506
H20   H     H_    0.284376 0.476617 0.159010 0.126900
H21   H     H_    0.388417 0.657015 0.039133 0.121122
H22   H     H_    0.831590 0.124696 0.038851 0.148891
H23   H     H_    0.147886 0.417538 0.701025 0.104270
H24   H     H_    0.909301 0.657197 0.296683 0.113646
H25   H     H_    0.974238 0.240270 0.194287 0.157757
H26   H     H_    0.034828 0.092569 0.144705 0.148544
H27   H     H_    0.038084 0.932784 0.066886 0.124179
H28   H     H_    0.693596 0.454457 0.079630 0.107970
H29   H     H_    0.047210 0.806147 0.152145 0.108752
H30   H     H_    0.936015 0.669070 0.886742 0.105486
H31   H     H_    0.289565 0.615768 0.988834 0.095350
H32   H     H_    0.113939 0.060792 0.205514 0.313529
H33   H     H_    0.656736 0.774729 0.634516 0.336994
H34   H     H_    0.111768 0.322554 0.065272 0.110272
H35   H     H_    0.372018 0.564327 0.327908 0.322526
H36   H     H_    0.742303 0.989636 0.919842 0.326436
H37   H     H_    0.017243 0.693699 0.732010 0.329215
H38   H     H_    0.992969 0.520320 0.316712 0.333321
H39   H     H_    0.961011 0.189785 0.917465 0.121090
H40   H     H_    0.305550 0.553443 0.844020 0.105416
H41   H     H_    0.162572 0.468950 0.137250 0.122806
H42   H     H_    0.002320 0.372589 0.718381 0.091926
H43   H     H_    0.831139 0.123462 0.758564 0.127813
N1    N     N_R   0.036080 0.671900 0.995420 -0.044797
N2    N     N_R   0.867430 0.509300 0.948100 -0.042922
N3    N     N_R   0.003360 0.617250 0.167070 -0.033433
N4    N     N_R   0.825450 0.461270 0.995400 -0.043493
N5    N     N_R   0.045340 0.665280 0.119770 -0.047466
N6    N     N_R   0.883740 0.497640 0.167070 -0.062041
N7    N     N_R   0.987050 0.628910 0.948110 -0.046099
N8    N     N_R   0.174550 0.538730 0.004600 -0.044897
N9    N     N_1   0.852656 0.334110 0.326424 -0.060952
N10   N     N_R   0.954660 0.334720 0.880230 -0.043421
N11   N     N_R   0.116260 0.502360 0.832930 -0.041008
N12   N     N_R   0.012950 0.371090 0.051890 -0.035404
N13   N     N_R   0.963920 0.328100 0.004580 -0.049018
N14   N     N_R   0.165290 0.545350 0.880240 -0.042187
N15   N     N_R   0.132570 0.490700 0.051900 -0.036632
N16   N     N_R   0.996640 0.382750 0.832930 -0.042181
N17   N     N_R   0.834710 0.454650 0.119760 -0.047724
Ni1   Ni    Ni4+2 0.104370 0.604370 0.000010 0.222557
Ni2   Ni    Ni4+2 0.895630 0.395630 0.999990 0.211629
Ni3   Ni    Ni4+2 0.991920 0.505780 0.891500 0.222952
Ni4   Ni    Ni4+2 0.008080 0.494220 0.108500 0.264246
O1    O     O_2   0.991262 0.164133 0.314900 -0.652907
O2    O     O_R   0.024479 0.744496 0.783651 -0.786040
O3    O     O_2   0.835655 0.541039 0.376764 -0.600905
O4    O     O_R   0.973174 0.501565 0.269486 -0.820256
O5    O     O_R   0.082496 0.043749 0.254595 -0.816368
O6    O     O_2   0.803706 0.758440 0.526159 -0.608967
O7    O     O_R   0.676312 0.834860 0.633017 -0.788320
O8    O     O_2   0.473826 0.440375 0.262122 -0.684146
O9    O     O_R   0.377553 0.555046 0.373290 -0.788792
O10   O     O_2   0.897460 0.952349 0.839124 -0.627446
O11   O     O_R   0.767143 0.984530 0.956279 -0.792826
O12   O     O_2   0.877682 0.771170 0.835220 -0.631986

loop_
_geom_bond_atom_site_label_1
_geom_bond_atom_site_label_2
_ccdc_geom_bond_type
C61   C70   A    
C56   H12   S    
C66   C68   A    
C63   C65   A    
C81   O12   D    
C6    C45   A    
C27   C29   A    
C41   C42   A    
N16   Ni3   S    
C35   C36   A    
C3    N15   A    
C80   O11   S    
C3    C6    A    
C4    N17   A    
C29   H6    S    
C57   C58   A    
C39   C41   A    
C4    H4    S    
C32   H9    S    
C2    H40   S    
C1    H1    S    
C7    C11   S    
C45   N8    A    
C18   H3    S    
C1    C74   A    
C48   C79   S    
C54   H21   S    
C22   C29   A    
C18   C19   A    
C77   O9    S    
C63   C69   A    
C30   C31   A    
C12   C64   A    
C23   C49   S    
C52   H29   S    
C10   C17   A    
C23   C40   A    
C76   O6    D    
C73   H30   S    
N17   Ni2   S    
C28   N3    A    
C73   C74   A    
C14   C18   A    
N10   N16   A    
C21   C22   A    
C72   H26   S    
C44   H15   S    
C45   H31   S    
C64   N6    A    
C68   C69   A    
H32   O5    S    
H35   O9    S    
C51   C57   A    
C4    C12   A    
C75   O5    S    
H33   O7    S    
C82   O4    S    
C5    N16   A    
N1    Ni1   S    
C61   C71   A    
N6    N17   A    
N14   Ni1   S    
C28   C34   A    
C59   C60   A    
C13   C14   A    
N4    Ni2   S    
C59   H17   S    
N6    Ni4   S    
C7    C56   A    
C12   C47   S    
C60   H19   S    
C78   N12   A    
C83   N13   A    
C56   N10   A    
C43   H14   S    
C40   H28   S    
C63   C80   S    
C27   C34   S    
N11   N14   A    
C2    C8    A    
C16   H13   S    
C50   C53   A    
C62   C66   A    
N1    N7    A    
N11   Ni3   S    
C78   H34   S    
C24   C25   A    
N12   N13   A    
C5    C7    A    
C24   C76   S    
C42   C48   A    
C33   C37   A    
C49   C58   A    
H38   O4    S    
C51   C53   A    
C43   C44   A    
C37   C38   A    
C65   C81   S    
C47   C48   A    
C46   H11   S    
N12   Ni4   S    
C68   C72   A    
H37   O2    S    
C37   H10   S    
C50   C54   A    
C66   H27   S    
C16   N2    A    
C64   C82   S    
C82   O3    D    
C9    C83   A    
C39   C46   A    
C73   N7    A    
C16   C23   A    
C55   C57   A    
C26   C27   A    
C22   C24   A    
C36   C44   A    
C42   C43   A    
C5    H42   S    
C3    H41   S    
C15   C17   A    
C40   N4    A    
C54   C55   A    
N13   Ni2   S    
C6    C50   S    
C62   C65   A    
C52   N5    A    
C31   C32   A    
C25   H7    S    
C58   H16   S    
C1    N1    A    
C30   H8    S    
C70   H22   S    
N2    N4    A    
C67   H23   S    
C38   C77   S    
N5    Ni1   S    
C75   O1    D    
C51   H18   S    
C79   N9    T    
N10   Ni2   S    
C34   C52   A    
C49   C59   A    
C30   C36   A    
C17   C25   A    
C32   C33   A    
C19   C20   A    
C19   C75   S    
C2    N14   A    
C71   C72   A    
C10   H43   S    
C77   O8    D    
N8    N15   A    
C11   C13   A    
N2    Ni3   S    
C80   O10   D    
C38   C39   A    
C20   C26   A    
C53   H20   S    
H36   O11   S    
C81   O2    S    
C76   O7    S    
C33   C35   A    
C9    C78   A    
C83   H39   S    
C69   C70   A    
C35   C41   A    
N3    Ni4   S    
C46   C47   A    
C10   C11   A    
N15   Ni4   S    
N8    Ni1   S    
C15   C21   A    
C20   C21   A    
C8    C67   A    
C26   H5    S    
C13   H2    S    
C14   C15   A    
C62   C74   S    
N7    Ni3   S    
C28   H24   S    
C55   C60   A    
C67   N11   A    
C8    C31   S    
C71   H25   S    
N3    N5    A    
