data_mof_unit_36481.cif
_audit_creation_date              2012-12-11T14:14:23-0500
_audit_creation_method            fapswitch 2.2
_symmetry_space_group_name_H-M    P1
_symmetry_Int_Tables_number       1
_space_group_crystal_system       triclinic
_cell_length_a                    16.995027
_cell_length_b                    7.233417
_cell_length_c                    17.061704
_cell_angle_alpha                 90.000129
_cell_angle_beta                  99.644665
_cell_angle_gamma                 89.999891
_cell_volume                      2067.78574004

loop_
_atom_site_label
_atom_site_type_symbol
_atom_type_description
_atom_site_fract_x
_atom_site_fract_y
_atom_site_fract_z
_atom_type_partial_charge
O1    O     O_R   0.414560 0.494370 0.416770 -0.540253
O2    O     O_R   0.585440 0.994370 0.583230 -0.540251
O3    O     O_R   0.578370 0.819590 0.429320 -0.542979
O4    O     O_R   0.421630 0.319590 0.570680 -0.542980
C1    C     C_R   0.604318 0.656565 0.412961 0.706692
C2    C     C_R   0.395681 0.156565 0.587038 0.706692
O5    O     O_R   0.414740 0.823790 0.407360 -0.536146
O6    O     O_R   0.585260 0.323790 0.592640 -0.536147
O7    O     O_R   0.420650 0.998510 0.561120 -0.537047
O8    O     O_R   0.579350 0.498510 0.438880 -0.537049
C3    C     C_R   0.388532 0.655420 0.384587 0.761049
C4    C     C_R   0.611468 0.155420 0.615413 0.761049
O9    O     O_3   0.502130 0.662240 0.550470 -0.379206
O10   O     O_3   0.497870 0.162240 0.449530 -0.379205
V1    V     V_3+5 0.499600 0.935390 0.490640 1.374173
V2    V     V_3+5 0.500400 0.435390 0.509360 1.374169
C5    C     C_2   0.766838 0.267243 0.804703 0.278397
C6    C     C_2   0.233163 0.767241 0.195295 0.278397
C7    C     C_2   0.812561 0.113936 0.824683 -0.387700
C8    C     C_2   0.187439 0.613936 0.175317 -0.387699
H1    H     H_    0.793091 0.982377 0.797611 0.101423
H2    H     H_    0.206907 0.482378 0.202391 0.101422
C9    C     C_2   0.691419 0.263597 0.744444 0.249404
C10   C     C_2   0.308582 0.763595 0.255555 0.249403
C11   C     C_2   0.680368 0.145842 0.681465 -0.387022
C12   C     C_2   0.319632 0.645841 0.318535 -0.387022
H3    H     H_    0.724616 0.040526 0.676286 0.098224
H4    H     H_    0.275384 0.540526 0.323713 0.098224
C13   C     C_R   0.334706 0.160914 0.641052 -0.133103
C14   C     C_R   0.665294 0.660912 0.358948 -0.133095
C15   C     C_R   0.167516 0.103309 0.862969 -0.058779
C16   C     C_R   0.832484 0.603312 0.137030 -0.058777
C17   C     C_R   0.264844 0.912363 0.809309 -0.179595
C18   C     C_R   0.735149 0.412374 0.190683 -0.179587
C19   C     C_R   0.212491 0.939312 0.862836 -0.186659
C20   C     C_R   0.787504 0.439321 0.137158 -0.186660
C21   C     C_R   0.178400 0.243485 0.808912 -0.222429
C22   C     C_R   0.821603 0.743483 0.191091 -0.222428
C23   C     C_R   0.230893 0.216138 0.753695 0.105164
C24   C     C_R   0.769109 0.716136 0.246308 0.105166
C25   C     C_R   0.274402 0.048613 0.753249 0.126847
C26   C     C_R   0.725595 0.548618 0.246748 0.126841
C27   C     C_R   0.325940 0.019589 0.696705 0.205971
C28   C     C_R   0.674055 0.519594 0.303290 0.205970
C29   C     C_R   0.289633 0.324768 0.642358 -0.198174
C30   C     C_R   0.710372 0.824759 0.357647 -0.198180
C31   C     C_R   0.238909 0.352083 0.697588 -0.192687
C32   C     C_R   0.761097 0.852075 0.302419 -0.192686
H5    H     H_    0.294287 0.435412 0.600585 0.140923
H6    H     H_    0.705721 0.935399 0.399424 0.140919
H7    H     H_    0.296577 0.782163 0.811371 0.159202
H8    H     H_    0.703412 0.282178 0.188618 0.159206
H9    H     H_    0.143730 0.369618 0.807426 0.123078
H10   H     H_    0.856277 0.869611 0.192581 0.123078
O11   O     O_R   0.920750 0.773600 0.061260 -0.539282
O12   O     O_R   0.079250 0.273600 0.938740 -0.539282
O13   O     O_R   0.085340 0.439850 0.092570 -0.545500
O14   O     O_R   0.914660 0.939850 0.907430 -0.545500
C33   C     C_R   0.114301 0.608367 0.112940 0.766154
C34   C     C_R   0.885699 0.108367 0.887060 0.766154
O15   O     O_R   0.921720 0.444130 0.070790 -0.542310
O16   O     O_R   0.078280 0.944130 0.929210 -0.542310
O17   O     O_R   0.914480 0.269530 0.916840 -0.506621
O18   O     O_R   0.085520 0.769530 0.083160 -0.506621
C35   C     C_R   0.895837 0.610747 0.086198 0.678044
C36   C     C_R   0.104163 0.110747 0.913802 0.678048
O19   O     O_3   0.997840 0.601520 0.949550 -0.373809
O20   O     O_3   0.002160 0.101520 0.050450 -0.373809
V3    V     V_3+5 0.000400 0.328340 0.009360 1.425305
V4    V     V_3+5 0.999600 0.828340 0.990640 1.425303
N1    N     N_2   0.788227 0.439586 0.843215 -0.473336
H11   H     H_    0.777972 0.551726 0.805523 0.246363
C37   C     C_3   0.756450 0.468146 0.915848 -0.455798
H12   H     H_    0.781731 0.597189 0.944916 0.169439
H13   H     H_    0.772470 0.350768 0.957261 0.175604
H14   H     H_    0.690533 0.482195 0.903158 0.196640
N2    N     N_2   0.211777 0.939581 0.156779 -0.473335
H15   H     H_    0.222033 0.051725 0.194469 0.246364
C38   C     C_3   0.243555 0.968127 0.084146 -0.455798
H16   H     H_    0.218277 0.097172 0.055076 0.169435
H17   H     H_    0.227532 0.850748 0.042734 0.175604
H18   H     H_    0.309472 0.982166 0.096836 0.196640
N3    N     N_2   0.631763 0.395772 0.755184 -0.515231
H19   H     H_    0.621015 0.499211 0.713260 0.272680
C39   C     C_3   0.561732 0.322573 0.782216 -0.546323
H20   H     H_    0.532189 0.434497 0.810902 0.188223
H21   H     H_    0.578318 0.211142 0.826819 0.193790
H22   H     H_    0.518895 0.268126 0.731234 0.188560
N4    N     N_2   0.368238 0.895769 0.244816 -0.515229
H23   H     H_    0.378984 0.999212 0.286739 0.272680
C40   C     C_3   0.438271 0.822570 0.217786 -0.546332
H24   H     H_    0.467806 0.934486 0.189088 0.188225
H25   H     H_    0.421689 0.711115 0.173194 0.193786
H26   H     H_    0.481113 0.768157 0.268772 0.188571
N5    N     N_2   0.367653 0.848700 0.696855 -0.535040
H27   H     H_    0.362649 0.784158 0.642440 0.273897
C41   C     C_3   0.447557 0.848469 0.742193 -0.525284
H28   H     H_    0.487117 0.940455 0.714206 0.191126
H29   H     H_    0.472101 0.706251 0.743866 0.199112
H30   H     H_    0.446786 0.894562 0.804181 0.188550
N6    N     N_2   0.632333 0.348714 0.303132 -0.535036
H31   H     H_    0.637335 0.284158 0.357542 0.273902
C42   C     C_3   0.552428 0.348514 0.257794 -0.525311
H32   H     H_    0.512869 0.440465 0.285801 0.191138
H33   H     H_    0.527885 0.206293 0.256096 0.199113
H34   H     H_    0.553197 0.394671 0.195814 0.188552
H35   H     H_    0.206059 0.480770 0.696484 0.131433
H36   H     H_    0.793951 0.980757 0.303527 0.131431
H37   H     H_    0.205791 0.827180 0.903165 0.124847
H38   H     H_    0.794201 0.327193 0.096827 0.124844

loop_
_geom_bond_atom_site_label_1
_geom_bond_atom_site_label_2
_ccdc_geom_bond_type
C15   C36   S    
N6    H31   S    
C37   H13   S    
C37   H12   S    
N5    H27   S    
O1    C3    A    
O2    C4    A    
C10   N4    S    
C2    O7    A    
C41   H28   S    
C23   C25   A    
N2    H15   S    
O5    C3    A    
C33   O18   A    
C5    C9    S    
C9    N3    S    
C34   O17   A    
C6    C10   S    
C16   C20   A    
C7    H1    S    
C10   C12   D    
C17   C19   A    
O13   C33   A    
O14   C34   A    
O16   V4    S    
C41   H29   S    
O17   V3    S    
O20   V3    S    
C18   C26   A    
C27   N5    S    
O18   V4    S    
N4    C40   S    
C6    C8    D    
C19   H37   S    
C21   H9    S    
C29   C31   A    
O6    V2    S    
C13   C27   A    
C25   C27   A    
C14   C28   A    
C26   C28   A    
O11   C35   A    
N2    C38   S    
C30   C32   A    
O16   C36   A    
C39   H21   S    
C31   H35   S    
O4    C2    A    
C40   H24   S    
N1    C37   S    
O14   V4    S    
C3    C12   S    
C39   H20   S    
C15   C21   A    
C13   C29   A    
O4    V2    S    
C40   H25   S    
N3    H19   S    
C22   H10   S    
C29   H5    S    
O6    C4    A    
C42   H33   S    
O1    V2    S    
C8    C33   S    
O2    V1    S    
N3    C39   S    
C8    H2    S    
C5    N1    S    
C16   C22   A    
C20   H38   S    
C37   H14   S    
C15   C19   A    
C17   H7    S    
C41   H30   S    
O3    V1    S    
C23   C31   A    
C1    C14   S    
C39   H22   S    
O15   V3    S    
C24   C32   A    
C18   H8    S    
C14   C30   A    
C24   C26   A    
O3    C1    A    
C38   H18   S    
C28   N6    S    
N5    C41   S    
C7    C34   S    
C11   H3    S    
C30   H6    S    
C12   H4    S    
C4    C11   S    
O19   V4    S    
C17   C25   A    
O7    V1    S    
N1    H11   S    
C21   C23   A    
O8    V2    S    
C40   H26   S    
C22   C24   A    
C32   H36   S    
C6    N2    S    
O12   C36   A    
O5    V1    S    
C5    C7    D    
C42   H34   S    
C18   C20   A    
C9    C11   D    
C38   H17   S    
O11   V4    S    
C38   H16   S    
O15   C35   A    
C1    O8    A    
C2    C13   S    
N6    C42   S    
O12   V3    S    
O9    V2    S    
C42   H32   S    
O10   V1    S    
O13   V3    S    
N4    H23   S    
C16   C35   S    
