data_mof_unit_9531.cif
_audit_creation_date              2013-03-05T15:40:08-0500
_audit_creation_method            fapswitch 2.2
_symmetry_space_group_name_H-M    P1
_symmetry_Int_Tables_number       1
_space_group_crystal_system       monoclinic
_cell_length_a                    28.048298
_cell_length_b                    18.71724
_cell_length_c                    16.859683
_cell_angle_alpha                 90.0
_cell_angle_beta                  63.032207
_cell_angle_gamma                 90.0
_cell_volume                      7888.6540733

loop_
_atom_site_label
_atom_site_type_symbol
_atom_site_description
_atom_site_fract_x
_atom_site_fract_y
_atom_site_fract_z
_atom_type_partial_charge
O1    O     O_R   0.255040 0.869590 0.478480 -0.572843
O2    O     O_R   0.744960 0.130410 0.521520 -0.572843
O3    O     O_R   0.744960 0.869590 0.521520 -0.572842
O4    O     O_R   0.255040 0.130410 0.478480 -0.572843
O5    O     O_R   0.755040 0.369590 0.478480 -0.572843
O6    O     O_R   0.244960 0.630410 0.521520 -0.572842
O7    O     O_R   0.244960 0.369590 0.521520 -0.572842
O8    O     O_R   0.755040 0.630410 0.478480 -0.572843
O9    O     O_R   0.182050 0.796550 0.624440 -0.512392
O10   O     O_R   0.817950 0.203450 0.375560 -0.512392
O11   O     O_R   0.817950 0.796550 0.375560 -0.512393
O12   O     O_R   0.182050 0.203450 0.624440 -0.512393
O13   O     O_R   0.682050 0.296550 0.624440 -0.512393
O14   O     O_R   0.317950 0.703450 0.375560 -0.512393
O15   O     O_R   0.317950 0.296550 0.375560 -0.512393
O16   O     O_R   0.682050 0.703450 0.624440 -0.512392
Cu1   Cu    Cu3+1 0.209920 0.785290 0.495070 1.130861
Cu2   Cu    Cu3+1 0.790080 0.214710 0.504930 1.130861
Cu3   Cu    Cu3+1 0.790080 0.785290 0.504930 1.130861
Cu4   Cu    Cu3+1 0.209920 0.214710 0.495070 1.130861
Cu5   Cu    Cu3+1 0.709920 0.285290 0.495070 1.130861
Cu6   Cu    Cu3+1 0.290080 0.714710 0.504930 1.130861
Cu7   Cu    Cu3+1 0.290080 0.285290 0.504930 1.130861
Cu8   Cu    Cu3+1 0.709920 0.714710 0.495070 1.130861
C1    C     C_R   0.295519 0.729477 0.329455 0.798957
C2    C     C_R   0.704481 0.270523 0.670545 0.798957
C3    C     C_R   0.704481 0.729477 0.670545 0.798959
C4    C     C_R   0.295519 0.270523 0.329455 0.798957
C5    C     C_R   0.795519 0.229477 0.329455 0.798959
C6    C     C_R   0.204481 0.770523 0.670545 0.798959
C7    C     C_R   0.204481 0.229477 0.670545 0.798957
C8    C     C_R   0.795519 0.770523 0.329455 0.798957
O17   O     O_R   0.250530 0.763330 0.367210 -0.585546
O18   O     O_R   0.749470 0.236670 0.632790 -0.585545
O19   O     O_R   0.749470 0.763330 0.632790 -0.585546
O20   O     O_R   0.250530 0.236670 0.367210 -0.585546
O21   O     O_R   0.750530 0.263330 0.367210 -0.585546
O22   O     O_R   0.249470 0.736670 0.632790 -0.585546
O23   O     O_R   0.249470 0.263330 0.632790 -0.585546
O24   O     O_R   0.750530 0.736670 0.367210 -0.585546
O25   O     O_R   0.177260 0.690030 0.513710 -0.573565
O26   O     O_R   0.822740 0.309970 0.486290 -0.573565
O27   O     O_R   0.822740 0.690030 0.486290 -0.573565
O28   O     O_R   0.177260 0.309970 0.513710 -0.573565
O29   O     O_R   0.677260 0.190030 0.513710 -0.573565
O30   O     O_R   0.322740 0.809970 0.486290 -0.573565
O31   O     O_R   0.322740 0.190030 0.486290 -0.573565
O32   O     O_R   0.677260 0.809970 0.513710 -0.573565
C9    C     C_R   0.196716 0.631657 0.527017 0.769939
C10   C     C_R   0.803284 0.368343 0.472983 0.769940
C11   C     C_R   0.803284 0.631657 0.472983 0.769939
C12   C     C_R   0.196716 0.368343 0.527017 0.769939
C13   C     C_R   0.696716 0.131657 0.527017 0.769938
C14   C     C_R   0.303284 0.868343 0.472983 0.769939
C15   C     C_R   0.303284 0.131657 0.472983 0.769939
C16   C     C_R   0.696716 0.868343 0.527017 0.769939
C17   C     C_R   0.042049 0.630005 0.524026 -0.082470
C18   C     C_R   0.957951 0.369994 0.475973 -0.082470
C19   C     C_R   0.957951 0.630005 0.475974 -0.082470
C20   C     C_R   0.042049 0.369994 0.524026 -0.082470
C21   C     C_R   0.542049 0.130005 0.524026 -0.082470
C22   C     C_R   0.457951 0.869994 0.475974 -0.082470
C23   C     C_R   0.457951 0.130005 0.475973 -0.082470
C24   C     C_R   0.542049 0.869994 0.524026 -0.082471
C25   C     C_R   0.020610 0.695526 0.512979 0.239143
C26   C     C_R   0.979390 0.304474 0.487021 0.239143
C27   C     C_R   0.979390 0.695526 0.487021 0.239143
C28   C     C_R   0.020610 0.304474 0.512978 0.239142
C29   C     C_R   0.520610 0.195526 0.512978 0.239142
C30   C     C_R   0.479390 0.804474 0.487022 0.239142
C31   C     C_R   0.479390 0.195526 0.487021 0.239143
C32   C     C_R   0.520610 0.804474 0.512979 0.239143
C33   C     C_R   0.978252 0.565055 0.489724 -0.010892
C34   C     C_R   0.021748 0.434945 0.510275 -0.010892
C35   C     C_R   0.021747 0.565055 0.510275 -0.010892
C36   C     C_R   0.978252 0.434945 0.489724 -0.010892
C37   C     C_R   0.478252 0.065055 0.489724 -0.010892
C38   C     C_R   0.521748 0.934944 0.510275 -0.010892
C39   C     C_R   0.521748 0.065055 0.510275 -0.010892
C40   C     C_R   0.478252 0.934944 0.489725 -0.010892
C41   C     C_R   0.455968 0.000000 0.480370 0.036811
C42   C     C_R   0.544032 1.000000 0.519630 0.036811
C43   C     C_R   0.955968 0.500000 0.480370 0.036811
C44   C     C_R   0.044032 0.500000 0.519630 0.036811
C45   C     C_R   0.387149 0.934663 0.457991 0.024900
C46   C     C_R   0.612851 0.065337 0.542009 0.024901
C47   C     C_R   0.612851 0.934663 0.542009 0.024901
C48   C     C_R   0.387149 0.065337 0.457990 0.024900
C49   C     C_R   0.887149 0.434663 0.457991 0.024901
C50   C     C_R   0.112851 0.565337 0.542009 0.024901
C51   C     C_R   0.112851 0.434663 0.542009 0.024901
C52   C     C_R   0.887149 0.565337 0.457991 0.024901
C53   C     C_R   0.335772 0.934635 0.458842 -0.107796
C54   C     C_R   0.664228 0.065365 0.541158 -0.107796
C55   C     C_R   0.664228 0.934635 0.541158 -0.107796
C56   C     C_R   0.335772 0.065365 0.458842 -0.107796
C57   C     C_R   0.835772 0.434635 0.458842 -0.107796
C58   C     C_R   0.164228 0.565365 0.541158 -0.107796
C59   C     C_R   0.164228 0.434635 0.541158 -0.107796
C60   C     C_R   0.835772 0.565365 0.458842 -0.107796
C61   C     C_R   0.311583 0.000000 0.458569 -0.246918
C62   C     C_R   0.688416 1.000000 0.541431 -0.246918
C63   C     C_R   0.811583 0.500000 0.458569 -0.246918
C64   C     C_R   0.188416 0.500000 0.541431 -0.246918
C65   C     C_R   0.409857 0.000000 0.465754 0.070911
C66   C     C_R   0.590143 0.000000 0.534246 0.070911
C67   C     C_R   0.909857 0.500000 0.465754 0.070911
C68   C     C_R   0.090143 0.500000 0.534246 0.070911
C69   C     C_R   0.583197 0.871760 0.549378 -0.128398
C70   C     C_R   0.416803 0.128240 0.450622 -0.128399
C71   C     C_R   0.416803 0.871760 0.450622 -0.128398
C72   C     C_R   0.583197 0.128240 0.549378 -0.128398
C73   C     C_R   0.083197 0.371760 0.549378 -0.128398
C74   C     C_R   0.916803 0.628240 0.450622 -0.128398
C75   C     C_R   0.916803 0.371760 0.450622 -0.128398
C76   C     C_R   0.083197 0.628240 0.549378 -0.128398
C77   C     C_R   0.221592 0.769234 0.952311 0.117776
C78   C     C_R   0.778407 0.230766 0.047688 0.117776
C79   C     C_R   0.778407 0.769234 0.047688 0.117777
C80   C     C_R   0.221592 0.230766 0.952312 0.117776
C81   C     C_R   0.721592 0.269234 0.952312 0.117777
C82   C     C_R   0.278407 0.730766 0.047688 0.117776
C83   C     C_R   0.278407 0.269234 0.047688 0.117776
C84   C     C_R   0.721592 0.730766 0.952312 0.117776
C85   C     C_R   0.241663 0.699613 0.946375 -0.150802
C86   C     C_R   0.758337 0.300387 0.053625 -0.150802
C87   C     C_R   0.758337 0.699613 0.053625 -0.150803
C88   C     C_R   0.241663 0.300387 0.946375 -0.150803
C89   C     C_R   0.741663 0.199613 0.946375 -0.150803
C90   C     C_R   0.258337 0.800387 0.053625 -0.150803
C91   C     C_R   0.258337 0.199613 0.053625 -0.150803
C92   C     C_R   0.741663 0.800387 0.946375 -0.150803
C93   C     C_R   0.269736 0.680547 0.993614 -0.158952
C94   C     C_R   0.730264 0.319453 0.006386 -0.158952
C95   C     C_R   0.730264 0.680547 0.006386 -0.158952
C96   C     C_R   0.269736 0.319453 0.993614 -0.158952
C97   C     C_R   0.769736 0.180547 0.993614 -0.158951
C98   C     C_R   0.230264 0.819453 0.006386 -0.158952
C99   C     C_R   0.230264 0.180547 0.006386 -0.158952
C100  C     C_R   0.769736 0.819453 0.993614 -0.158952
C101  C     C_R   0.145627 0.831744 0.942011 -0.227860
C102  C     C_R   0.854373 0.168256 0.057989 -0.227861
C103  C     C_R   0.854373 0.831744 0.057989 -0.227862
C104  C     C_R   0.145627 0.168256 0.942011 -0.227861
C105  C     C_R   0.645627 0.331744 0.942011 -0.227861
C106  C     C_R   0.354373 0.668256 0.057989 -0.227861
C107  C     C_R   0.354373 0.331744 0.057989 -0.227861
C108  C     C_R   0.645627 0.668256 0.942011 -0.227861
C109  C     C_R   0.116589 0.849928 0.895449 -0.157771
C110  C     C_R   0.883411 0.150072 0.104551 -0.157771
C111  C     C_R   0.883411 0.849928 0.104551 -0.157770
C112  C     C_R   0.116589 0.150072 0.895449 -0.157769
C113  C     C_R   0.616589 0.349928 0.895449 -0.157769
C114  C     C_R   0.383411 0.650072 0.104551 -0.157769
C115  C     C_R   0.383411 0.349928 0.104551 -0.157769
C116  C     C_R   0.616589 0.650072 0.895449 -0.157770
C117  C     C_R   0.132215 0.822108 0.809709 0.290842
C118  C     C_R   0.867785 0.177892 0.190291 0.290842
C119  C     C_R   0.867785 0.822108 0.190291 0.290842
C120  C     C_R   0.132215 0.177892 0.809709 0.290842
C121  C     C_R   0.632215 0.322108 0.809709 0.290841
C122  C     C_R   0.367785 0.677892 0.190291 0.290842
C123  C     C_R   0.367785 0.322108 0.190291 0.290841
C124  C     C_R   0.632215 0.677892 0.809709 0.290842
C125  C     C_R   0.181009 0.785223 0.766563 -0.162217
C126  C     C_R   0.818991 0.214777 0.233437 -0.162217
C127  C     C_R   0.818991 0.785223 0.233437 -0.162217
C128  C     C_R   0.181009 0.214777 0.766563 -0.162218
C129  C     C_R   0.681009 0.285223 0.766563 -0.162218
C130  C     C_R   0.318991 0.714777 0.233437 -0.162218
C131  C     C_R   0.318991 0.285223 0.233437 -0.162218
C132  C     C_R   0.681009 0.714777 0.766563 -0.162217
C133  C     C_R   0.209652 0.767503 0.813968 -0.238293
C134  C     C_R   0.790347 0.232497 0.186031 -0.238293
C135  C     C_R   0.790347 0.767503 0.186031 -0.238293
C136  C     C_R   0.209652 0.232497 0.813968 -0.238293
C137  C     C_R   0.709652 0.267503 0.813968 -0.238293
C138  C     C_R   0.290347 0.732496 0.186031 -0.238293
C139  C     C_R   0.290347 0.267503 0.186031 -0.238293
C140  C     C_R   0.709652 0.732496 0.813968 -0.238293
C141  C     C_R   0.191514 0.789108 0.902459 0.072017
C142  C     C_R   0.808486 0.210892 0.097541 0.072017
C143  C     C_R   0.808486 0.789108 0.097541 0.072017
C144  C     C_R   0.191514 0.210892 0.902459 0.072017
C145  C     C_R   0.691514 0.289108 0.902459 0.072017
C146  C     C_R   0.308486 0.710892 0.097541 0.072017
C147  C     C_R   0.308486 0.289108 0.097541 0.072017
C148  C     C_R   0.691514 0.710892 0.902459 0.072017
O33   O     O_R   0.051640 0.926880 0.885090 -0.518186
O34   O     O_R   0.948360 0.073120 0.114910 -0.518185
O35   O     O_R   0.948360 0.926880 0.114910 -0.518184
O36   O     O_R   0.051640 0.073120 0.885090 -0.518185
O37   O     O_R   0.551640 0.426880 0.885090 -0.518185
O38   O     O_R   0.448360 0.573120 0.114910 -0.518185
O39   O     O_R   0.448360 0.426880 0.114910 -0.518185
O40   O     O_R   0.551640 0.573120 0.885090 -0.518185
Cu9   Cu    Cu3+1 0.495240 0.500000 0.924150 1.130122
Cu10  Cu    Cu3+1 0.504760 0.500000 0.075850 1.130123
Cu11  Cu    Cu3+1 0.995240 1.000000 0.924150 1.130122
Cu12  Cu    Cu3+1 0.004760 1.000000 0.075850 1.130122
C149  C     C_R   0.927196 0.902146 0.066080 0.796567
C150  C     C_R   0.072804 0.097853 0.933920 0.796569
C151  C     C_R   0.072804 0.902146 0.933920 0.796568
C152  C     C_R   0.927196 0.097853 0.066080 0.796567
C153  C     C_R   0.427196 0.402146 0.066080 0.796568
C154  C     C_R   0.572804 0.597853 0.933920 0.796568
C155  C     C_R   0.572804 0.402146 0.933920 0.796569
C156  C     C_R   0.427196 0.597853 0.066080 0.796567
O41   O     O_R   0.940620 0.926560 0.986760 -0.594077
O42   O     O_R   0.059380 0.073440 0.013240 -0.594078
O43   O     O_R   0.059380 0.926560 0.013240 -0.594077
O44   O     O_R   0.940620 0.073440 0.986760 -0.594077
O45   O     O_R   0.440620 0.426560 0.986760 -0.594077
O46   O     O_R   0.559380 0.573440 0.013240 -0.594077
O47   O     O_R   0.559380 0.426560 0.013240 -0.594077
O48   O     O_R   0.440620 0.573440 0.986760 -0.594077
N1    N     N_R   0.541283 0.737628 0.525925 0.148127
O49   O     O_R   0.509242 0.690605 0.581289 -0.253020
O50   O     O_R   0.591428 0.721527 0.477635 -0.327666
N2    N     N_R   0.458717 0.262372 0.474074 0.148127
O51   O     O_R   0.490758 0.309395 0.418709 -0.253021
O52   O     O_R   0.408573 0.278473 0.522365 -0.327665
N3    N     N_R   0.458716 0.737628 0.474075 0.148127
O53   O     O_R   0.490757 0.690605 0.418712 -0.253020
O54   O     O_R   0.408572 0.721527 0.522366 -0.327666
N4    N     N_R   0.541284 0.262372 0.525924 0.148127
O55   O     O_R   0.509243 0.309395 0.581287 -0.253020
O56   O     O_R   0.591428 0.278473 0.477633 -0.327666
N5    N     N_R   0.041284 0.237628 0.525925 0.148127
O57   O     O_R   0.009243 0.190605 0.581288 -0.253020
O58   O     O_R   0.091428 0.221527 0.477634 -0.327666
N6    N     N_R   0.958716 0.762372 0.474075 0.148127
O59   O     O_R   0.990757 0.809395 0.418711 -0.253020
O60   O     O_R   0.908572 0.778473 0.522366 -0.327666
N7    N     N_R   0.958716 0.237628 0.474075 0.148127
O61   O     O_R   0.990758 0.190605 0.418711 -0.253020
O62   O     O_R   0.908572 0.221527 0.522365 -0.327666
N8    N     N_R   0.041283 0.762372 0.525925 0.148127
O63   O     O_R   0.009242 0.809395 0.581289 -0.253020
O64   O     O_R   0.091428 0.778473 0.477634 -0.327666
H1    H     H_    0.272058 0.000000 0.462050 0.200032
H2    H     H_    0.727941 0.000000 0.537950 0.200033
H3    H     H_    0.772058 0.500000 0.462050 0.200033
H4    H     H_    0.227941 0.500000 0.537950 0.200033
H5    H     H_    0.590009 0.823906 0.577973 0.222042
H6    H     H_    0.409991 0.176094 0.422027 0.222041
H7    H     H_    0.409990 0.823906 0.422027 0.222041
H8    H     H_    0.590009 0.176094 0.577972 0.222041
H9    H     H_    0.090009 0.323906 0.577973 0.222041
H10   H     H_    0.909990 0.676094 0.422027 0.222041
H11   H     H_    0.909990 0.323906 0.422027 0.222042
H12   H     H_    0.090009 0.676094 0.577973 0.222042
H13   H     H_    0.216037 0.873829 0.011125 0.136063
H14   H     H_    0.783963 0.126171 0.988874 0.136063
H15   H     H_    0.783963 0.873829 0.988874 0.136063
H16   H     H_    0.216037 0.126171 0.011126 0.136063
H17   H     H_    0.716037 0.373829 0.011125 0.136063
H18   H     H_    0.283963 0.626171 0.988874 0.136063
H19   H     H_    0.283963 0.373829 0.988874 0.136063
H20   H     H_    0.716037 0.626171 0.011126 0.136063
H21   H     H_    0.234918 0.659562 0.906192 0.141968
H22   H     H_    0.765081 0.340438 0.093808 0.141968
H23   H     H_    0.765081 0.659562 0.093808 0.141968
H24   H     H_    0.234919 0.340438 0.906192 0.141969
H25   H     H_    0.734919 0.159562 0.906192 0.141969
H26   H     H_    0.265081 0.840438 0.093808 0.141969
H27   H     H_    0.265081 0.159562 0.093808 0.141969
H28   H     H_    0.734919 0.840438 0.906192 0.141969
H29   H     H_    0.132536 0.850779 0.009362 0.178060
H30   H     H_    0.867464 0.149221 0.990638 0.178060
H31   H     H_    0.867464 0.850778 0.990638 0.178060
H32   H     H_    0.132535 0.149221 0.009362 0.178060
H33   H     H_    0.632535 0.350778 0.009362 0.178061
H34   H     H_    0.367464 0.649222 0.990638 0.178060
H35   H     H_    0.367464 0.350778 0.990638 0.178060
H36   H     H_    0.632536 0.649221 0.009362 0.178060
N9    N     N_R   0.097837 0.829139 0.767813 0.142680
O65   O     O_R   0.101835 0.884397 0.718206 -0.278164
O66   O     O_R   0.065508 0.777344 0.773589 -0.344649
N10   N     N_R   0.902163 0.170860 0.232187 0.142679
O67   O     O_R   0.898164 0.115603 0.281794 -0.278164
O68   O     O_R   0.934492 0.222655 0.226410 -0.344648
N11   N     N_R   0.902163 0.829140 0.232187 0.142680
O69   O     O_R   0.898164 0.884397 0.281795 -0.278164
O70   O     O_R   0.934494 0.777346 0.226408 -0.344647
N12   N     N_R   0.097837 0.170860 0.767813 0.142680
O71   O     O_R   0.101836 0.115603 0.718205 -0.278164
O72   O     O_R   0.065506 0.222653 0.773593 -0.344647
N13   N     N_R   0.597837 0.329140 0.767813 0.142679
O73   O     O_R   0.601836 0.384397 0.718205 -0.278164
O74   O     O_R   0.565506 0.277346 0.773592 -0.344647
N14   N     N_R   0.402163 0.670860 0.232187 0.142680
O75   O     O_R   0.398164 0.615603 0.281795 -0.278164
O76   O     O_R   0.434494 0.722653 0.226407 -0.344647
N15   N     N_R   0.402163 0.329140 0.232187 0.142680
O77   O     O_R   0.398164 0.384397 0.281795 -0.278164
O78   O     O_R   0.434494 0.277347 0.226407 -0.344647
N16   N     N_R   0.597837 0.670860 0.767813 0.142679
O79   O     O_R   0.601835 0.615603 0.718206 -0.278164
O80   O     O_R   0.565507 0.722655 0.773590 -0.344648
H37   H     H_    0.247020 0.738449 0.781395 0.180135
H38   H     H_    0.752980 0.261551 0.218605 0.180135
H39   H     H_    0.752980 0.738449 0.218605 0.180135
H40   H     H_    0.247020 0.261551 0.781395 0.180135
H41   H     H_    0.747020 0.238449 0.781395 0.180135
H42   H     H_    0.252980 0.761551 0.218605 0.180135
H43   H     H_    0.252980 0.238449 0.218605 0.180135
H44   H     H_    0.747020 0.761551 0.781395 0.180135

loop_
_geom_bond_atom_site_label_1
_geom_bond_atom_site_label_2
_geom_bond_distance
_ccdc_geom_bond_type
C104  C144  1.399857 A    
C19   C74   1.401160 A    
Cu2   Cu5   2.677111 S    
N3    O53   1.301059 A    
C151  O43   1.297025 A    
C48   C56   1.434577 A    
Cu9   O45   1.970801 S    
O33   C151  1.299112 A    
C95   H20   1.082838 S    
C130  C138  1.405922 A    
C82   C90   1.404971 A    
C91   H27   1.083022 S    
Cu6   O22   1.971374 S    
C6    O22   1.292465 A    
C129  C137  1.405922 A    
C134  H38   1.083409 S    
O3    Cu3   1.961741 S    
C50   C76   1.414112 A    
C116  C154  1.470279 S    
C19   C33   1.405560 A    
C55   C62   1.399991 A    
O39   Cu10  1.965803 S    
C154  O46   1.297025 A    
C103  C111  1.405483 A    
Cu11  Cu12  2.689257 S    
C33   C35   1.411291 A    
C111  C149  1.470279 S    
C36   C43   1.409846 A    
O25   C9    1.285655 A    
C17   C76   1.401160 A    
C37   C39   1.411293 A    
N8    O64   1.301248 A    
C126  C134  1.405921 A    
C53   C61   1.399991 A    
C106  H34   1.083048 S    
C31   N2    1.436698 S    
C113  C121  1.406489 A    
Cu11  O41   1.970801 S    
C5    C126  1.470755 S    
C102  H30   1.083047 S    
N5    O57   1.301059 A    
C38   C42   1.409846 A    
C106  C114  1.405481 A    
C152  O44   1.297026 A    
N6    O60   1.301247 A    
C30   N3    1.436700 S    
O13   Cu5   1.966325 S    
O35   Cu12  1.965803 S    
C57   C63   1.399991 A    
C93   H18   1.082837 S    
C102  C142  1.399856 A    
C23   C31   1.414862 A    
N16   O79   1.302579 A    
Cu10  O46   1.970801 S    
C8    O24   1.292463 A    
C135  C143  1.399912 A    
C136  C144  1.399912 A    
C84   C95   1.405328 A    
O40   Cu9   1.965804 S    
C115  C153  1.470279 S    
O2    C13   1.313939 A    
C108  C148  1.399856 A    
N14   O76   1.300573 A    
C99   H16   1.082836 S    
Cu3   O19   1.971374 S    
N12   O72   1.300574 A    
O34   C152  1.299113 A    
O10   Cu2   1.966325 S    
C119  C127  1.405666 A    
C101  C141  1.399856 A    
C120  C128  1.405666 A    
O40   C154  1.299112 A    
C117  N9    1.436575 S    
C138  C146  1.399912 A    
O5    Cu5   1.961743 S    
C86   C94   1.396587 A    
O35   C149  1.299113 A    
C33   C43   1.409845 A    
C107  H35   1.083048 S    
C111  C119  1.406489 A    
C16   C55   1.493237 S    
C49   C75   1.414112 A    
C46   C72   1.414112 A    
C29   N4    1.436700 S    
C134  C142  1.399912 A    
C18   C36   1.405561 A    
N15   O78   1.300576 A    
C22   C30   1.414862 A    
C34   C36   1.411293 A    
C103  H31   1.083047 S    
C79   C100  1.405328 A    
C22   C40   1.405559 A    
C104  H32   1.083049 S    
O7    C12   1.313939 A    
Cu2   O26   1.963648 S    
C38   C40   1.411293 A    
C35   C44   1.409845 A    
C82   C146  1.483136 S    
C75   H11   1.074592 S    
C73   H9    1.074592 S    
C84   C92   1.404971 A    
C4    C131  1.470754 S    
C19   C27   1.414861 A    
C45   C53   1.434575 A    
C69   H5    1.074590 S    
C22   C71   1.401160 A    
C47   C55   1.434575 A    
C108  H36   1.083047 S    
C62   H2    1.083257 S    
C98   H13   1.082835 S    
C121  C129  1.405666 A    
O33   Cu11  1.965805 S    
O16   C3    1.296513 A    
O29   C13   1.285655 A    
N9    O65   1.302580 A    
C131  C139  1.405922 A    
C46   C66   1.412087 A    
C149  O41   1.297026 A    
N2    O51   1.301059 A    
Cu4   O28   1.963647 S    
Cu5   O29   1.963647 S    
C41   C65   1.422131 A    
C58   C64   1.399989 A    
Cu12  O43   1.970802 S    
Cu7   O31   1.963648 S    
Cu8   O32   1.963647 S    
N10   O67   1.302581 A    
C117  C125  1.405668 A    
C84   C148  1.483138 S    
C115  C123  1.406489 A    
N1    O49   1.301060 A    
C135  H39   1.083409 S    
C105  C145  1.399857 A    
C136  H40   1.083408 S    
C90   H26   1.083024 S    
C121  N13   1.436576 S    
C118  N10   1.436574 S    
Cu4   Cu7   2.677111 S    
C17   C25   1.414862 A    
N13   O73   1.302580 A    
C89   C97   1.396588 A    
C100  H15   1.082835 S    
C79   C143  1.483139 S    
C80   C144  1.483138 S    
C20   C28   1.414862 A    
Cu9   O48   1.970799 S    
O9    C6    1.296513 A    
O26   C10   1.285656 A    
O11   C8    1.296514 A    
O12   C7    1.296516 A    
O14   Cu6   1.966325 S    
C25   N8    1.436698 S    
C124  C132  1.405668 A    
C107  C115  1.405481 A    
C127  C135  1.405922 A    
C11   C60   1.493237 S    
C128  C136  1.405922 A    
C109  C151  1.470278 S    
C13   C54   1.493237 S    
C24   C38   1.405561 A    
C114  C122  1.406489 A    
C6    C125  1.470755 S    
C34   C44   1.409845 A    
C15   C56   1.493237 S    
C39   C42   1.409844 A    
C123  N15   1.436576 S    
N3    O54   1.301247 A    
O1    Cu1   1.961743 S    
C26   N7    1.436697 S    
C17   C35   1.405560 A    
C50   C68   1.412087 A    
C104  C112  1.405481 A    
C48   C65   1.412086 A    
C24   C69   1.401159 A    
O38   Cu10  1.965802 S    
C21   C39   1.405560 A    
O7    Cu7   1.961741 S    
O8    Cu8   1.961743 S    
C42   C66   1.422129 A    
Cu9   Cu10  2.689257 S    
O13   C2    1.296513 A    
C91   C99   1.396588 A    
C153  O45   1.297026 A    
C71   H7    1.074592 S    
N4    O55   1.301059 A    
C85   H21   1.083025 S    
N11   O69   1.302580 A    
C51   C59   1.434575 A    
C21   C72   1.401158 A    
C77   C85   1.404971 A    
C3    C132  1.470755 S    
C1    O17   1.292463 A    
C79   C87   1.404971 A    
C1    C130  1.470754 S    
C140  H44   1.083409 S    
O37   C155  1.299112 A    
C77   C98   1.405329 A    
C110  C152  1.470278 S    
O34   Cu12  1.965802 S    
O11   Cu3   1.966325 S    
N16   O80   1.300574 A    
O37   Cu9   1.965805 S    
C87   C95   1.396585 A    
C122  N14   1.436576 S    
C88   C96   1.396587 A    
C139  C147  1.399912 A    
C21   C29   1.414862 A    
O6    Cu6   1.961741 S    
C137  C145  1.399912 A    
C72   H8    1.074592 S    
Cu11  O44   1.970799 S    
C14   C53   1.493237 S    
C140  C148  1.399912 A    
C113  C155  1.470279 S    
C25   C27   1.409637 A    
C119  N11   1.436576 S    
N7    O61   1.301059 A    
C101  H29   1.083048 S    
C81   C94   1.405328 A    
C123  C131  1.405667 A    
C97   H14   1.082838 S    
C48   C70   1.414112 A    
C132  C140  1.405921 A    
C78   C142  1.483138 S    
C59   C64   1.399991 A    
C133  C141  1.399912 A    
C56   C61   1.399989 A    
C112  C150  1.470279 S    
Cu1   O17   1.971373 S    
C139  H43   1.083408 S    
Cu10  O47   1.970802 S    
Cu3   O27   1.963648 S    
N15   O77   1.302580 A    
C107  C147  1.399857 A    
C60   C63   1.399989 A    
Cu12  O42   1.970801 S    
C103  C143  1.399855 A    
C122  C130  1.405666 A    
C37   C41   1.409843 A    
O30   C14   1.285656 A    
C96   H19   1.082836 S    
C155  O47   1.297025 A    
Cu6   O30   1.963648 S    
C27   N6    1.436697 S    
O4    C15   1.313936 A    
O5    C10   1.313936 A    
C89   H25   1.083024 S    
C118  C126  1.405668 A    
N8    O63   1.301059 A    
Cu8   O24   1.971373 S    
C110  C118  1.406490 A    
C83   C91   1.404971 A    
C51   C68   1.412089 A    
C106  C146  1.399858 A    
C81   C89   1.404970 A    
C45   C71   1.414112 A    
C80   C88   1.404971 A    
C47   C69   1.414112 A    
C92   C100  1.396589 A    
O38   C156  1.299113 A    
Cu1   Cu6   2.677111 S    
C3    O19   1.292465 A    
C102  C110  1.405484 A    
Cu3   Cu8   2.677111 S    
N5    O58   1.301249 A    
O10   C5    1.296512 A    
O27   C11   1.285656 A    
O15   C4    1.296514 A    
C94   H17   1.082836 S    
N6    O59   1.301061 A    
C44   C68   1.422128 A    
C87   H23   1.083025 S    
C120  N12   1.436576 S    
C88   H24   1.083024 S    
O14   C1    1.296514 A    
C49   C67   1.412088 A    
Cu4   O20   1.971373 S    
Cu5   O21   1.971373 S    
C7    C128  1.470754 S    
C4    O20   1.292463 A    
C8    C127  1.470754 S    
C5    O21   1.292465 A    
C108  C116  1.405484 A    
C109  C117  1.406490 A    
C114  C156  1.470279 S    
C26   C28   1.409637 A    
C112  C120  1.406489 A    
C133  H37   1.083409 S    
O2    Cu2   1.961741 S    
N2    O52   1.301248 A    
C101  C109  1.405483 A    
C32   N1    1.436697 S    
N14   O75   1.302581 A    
N10   O68   1.300573 A    
N12   O71   1.302580 A    
C77   C141  1.483137 S    
C125  C133  1.405921 A    
C74   H10   1.074592 S    
C86   H22   1.083025 S    
O36   Cu11  1.965804 S    
C29   C31   1.409634 A    
C46   C54   1.434575 A    
N13   O74   1.300575 A    
C9    C58   1.493237 S    
C18   C26   1.414862 A    
C2    C129  1.470754 S    
C43   C67   1.422129 A    
C63   H3    1.083257 S    
C78   C97   1.405327 A    
C61   H1    1.083259 S    
C124  N16   1.436575 S    
C105  C113  1.405481 A    
C70   H6    1.074593 S    
O15   Cu7   1.966325 S    
O16   Cu8   1.966325 S    
N7    O62   1.301248 A    
O12   Cu4   1.966325 S    
C20   C73   1.401160 A    
C150  O42   1.297025 A    
C45   C65   1.412088 A    
C2    O18   1.292465 A    
C76   H12   1.074592 S    
C64   H4    1.083257 S    
C51   C73   1.414112 A    
C49   C57   1.434575 A    
C105  H33   1.083047 S    
O1    C14   1.313936 A    
C82   C93   1.405328 A    
C92   H28   1.083022 S    
O3    C16   1.313939 A    
C52   C67   1.412087 A    
O39   C153  1.299113 A    
C80   C99   1.405327 A    
Cu2   O18   1.971374 S    
O8    C11   1.313936 A    
O9    Cu1   1.966325 S    
N4    O56   1.301248 A    
N9    O66   1.300572 A    
C18   C75   1.401159 A    
C28   N5    1.436700 S    
C52   C60   1.434575 A    
O31   C15   1.285656 A    
C23   C37   1.405560 A    
C85   C93   1.396587 A    
O32   C16   1.285655 A    
C10   C57   1.493237 S    
C40   C41   1.409844 A    
O4    Cu4   1.961743 S    
N1    O50   1.301248 A    
C12   C59   1.493237 S    
C83   C96   1.405329 A    
C23   C70   1.401157 A    
O28   C12   1.285655 A    
C47   C66   1.412089 A    
Cu7   O23   1.971374 S    
C20   C34   1.405559 A    
C138  H42   1.083409 S    
C7    O23   1.292463 A    
C137  H41   1.083409 S    
C24   C32   1.414862 A    
O6    C9    1.313939 A    
C83   C147  1.483139 S    
Cu1   O25   1.963647 S    
C81   C145  1.483139 S    
C116  C124  1.406489 A    
C156  O48   1.297026 A    
O36   C150  1.299112 A    
C30   C32   1.409637 A    
C78   C86   1.404971 A    
C52   C74   1.414112 A    
C50   C58   1.434575 A    
C54   C62   1.399989 A    
N11   O70   1.300574 A    
C90   C98   1.396589 A    
