data_mof_unit_32154.cif
_audit_creation_date              2012-10-26T19:06:27-0400
_audit_creation_method            fapswitch 2.2
_symmetry_space_group_name_H-M    P1
_symmetry_Int_Tables_number       1
_space_group_crystal_system       triclinic
_cell_length_a                    12.335584
_cell_length_b                    13.120352
_cell_length_c                    14.333595
_cell_angle_alpha                 78.888057
_cell_angle_beta                  100.895546
_cell_angle_gamma                 116.236499
_cell_volume                      2027.58905645

loop_
_atom_site_label
_atom_site_type_symbol
_atom_type_description
_atom_site_fract_x
_atom_site_fract_y
_atom_site_fract_z
_atom_type_partial_charge
C1    C     C_R   0.854782 0.286439 0.508289 0.530044
C2    C     C_R   0.437653 0.978238 0.478345 0.014238
C3    C     C_R   0.396652 0.056924 0.417358 0.033613
C4    C     C_R   0.999752 0.499524 0.668775 0.541017
C5    C     C_R   0.482815 0.161463 0.379047 -0.144642
C6    C     C_R   0.605873 0.192416 0.406073 -0.125263
C7    C     C_R   0.350326 0.868484 0.506078 -0.151206
C8    C     C_R   0.186817 0.914858 0.419200 -0.140094
C9    C     C_R   0.772327 0.163593 0.516724 0.000198
C10   C     C_R   0.337258 0.318770 0.641434 -0.159186
C11   C     C_R   0.761952 0.647752 0.378143 0.054294
C12   C     C_1   0.999585 0.499824 0.228858 -0.055704
C13   C     C_R   0.666398 0.680207 0.350364 -0.158415
C14   C     C_R   0.561517 0.623435 0.396013 -0.132447
C15   C     C_R   0.551353 0.533317 0.470830 -0.009685
C16   C     C_R   0.144937 0.713475 0.488103 0.547971
C17   C     C_R   0.652096 0.503971 0.497203 0.164898
C18   C     C_R   0.445774 0.471852 0.520373 -0.030192
C19   C     C_R   0.440313 0.378330 0.591977 0.018230
C20   C     C_R   0.539274 0.348334 0.614712 -0.052764
C21   C     C_R   0.644637 0.415060 0.571386 -0.097464
C22   C     C_R   0.344353 0.499275 0.501757 0.027644
C23   C     C_R   0.270138 0.026545 0.391989 -0.016300
C24   C     C_R   0.241033 0.349923 0.619251 0.041238
C25   C     C_R   0.999948 0.500068 0.331245 0.541529
C26   C     C_1   0.999371 0.498967 0.771185 -0.052199
C27   C     C_1   0.999050 0.498699 0.856641 -0.054033
C28   C     C_1   0.998907 0.498728 0.957316 -0.010925
C29   C     C_1   0.998985 0.499021 0.042741 -0.013703
C30   C     C_1   0.999245 0.499530 0.143395 -0.060451
C31   C     C_R   0.535288 0.244549 0.680470 0.022309
C32   C     C_R   0.449367 0.135384 0.658810 -0.088216
C33   C     C_R   0.450623 0.037167 0.716914 -0.105497
C34   C     C_R   0.227290 0.835077 0.473064 -0.021863
C35   C     C_R   0.538129 0.047053 0.796536 -0.099185
C36   C     C_R   0.624324 0.155220 0.818352 -0.108458
C37   C     C_R   0.623282 0.253705 0.760506 -0.100394
C38   C     C_R   0.221788 0.108687 0.336954 0.021257
C39   C     C_R   0.248371 0.210972 0.372375 -0.101354
C40   C     C_R   0.200982 0.287266 0.321108 -0.100304
C41   C     C_R   0.126204 0.261748 0.234703 -0.099678
C42   C     C_R   0.098447 0.159814 0.199422 -0.113005
C43   C     C_R   0.145707 0.083297 0.250360 -0.100189
C44   C     C_R   0.814812 0.087122 0.575456 -0.129719
C45   C     C_R   0.735099 0.974532 0.599950 -0.137302
C46   C     C_R   0.611362 0.937273 0.569215 -0.115469
C47   C     C_R   0.564473 0.011396 0.508604 0.041872
C48   C     C_R   0.648113 0.123582 0.477150 0.030162
Cu1   Cu    Cu3+1 0.098280 0.475420 0.520190 0.911176
Cu2   Cu    Cu3+1 0.901720 0.524580 0.479810 0.905455
H1    H     H_    0.090515 0.889457 0.396142 0.125854
H2    H     H_    0.909366 0.115397 0.605623 0.124335
H3    H     H_    0.555981 0.849758 0.594481 0.101686
H4    H     H_    0.768847 0.916511 0.646114 0.118771
H5    H     H_    0.667272 0.270608 0.368779 0.150142
H6    H     H_    0.161466 0.303700 0.656903 0.123280
H7    H     H_    0.382292 0.126448 0.596462 0.114081
H8    H     H_    0.384337 0.953357 0.699771 0.112173
H9    H     H_    0.539356 0.970897 0.841173 0.107305
H10   H     H_    0.692379 0.162762 0.879827 0.108156
H11   H     H_    0.691352 0.336969 0.777675 0.108456
H12   H     H_    0.330730 0.249427 0.698140 0.109832
H13   H     H_    0.305482 0.231310 0.439572 0.116149
H14   H     H_    0.221991 0.366096 0.348270 0.133048
H15   H     H_    0.089662 0.320849 0.195102 0.120679
H16   H     H_    0.040289 0.140086 0.132568 0.106594
H17   H     H_    0.123608 0.004653 0.222132 0.103068
H18   H     H_    0.340524 0.568252 0.448776 0.119575
H19   H     H_    0.842973 0.691836 0.342074 0.125003
H20   H     H_    0.490038 0.651548 0.370675 0.100350
H21   H     H_    0.673412 0.749165 0.293054 0.103166
H22   H     H_    0.718880 0.392797 0.597300 0.186039
H23   H     H_    0.456111 0.219398 0.325832 0.127609
H24   H     H_    0.375411 0.805024 0.551308 0.123128
N1    N     N_R   0.246290 0.438200 0.550780 -0.229536
N2    N     N_R   0.754310 0.561180 0.449760 -0.229295
O1    O     O_R   0.972510 0.318130 0.525390 -0.498898
O2    O     O_R   0.806530 0.359650 0.491290 -0.522580
O3    O     O_R   0.083010 0.479240 0.641000 -0.476271
O4    O     O_R   0.917030 0.520750 0.606900 -0.497582
O5    O     O_R   0.193470 0.640350 0.508710 -0.501275
O6    O     O_R   0.027490 0.681870 0.474610 -0.500228
O7    O     O_R   0.082970 0.479250 0.393100 -0.487513
O8    O     O_R   0.916990 0.520760 0.359000 -0.487139

loop_
_geom_bond_atom_site_label_1
_geom_bond_atom_site_label_2
_ccdc_geom_bond_type
C15   C18   A    
C33   H8    S    
C1    O1    A    
C41   C42   A    
C3    C23   A    
C2    C7    A    
C6    H5    S    
Cu2   O8    S    
C45   C46   A    
C26   C27   T    
C6    C48   A    
C32   H7    S    
C36   C37   A    
C4    O4    A    
C11   N2    A    
C38   C39   A    
C8    C23   A    
C35   H9    S    
C18   C19   A    
Cu1   O5    S    
C16   C34   S    
C31   C32   A    
C17   N2    A    
Cu1   N1    S    
C44   H2    S    
C13   C14   A    
C1    O2    A    
C14   H20   S    
C10   H12   S    
C22   N1    A    
Cu2   O2    S    
C7    H24   S    
C21   H22   S    
C1    C9    S    
C4    O3    A    
C39   C40   A    
C41   H15   S    
C13   H21   S    
C10   C24   A    
C17   C21   A    
C31   C37   A    
C35   C36   A    
C29   C30   S    
Cu2   N2    S    
C25   O8    A    
C4    C26   S    
C47   C48   A    
C10   C19   A    
C16   O6    A    
C8    C34   A    
C8    H1    S    
C22   H18   S    
C40   C41   A    
C45   H4    S    
C7    C34   A    
C42   C43   A    
C44   C45   A    
Cu2   O6    S    
C42   H16   S    
C15   C17   A    
C46   C47   A    
C28   C29   T    
C9    C44   A    
C12   C30   T    
C18   C22   A    
C3    C5    A    
Cu2   O4    S    
C37   H11   S    
C11   H19   S    
C24   N1    A    
C2    C47   A    
C24   H6    S    
C23   C38   S    
C39   H13   S    
C40   H14   S    
C12   C25   S    
C32   C33   A    
Cu1   O7    S    
C19   C20   A    
C2    C3    A    
C38   C43   A    
C11   C13   A    
C5    C6    A    
C46   H3    S    
C16   O5    A    
C33   C35   A    
Cu1   O1    S    
C5    H23   S    
Cu1   O3    S    
C20   C21   A    
C9    C48   A    
C43   H17   S    
Cu1   Cu2   S    
C27   C28   S    
C25   O7    A    
C36   H10   S    
C14   C15   A    
C20   C31   S    
