data_mof_unit_65995.cif
_audit_creation_date              2012-12-10T18:38:28-0500
_audit_creation_method            fapswitch 2.2
_symmetry_space_group_name_H-M    P1
_symmetry_Int_Tables_number       1
_space_group_crystal_system       triclinic
_cell_length_a                    30.150533
_cell_length_b                    31.832208
_cell_length_c                    21.328382
_cell_angle_alpha                 89.983237
_cell_angle_beta                  135.003969
_cell_angle_gamma                 90.031984
_cell_volume                      14473.5315396

loop_
_atom_site_label
_atom_site_type_symbol
_atom_type_description
_atom_site_fract_x
_atom_site_fract_y
_atom_site_fract_z
_atom_type_partial_charge
C1    C     C_R   0.378322 0.500005 0.378292 0.859387
C2    C     C_3   0.000051 0.708927 0.500047 0.207590
C3    C     C_3   0.999869 0.500005 0.310532 0.030182
C4    C     C_3   0.527567 0.964768 0.756892 -0.213065
C5    C     C_3   0.531005 0.034012 0.760311 -0.214004
C6    C     C_3   0.027569 0.464769 0.756894 -0.213064
C7    C     C_3   0.031003 0.534013 0.760309 -0.214006
C8    C     C_3   0.059079 0.498729 0.829782 -0.127290
C9    C     C_3   0.559079 0.998728 0.829782 -0.127291
C10   C     C_3   0.999387 0.500037 0.810135 -0.041856
C11   C     C_3   0.499387 0.000037 0.810135 -0.041856
C12   C     C_3   0.967878 0.465897 0.738703 -0.244000
C13   C     C_3   0.551624 0.736065 0.580987 -0.164481
C14   C     C_3   0.971345 0.535498 0.742142 -0.244710
C15   C     C_3   0.467876 0.965898 0.738701 -0.243998
C16   C     C_3   0.471347 0.035499 0.742144 -0.244711
C17   C     C_3   0.441375 0.001319 0.671544 0.488078
C18   C     C_3   0.941375 0.501317 0.671544 0.488079
C19   C     C_3   0.499605 0.000044 0.688673 -0.004613
C20   C     C_3   0.999605 0.500044 0.688673 -0.004613
C21   C     C_3   0.448607 0.736020 0.478594 -0.163284
C22   C     C_3   0.448693 0.263920 0.478728 -0.163196
C23   C     C_3   0.948587 0.236020 0.478541 -0.163282
C24   C     C_3   0.551711 0.263966 0.581139 -0.164582
C25   C     C_3   0.948662 0.763920 0.478642 -0.163194
C26   C     C_1   0.499982 0.625850 0.499942 -0.191201
C27   C     C_1   0.500005 0.374150 0.500015 -0.191152
C28   C     C_1   0.999982 0.125850 0.499942 -0.191201
C29   C     C_1   0.000005 0.874150 0.500015 -0.191153
C30   C     C_1   0.499954 0.874156 0.499903 -0.186194
C31   C     C_1   0.500043 0.125844 0.500005 -0.185768
C32   C     C_1   0.999954 0.374155 0.499903 -0.186195
C33   C     C_1   0.000043 0.625844 0.500005 -0.185767
C34   C     C_3   0.499605 0.736061 0.440108 -0.165258
C35   C     C_3   0.051605 0.236065 0.581002 -0.164483
C36   C     C_3   0.499707 0.263968 0.440266 -0.165301
C37   C     C_3   0.999644 0.236061 0.440147 -0.165258
C38   C     C_3   0.999770 0.763968 0.440329 -0.165299
C39   C     C_3   0.499952 0.708933 0.499901 0.207875
C40   C     C_3   0.500030 0.291067 0.500042 0.207832
C41   C     C_3   0.999952 0.208933 0.499901 0.207874
C42   C     C_3   0.000030 0.791067 0.500042 0.207832
C43   C     C_3   0.051679 0.763966 0.581162 -0.164586
C44   C     C_3   0.500280 0.763945 0.559680 -0.162192
C45   C     C_3   0.500374 0.236026 0.559824 -0.161998
C46   C     C_3   0.000241 0.263945 0.559641 -0.162190
C47   C     C_3   0.000311 0.736026 0.559762 -0.161996
C48   C     C_1   0.499968 0.663416 0.499918 -0.082376
C49   C     C_R   0.878322 0.000005 0.378292 0.859387
C50   C     C_1   0.500016 0.336584 0.500030 -0.082385
C51   C     C_1   0.999967 0.163416 0.499918 -0.082376
C52   C     C_1   0.000016 0.836584 0.500030 -0.082385
C53   C     C_1   0.499937 0.836590 0.499889 -0.081789
C54   C     C_1   0.500052 0.163410 0.500032 -0.081576
C55   C     C_1   0.999937 0.336590 0.499889 -0.081789
C56   C     C_1   0.000052 0.663410 0.500032 -0.081577
C57   C     C_3   0.270658 0.465476 0.300157 -0.156762
C58   C     C_3   0.270719 0.534579 0.300140 -0.156751
C59   C     C_3   0.770658 0.965456 0.300103 -0.156732
C60   C     C_3   0.551277 0.763985 0.521193 -0.165446
C61   C     C_3   0.770719 0.034559 0.300194 -0.156782
C62   C     C_3   0.229304 0.500039 0.288476 -0.152132
C63   C     C_3   0.729304 0.999998 0.288476 -0.152132
C64   C     C_3   0.189408 0.500024 0.188985 0.024118
C65   C     C_3   0.689408 0.000025 0.188985 0.024119
C66   C     C_3   0.229478 0.465460 0.199373 -0.171303
C67   C     C_3   0.229536 0.534564 0.199352 -0.171173
C68   C     C_3   0.729478 0.965482 0.199318 -0.171292
C69   C     C_3   0.729536 0.034586 0.199406 -0.171185
C70   C     C_R   0.499997 0.581289 0.499981 0.905447
C71   C     C_3   0.551387 0.236074 0.521361 -0.165585
C72   C     C_R   0.499996 0.418711 0.499996 0.905446
C73   C     C_R   0.999998 0.081289 0.499981 0.905446
C74   C     C_R   0.999996 0.918711 0.499996 0.905445
C75   C     C_3   0.270726 0.500000 0.210865 -0.173439
C76   C     C_3   0.770726 0.000043 0.210865 -0.173439
C77   C     C_3   0.310758 0.500015 0.310525 0.028788
C78   C     C_3   0.810758 0.000016 0.310525 0.028788
C79   C     C_3   0.729325 0.535105 0.757029 -0.156531
C80   C     C_3   0.729274 0.466035 0.760176 -0.158080
C81   C     C_3   0.229325 0.035114 0.757003 -0.156521
C82   C     C_3   0.051297 0.263985 0.521247 -0.165446
C83   C     C_3   0.229274 0.966045 0.760201 -0.158090
C84   C     C_3   0.770654 0.501187 0.829662 -0.153643
C85   C     C_3   0.270654 0.001206 0.829661 -0.153645
C86   C     C_3   0.810604 0.499957 0.810057 0.024951
C87   C     C_3   0.310603 0.999957 0.810057 0.024951
C88   C     C_3   0.770559 0.533876 0.738688 -0.170966
C89   C     C_3   0.770501 0.464806 0.741841 -0.171819
C90   C     C_3   0.270559 0.033865 0.738664 -0.170959
C91   C     C_3   0.270501 0.964796 0.741866 -0.171824
C92   C     C_3   0.729327 0.498731 0.669351 -0.171874
C93   C     C_3   0.051419 0.736074 0.521447 -0.165588
C94   C     C_3   0.229327 0.998711 0.669351 -0.171873
C95   C     C_3   0.689252 0.499959 0.688873 0.028935
C96   C     C_3   0.189252 0.999959 0.688873 0.028935
C97   C     C_R   0.500035 0.000004 0.378261 0.854732
C98   C     C_R   0.000035 0.500005 0.378261 0.854731
C99   C     C_R   0.499992 0.918716 0.499933 0.900530
C100  C     C_R   0.500020 0.081284 0.499961 0.901115
C101  C     C_R   0.999992 0.418716 0.499933 0.900530
C102  C     C_R   0.000020 0.581284 0.499961 0.901114
C103  C     C_R   0.621688 0.499982 0.621609 0.859587
C104  C     C_3   0.499933 0.791072 0.499886 0.207639
C105  C     C_R   0.121688 0.999982 0.621609 0.859588
C106  C     C_R   0.499858 0.000026 0.621431 0.878506
C107  C     C_R   0.999858 0.500026 0.621431 0.878506
C108  C     C_R   0.999848 0.499997 0.121676 0.865903
C109  C     C_R   0.499848 0.999996 0.121676 0.865904
C110  C     C_R   0.121891 0.500009 0.121580 0.865380
C111  C     C_R   0.621891 0.000009 0.121580 0.865380
C112  C     C_R   0.999792 0.500009 0.877917 0.888052
C113  C     C_R   0.499792 0.000009 0.877917 0.888052
C114  C     C_R   0.878123 0.499988 0.877761 0.863051
C115  C     C_3   0.500051 0.208927 0.500047 0.207589
C116  C     C_R   0.378123 0.999988 0.877761 0.863051
C117  C     C_3   0.530420 0.034237 0.301014 -0.156832
C118  C     C_3   0.528758 0.965144 0.299395 -0.156051
C119  C     C_3   0.030491 0.534209 0.301085 -0.156870
C120  C     C_3   0.028685 0.465118 0.299323 -0.156014
C121  C     C_3   0.059328 0.499319 0.288583 -0.152359
C122  C     C_3   0.559329 0.999374 0.288585 -0.152357
C123  C     C_3   0.999731 0.499996 0.189075 0.023682
C124  C     C_3   0.499731 0.999995 0.189075 0.023682
C125  C     C_3   0.970890 0.534886 0.200294 -0.171644
C126  C     C_3   0.999933 0.291073 0.499886 0.207638
C127  C     C_3   0.969077 0.465795 0.198517 -0.171163
C128  C     C_3   0.470818 0.034857 0.200222 -0.171630
C129  C     C_3   0.469148 0.965765 0.198588 -0.171179
C130  C     C_3   0.440239 0.000624 0.210855 -0.173761
C131  C     C_3   0.940241 0.500681 0.210857 -0.173762
C132  C     C_3   0.448261 0.763941 0.418801 -0.164235
C133  C     C_3   0.448371 0.236029 0.418952 -0.164132
C134  C     C_3   0.948280 0.263941 0.418786 -0.164235
C135  C     C_3   0.948402 0.736029 0.418928 -0.164133
C136  C     C_3   0.499869 0.000004 0.310532 0.030182
H1    H     H_    0.406507 0.723783 0.461124 0.131553
H2    H     H_    0.710504 0.438371 0.766990 0.130521
H3    H     H_    0.210591 0.063786 0.761217 0.129286
H4    H     H_    0.210504 0.938389 0.767035 0.130532
H5    H     H_    0.789185 0.561543 0.731630 0.140283
H6    H     H_    0.789046 0.436126 0.737304 0.141507
H7    H     H_    0.289185 0.061524 0.731586 0.140273
H8    H     H_    0.289045 0.936109 0.737351 0.141516
H9    H     H_    0.710985 0.497721 0.602320 0.149438
H10   H     H_    0.210985 0.997685 0.602321 0.149437
H11   H     H_    0.107857 0.498766 0.318212 0.119003
H12   H     H_    0.406583 0.276108 0.461244 0.131627
H13   H     H_    0.607859 0.998866 0.318214 0.119001
H14   H     H_    0.555394 0.062159 0.344695 0.130475
H15   H     H_    0.552373 0.936717 0.341757 0.129881
H16   H     H_    0.055523 0.562108 0.344824 0.130504
H17   H     H_    0.052242 0.436669 0.341626 0.129854
H18   H     H_    0.947225 0.563351 0.158071 0.141262
H19   H     H_    0.943945 0.437888 0.154837 0.140576
H20   H     H_    0.447093 0.063300 0.157939 0.141232
H21   H     H_    0.444074 0.937834 0.154967 0.140607
H22   H     H_    0.391498 0.001140 0.180449 0.147253
H23   H     H_    0.906471 0.223783 0.461027 0.131552
H24   H     H_    0.891501 0.501242 0.180452 0.147252
H25   H     H_    0.107578 0.497666 0.897169 0.128534
H26   H     H_    0.607578 0.997664 0.897169 0.128534
H27   H     H_    0.405877 0.776140 0.352296 0.132862
H28   H     H_    0.405997 0.223805 0.352447 0.132918
H29   H     H_    0.905913 0.276140 0.352270 0.132861
H30   H     H_    0.906054 0.723805 0.352405 0.132915
H31   H     H_    0.550680 0.936136 0.761338 0.145309
H32   H     H_    0.556911 0.061572 0.767540 0.146571
H33   H     H_    0.050683 0.436137 0.761341 0.145310
H34   H     H_    0.906526 0.776108 0.461087 0.131625
H35   H     H_    0.056907 0.561574 0.767537 0.146570
H36   H     H_    0.941324 0.438505 0.730467 0.149223
H37   H     H_    0.947547 0.563997 0.736601 0.150470
H38   H     H_    0.441320 0.938506 0.730464 0.149223
H39   H     H_    0.447550 0.063998 0.736604 0.150470
H40   H     H_    0.500556 0.776149 0.608709 0.131618
H41   H     H_    0.500649 0.223798 0.608849 0.131788
H42   H     H_    0.000485 0.276149 0.608638 0.131620
H43   H     H_    0.000534 0.723798 0.608735 0.131790
H44   H     H_    0.594008 0.723865 0.647490 0.131079
H45   H     H_    0.289098 0.499983 0.180522 0.147486
H46   H     H_    0.594085 0.276192 0.647641 0.131075
H47   H     H_    0.093973 0.223865 0.647516 0.131081
H48   H     H_    0.094028 0.776192 0.647684 0.131077
H49   H     H_    0.593376 0.776221 0.538659 0.132319
H50   H     H_    0.593496 0.223887 0.538842 0.132271
H51   H     H_    0.093412 0.276221 0.538757 0.132321
H52   H     H_    0.093554 0.723887 0.538999 0.132272
H53   H     H_    0.499329 0.723860 0.391078 0.133193
H54   H     H_    0.499432 0.276193 0.391240 0.133163
H55   H     H_    0.999400 0.223860 0.391149 0.133194
H56   H     H_    0.789098 0.000060 0.180522 0.147487
H57   H     H_    0.999547 0.776193 0.391354 0.133162
H58   H     H_    0.210363 0.500056 0.318038 0.118982
H59   H     H_    0.710363 0.999981 0.318038 0.118982
H60   H     H_    0.289368 0.437306 0.343191 0.130104
H61   H     H_    0.289482 0.562761 0.343163 0.130083
H62   H     H_    0.789369 0.937269 0.343093 0.130082
H63   H     H_    0.789481 0.062724 0.343261 0.130105
H64   H     H_    0.210893 0.437266 0.156421 0.141256
H65   H     H_    0.210997 0.562745 0.156385 0.141300
H66   H     H_    0.710893 0.937305 0.156322 0.141234
H67   H     H_    0.789543 0.502184 0.897035 0.122102
H68   H     H_    0.710997 0.062784 0.156484 0.141322
H69   H     H_    0.352751 0.003251 0.597635 0.316584
H70   H     H_    0.852751 0.503247 0.597635 0.316584
H71   H     H_    0.289543 0.002219 0.897033 0.122103
H72   H     H_    0.710591 0.563769 0.761264 0.129295
O1    O     O_R   0.406950 0.500000 0.354430 -0.629221
O2    O     O_R   0.052480 0.500000 0.645470 -0.636592
O3    O     O_R   0.000050 0.534770 0.093010 -0.627167
O4    O     O_R   0.000050 0.465230 0.093010 -0.626883
O5    O     O_R   0.500050 0.034770 0.093010 -0.627158
O6    O     O_R   0.500050 0.965230 0.093010 -0.626894
O7    O     O_R   0.093030 0.534780 0.092960 -0.627194
O8    O     O_R   0.093030 0.465220 0.092960 -0.627334
O9    O     O_R   0.593030 0.034780 0.092960 -0.627203
O10   O     O_R   0.593030 0.965220 0.092960 -0.627325
O11   O     O_R   0.999950 0.534800 0.906860 -0.627766
O12   O     O_R   0.906950 1.000000 0.354430 -0.629221
O13   O     O_R   0.999950 0.465200 0.906860 -0.627073
O14   O     O_R   0.499950 0.034800 0.906860 -0.627765
O15   O     O_R   0.499950 0.965200 0.906860 -0.627073
O16   O     O_R   0.906980 0.534790 0.906910 -0.629265
O17   O     O_R   0.906980 0.465210 0.906910 -0.629708
O18   O     O_R   0.406980 0.034790 0.906910 -0.629264
O19   O     O_R   0.406980 0.965210 0.906910 -0.629710
O20   O     O_R   0.407010 0.500000 0.459520 -0.625460
O21   O     O_R   0.907010 0.000000 0.459520 -0.625460
O22   O     O_R   0.499970 0.561610 0.447450 -0.616678
O23   O     O_R   0.552530 0.938390 0.552510 -0.621064
O24   O     O_R   0.499970 0.438390 0.447450 -0.616797
O25   O     O_R   0.999970 0.061610 0.447450 -0.616678
O26   O     O_R   0.999970 0.938390 0.447450 -0.616796
O27   O     O_R   0.500030 0.561620 0.552540 -0.618855
O28   O     O_R   0.500030 0.438380 0.552540 -0.618959
O29   O     O_R   0.000030 0.061620 0.552540 -0.618855
O30   O     O_R   0.000030 0.938380 0.552540 -0.618958
O31   O     O_R   0.593000 0.500000 0.540480 -0.628367
O32   O     O_R   0.093000 1.000000 0.540480 -0.628366
O33   O     O_R   0.593060 0.500000 0.645570 -0.625607
O34   O     O_R   0.552530 0.061610 0.552510 -0.621434
O35   O     O_R   0.093060 0.000000 0.645570 -0.625608
O36   O     O_R   0.447530 0.000000 0.354370 -0.631967
O37   O     O_R   0.947530 0.500000 0.354370 -0.631965
O38   O     O_R   0.552560 0.000000 0.459510 -0.626305
O39   O     O_R   0.052560 0.500000 0.459510 -0.626305
O40   O     O_R   0.447490 0.938400 0.447370 -0.615016
O41   O     O_R   0.447490 0.061600 0.447370 -0.614182
O42   O     O_R   0.947490 0.438400 0.447370 -0.615013
O43   O     O_R   0.947490 0.561600 0.447370 -0.614185
O44   O     O_3   0.379985 0.002682 0.587201 -0.753619
O45   O     O_R   0.052530 0.438390 0.552510 -0.621062
O46   O     O_3   0.879985 0.502679 0.587201 -0.753619
O47   O     O_R   0.052530 0.561610 0.552510 -0.621437
O48   O     O_R   0.447440 0.000000 0.540340 -0.568196
O49   O     O_R   0.947440 0.500000 0.540340 -0.568196
O50   O     O_R   0.552480 0.000000 0.645470 -0.636592
Zn1   Zn    Zn3+2 0.499970 0.500000 0.429830 0.946744
Zn2   Zn    Zn3+2 0.000000 0.453550 0.999940 0.936397
Zn3   Zn    Zn3+2 0.500000 0.046450 0.999940 0.936252
Zn4   Zn    Zn3+2 0.500000 0.953550 0.999940 0.936395
Zn5   Zn    Zn3+2 0.999970 1.000000 0.429830 0.946744
Zn6   Zn    Zn3+2 0.500040 0.500000 0.570170 0.947384
Zn7   Zn    Zn3+2 0.000040 0.000000 0.570170 0.947384
Zn8   Zn    Zn3+2 0.429870 0.000000 0.429720 0.986266
Zn9   Zn    Zn3+2 0.929870 0.500000 0.429720 0.986267
Zn10  Zn    Zn3+2 0.570140 0.000000 0.570120 0.945853
Zn11  Zn    Zn3+2 0.070140 0.500000 0.570120 0.945852
Zn12  Zn    Zn3+2 0.000000 0.546450 0.999940 0.936250

loop_
_geom_bond_atom_site_label_1
_geom_bond_atom_site_label_2
_ccdc_geom_bond_type
C63   C65   S    
C58   C62   S    
O27   Zn6   S    
C87   C91   S    
C1    C77   S    
C101  O42   A    
C21   H1    S    
C36   C133  S    
C11   C113  S    
C100  O34   A    
C12   H36   S    
C13   C60   S    
C3    C131  S    
O31   Zn1   S    
C84   C86   S    
O42   Zn9   S    
C86   C88   S    
C35   H47   S    
C49   C78   S    
O29   Zn7   S    
C102  O47   A    
C61   C63   S    
C62   C64   S    
C11   C15   S    
C121  H11   S    
C111  O10   A    
C74   O26   A    
C90   H7    S    
C36   C71   S    
C23   C46   S    
O23   Zn10  S    
C34   C60   S    
C28   C73   S    
C83   H4    S    
C68   H66   S    
C33   C102  S    
C122  H13   S    
C98   O37   A    
C72   O28   A    
C64   C66   S    
C101  O45   A    
C21   C132  S    
C55   C126  S    
C65   C68   S    
C134  H29   S    
C31   C100  S    
C94   C96   S    
C81   C90   S    
C16   H39   S    
C22   H12   S    
C100  O41   A    
C57   H60   S    
C62   H58   S    
O43   Zn9   S    
O14   Zn3   S    
C118  C136  S    
O35   Zn7   S    
C99   O23   A    
C2    C47   S    
C83   C91   S    
C17   O44   S    
C59   C63   S    
C23   C41   S    
C38   H57   S    
C132  H27   S    
C118  C129  S    
C91   C94   S    
C3    C98   S    
C135  H30   S    
C70   O27   A    
C25   C135  S    
C117  C128  S    
C127  C131  S    
C121  C123  S    
C128  H20   S    
C19   C106  S    
C58   C67   S    
C22   C45   S    
O22   Zn1   S    
C126  C134  S    
C8    C10   S    
C43   C47   S    
C41   C51   S    
O15   Zn4   S    
C66   H64   S    
O19   Zn4   S    
C42   C52   S    
C114  O17   A    
O49   Zn9   S    
C57   C66   S    
O50   Zn10  S    
C61   H63   S    
C120  C127  S    
C7    C8    S    
C107  O2    A    
C18   O46   S    
C118  H15   S    
C76   H56   S    
C76   C78   S    
C14   H37   S    
C79   C84   S    
C40   C50   S    
O1    Zn1   S    
C53   C104  S    
C69   C76   S    
C118  C122  S    
C113  O15   A    
C58   C77   S    
O24   Zn1   S    
C23   H23   S    
O34   Zn10  S    
C32   C55   T    
O25   Zn5   S    
O37   Zn9   S    
O38   Zn10  S    
C59   C78   S    
C108  O4    A    
C35   C82   S    
C95   C103  S    
C119  C121  S    
O9    Zn3   S    
C22   C133  S    
C1    O1    A    
C34   C39   S    
C106  O48   A    
C109  O6    A    
C10   C14   S    
O21   Zn7   S    
C29   C74   S    
O5    Zn3   S    
C74   O30   A    
C117  C122  S    
C5    C9    S    
C67   H65   S    
C21   C44   S    
C125  C131  S    
C123  C127  S    
C80   C95   S    
C75   C77   S    
O18   Zn3   S    
C3    C119  S    
C102  O43   A    
C1    O20   A    
O12   Zn5   S    
C67   C75   S    
C122  C124  S    
C88   H5    S    
C125  H18   S    
C85   H71   S    
C129  C130  S    
C119  H16   S    
C72   O24   A    
C23   C134  S    
C44   H40   S    
C27   C50   T    
C15   C17   S    
C68   C76   S    
C13   H44   S    
C2    C135  S    
C107  O49   A    
H69   O44   S    
C2    C56   S    
C97   O36   A    
C35   C46   S    
C80   H2    S    
C83   C96   S    
C38   C93   S    
C105  O35   A    
C13   C44   S    
C31   C54   T    
C37   C41   S    
C35   C41   S    
C93   H52   S    
C69   H68   S    
C32   C101  S    
C71   H50   S    
C114  O16   A    
C4    C9    S    
C60   C104  S    
C81   C85   S    
H70   O46   S    
C25   H34   S    
C94   H10   S    
C96   C105  S    
C58   H61   S    
C60   H49   S    
C7    H35   S    
C112  O13   A    
C80   C84   S    
C120  C121  S    
C6    C12   S    
C28   C51   T    
C123  C125  S    
C59   H62   S    
C89   H6    S    
C5    H32   S    
C80   C89   S    
C14   C18   S    
C82   C126  S    
O45   Zn11  S    
C16   C17   S    
C10   C112  S    
O13   Zn2   S    
C25   C47   S    
C73   O25   A    
C26   C48   T    
C124  C128  S    
C33   C56   T    
C103  O33   A    
C79   C88   S    
C90   C94   S    
O30   Zn7   S    
C116  O19   A    
C57   C77   S    
C127  H19   S    
C97   O38   A    
C81   C96   S    
C6    C8    S    
C115  C133  S    
O4    Zn2   S    
C79   C95   S    
C11   C16   S    
C54   C115  S    
C38   C135  S    
C87   C116  S    
C119  C125  S    
C84   H67   S    
C83   C85   S    
O28   Zn6   S    
C26   C70   S    
C36   H54   S    
C37   C82   S    
C42   C43   S    
C108  C123  S    
C133  H28   S    
C81   H3    S    
C15   H38   S    
O6    Zn4   S    
O17   Zn2   S    
C86   C89   S    
C128  C130  S    
C25   C42   S    
C5    C19   S    
C6    C20   S    
C4    H31   S    
C130  H22   S    
C110  O7    A    
C65   C69   S    
C66   C75   S    
C43   C93   S    
C124  C129  S    
O36   Zn8   S    
O7    Zn12  S    
C49   O21   A    
C113  O14   A    
C103  O31   A    
C7    C20   S    
C104  C132  S    
C87   C90   S    
C117  C136  S    
C27   C72   S    
O20   Zn6   S    
C39   C48   S    
C46   H42   S    
C110  O8    A    
C129  H21   S    
C44   C104  S    
C57   C62   S    
C24   C45   S    
C38   C42   S    
C109  O5    A    
C8    H25   S    
O39   Zn11  S    
O40   Zn8   S    
C79   H72   S    
C43   H48   S    
C65   C111  S    
C5    C16   S    
C47   H43   S    
C24   C40   S    
C4    C19   S    
C112  O11   A    
C7    C14   S    
C88   C92   S    
O33   Zn6   S    
O3    Zn12  S    
C117  H14   S    
C18   C20   S    
C2    C93   S    
C45   H41   S    
C20   C107  S    
C34   C132  S    
C131  H24   S    
C85   C87   S    
C30   C53   T    
C49   O12   A    
C24   H46   S    
C64   C67   S    
C36   C40   S    
C30   C99   S    
C92   C95   S    
C116  O18   A    
O41   Zn8   S    
C70   O22   A    
C73   O29   A    
C59   C68   S    
C45   C115  S    
C64   C110  S    
C21   C39   S    
C61   C78   S    
C22   C40   S    
C71   C115  S    
C89   C92   S    
C9    C11   S    
C10   C12   S    
O26   Zn5   S    
C37   H55   S    
O10   Zn4   S    
O8    Zn2   S    
O32   Zn5   S    
C75   H45   S    
C108  O3    A    
C91   H8    S    
O47   Zn11  S    
C61   C69   S    
O48   Zn8   S    
C92   H9    S    
C37   C134  S    
C46   C126  S    
C34   H53   S    
C130  C136  S    
C109  C124  S    
C111  O9    A    
C82   H51   S    
C86   C114  S    
O11   Zn12  S    
C4    C15   S    
C98   O39   A    
O2    Zn11  S    
C120  H17   S    
C17   C19   S    
C105  O32   A    
C63   H59   S    
C9    H26   S    
C13   C39   S    
C3    C120  S    
O16   Zn12  S    
C12   C18   S    
C106  O50   A    
C97   C136  S    
C99   O40   A    
C29   C52   T    
C24   C71   S    
C6    H33   S    
