data_mof_unit_29295.cif
_audit_creation_date              2013-03-05T16:10:20-0500
_audit_creation_method            fapswitch 2.2
_symmetry_space_group_name_H-M    P1
_symmetry_Int_Tables_number       1
_space_group_crystal_system       triclinic
_cell_length_a                    8.721087
_cell_length_b                    15.249762
_cell_length_c                    18.850374
_cell_angle_alpha                 101.307417
_cell_angle_beta                  91.690482
_cell_angle_gamma                 99.767167
_cell_volume                      2417.58565722

loop_
_atom_site_label
_atom_site_type_symbol
_atom_site_description
_atom_site_fract_x
_atom_site_fract_y
_atom_site_fract_z
_atom_type_partial_charge
P1    P     P_3+3 0.039430 0.410940 0.333230 0.583672
O1    O     O_2   0.871960 0.437280 0.322960 -0.425005
O2    O     O_3   0.121410 0.444460 0.412450 -0.351984
O3    O     O_3   0.661450 0.607570 0.372550 -0.323578
O4    O     O_2   0.698887 0.510653 0.246538 -0.390900
O5    O     O_3   0.000835 0.292550 0.299297 -0.522392
O6    O     O_3   0.725698 0.681076 0.246420 -0.594550
H1    H     H_    0.753819 0.773203 0.342270 -0.030468
C1    C     C_3   0.803989 0.839700 0.248330 0.787646
H2    H     H_    0.920764 0.822465 0.241126 -0.011307
P2    P     P_3+3 0.676770 0.715000 0.563590 0.556284
P3    P     P_3+3 0.142826 0.774723 0.418716 0.433361
O7    O     O_2   0.852310 0.726980 0.542430 -0.419164
O8    O     O_3   0.084010 0.657370 0.410280 -0.360855
O9    O     O_2   0.021267 0.817160 0.465525 -0.410625
O10   O     O_3   0.679009 0.716765 0.657898 -0.535281
O11   O     O_3   0.109430 0.803358 0.334278 -0.638558
C2    C     C_3   0.158279 0.743365 0.275793 1.087371
H3    H     H_    0.257248 0.714098 0.293865 0.028236
C3    C     C_3   0.221263 0.800924 0.219273 -1.078458
H4    H     H_    0.130795 0.810556 0.180805 0.233786
H5    H     H_    0.273895 0.871214 0.246252 0.258858
C4    C     C_3   0.242265 0.778228 0.682263 0.577256
H6    H     H_    0.206156 0.779639 0.626247 -0.094334
C5    C     C_3   0.229004 0.873187 0.729672 0.554962
H7    H     H_    0.334644 0.922437 0.722537 0.106410
Ba1   Ba    Ba6+2 0.853520 0.540910 0.466490 1.669737
C6    C     C_3   0.910865 0.243393 0.343473 0.702349
H8    H     H_    0.822453 0.281143 0.369433 -0.137358
C7    C     C_3   0.824729 0.151409 0.298144 -0.177649
H9    H     H_    0.704788 0.154928 0.281508 0.124116
H10   H     H_    0.807124 0.099684 0.331834 0.117994
C8    C     C_3   0.814676 0.763667 0.700023 1.092529
H11   H     H_    0.911979 0.774902 0.665404 0.059151
C9    C     C_3   0.789961 0.856931 0.742434 -0.817569
H12   H     H_    0.786069 0.903567 0.704726 0.253595
H13   H     H_    0.884468 0.886223 0.785212 0.260441
H14   H     H_    0.681422 0.853891 0.771064 0.281464
P4    P     P_3+3 0.150290 0.589140 0.666780 0.507617
O12   O     O_2   0.317750 0.562750 0.677090 -0.364587
O13   O     O_3   0.068300 0.555620 0.587560 -0.454599
O14   O     O_3   0.528270 0.392500 0.627460 -0.365206
O15   O     O_3   0.148436 0.706218 0.706334 -0.562814
P5    P     P_3+3 0.051556 0.224543 0.587082 0.468816
O16   O     O_3   0.609290 0.386840 0.459690 -0.412648
O17   O     O_3   0.105700 0.342700 0.589730 -0.384176
O18   O     O_2   0.176077 0.180506 0.543409 -0.365154
O19   O     O_3   0.083251 0.199539 0.673652 -0.676655
Ba2   Ba    Ba6+2 0.336320 0.459170 0.533520 1.681180
P6    P     P_3+3 0.617955 0.590797 0.279142 0.517814
C10   C     C_3   0.707675 0.767082 0.285571 0.879447
O20   O     O_3   0.580430 0.613240 0.540320 -0.301240
C11   C     C_3   0.531104 0.300281 0.303683 0.815825
H15   H     H_    0.628709 0.353148 0.329971 0.062875
C12   C     C_3   0.571981 0.266973 0.225414 -0.997664
H16   H     H_    0.499794 0.199718 0.201524 0.300841
H17   H     H_    0.551881 0.316286 0.191346 0.240313
H18   H     H_    0.696774 0.262591 0.223075 0.226767
P7    P     P_3+3 0.514289 0.270201 0.436497 0.489876
O21   O     O_2   0.337390 0.273050 0.457610 -0.217786
O22   O     O_3   0.502676 0.228691 0.341522 -0.610069
H19   H     H_    0.310231 0.769251 0.187572 0.283871
C13   C     C_3   0.115975 0.279444 0.728492 0.922599
H20   H     H_    0.209076 0.329157 0.711893 0.098912
C14   C     C_3   0.180014 0.258498 0.799799 0.085212
H21   H     H_    0.097092 0.205811 0.819348 0.048990
H22   H     H_    0.281904 0.228108 0.789115 0.088302
P8    P     P_3+3 0.561937 0.411182 0.722069 0.464399
C15   C     C_3   0.507248 0.232689 0.692640 0.125317
H23   H     H_    0.614789 0.243706 0.662776 0.081345
O23   O     O_2   0.444564 0.470340 0.755011 -0.392231
O24   O     O_3   0.498390 0.307925 0.748623 -0.584440
H24   H     H_    0.404563 0.219924 0.653439 0.155538
H25   H     H_    0.592047 0.164475 0.774622 0.130311
C16   C     C_3   0.507334 0.148853 0.727015 -0.134707
H26   H     H_    0.394931 0.126243 0.748145 0.095051
C17   C     C_R   0.002095 0.449417 0.043684 0.047648
C18   C     C_R   0.914549 0.399002 0.089118 -0.216016
C19   C     C_R   0.780653 0.427228 0.950946 -0.255320
C20   C     C_R   0.939776 0.457656 0.974364 0.067968
C21   C     C_R   0.722147 0.434150 0.882795 -0.169407
C22   C     C_R   0.820297 0.467874 0.832873 -0.062171
C23   C     C_R   0.979638 0.501931 0.855417 0.069623
C24   C     C_R   0.037888 0.500265 0.927499 0.094632
C25   C     C_R   0.765296 0.465801 0.760406 0.043772
C26   C     C_R   0.870148 0.498908 0.712367 0.320922
C27   C     C_R   0.028504 0.532613 0.732678 0.205956
C28   C     C_R   0.081239 0.537900 0.806185 -0.103379
C29   C     C_R   0.155727 0.494481 0.069622 -0.040322
C30   C     C_R   0.208985 0.497311 0.143373 0.014600
C31   C     C_R   0.109820 0.455248 0.190660 -0.025838
C32   C     C_R   0.967253 0.402019 0.160545 -0.041999
H27   H     H_    0.598687 0.411312 0.869521 0.197508
H28   H     H_    0.891763 0.364469 0.192523 0.161374
C33   C     C_R   0.233769 0.577321 0.832144 -0.005588
C34   C     C_R   0.291207 0.572777 0.900284 -0.083197
C35   C     C_R   0.194891 0.539670 0.951458 0.072843
C36   C     C_R   0.251195 0.543218 0.024651 -0.160245
C37   C     C_R   0.397443 0.596050 0.055609 0.588406
C38   C     C_R   0.357801 0.546914 0.170998 -0.079579
C39   C     C_R   0.448170 0.594233 0.126235 -0.304500
C40   C     C_R   0.407318 0.555523 0.244807 0.210764
C41   C     C_R   0.298724 0.526308 0.292211 -0.391428
C42   C     C_R   0.154099 0.470857 0.266710 0.338353
H29   H     H_    0.314626 0.610941 0.800181 0.198955
H30   H     H_    0.553263 0.639389 0.147938 0.220108
H31   H     H_    0.333519 0.540629 0.349315 0.210234
H32   H     H_    0.696346 0.400353 0.985468 0.131192
H33   H     H_    0.802676 0.356900 0.070975 0.142516
H34   H     H_    0.415224 0.591793 0.908997 0.163108
C43   C     C_R   0.852202 0.169071 0.541541 0.280137
C44   C     C_R   0.785016 0.076913 0.538655 -0.040574
C45   C     C_R   0.648825 0.890757 0.530136 -0.069463
C46   C     C_R   0.801271 0.926542 0.560703 -0.045014
C47   C     C_R   0.868466 0.017171 0.564083 -0.122970
C48   C     C_R   0.582098 0.797208 0.522193 0.136387
H35   H     H_    0.872108 0.885655 0.582483 0.160507
H36   H     H_    0.987176 0.039465 0.586565 0.174728
C49   C     C_R   0.434812 0.765309 0.485127 0.240176
C50   C     C_R   0.610209 0.192022 0.481874 0.119215
C51   C     C_R   0.541446 0.101482 0.481699 -0.022530
C52   C     C_R   0.629540 0.043058 0.508507 0.093402
C53   C     C_R   0.387881 0.067138 0.454107 -0.102582
C54   C     C_R   0.318980 0.978550 0.454143 -0.127732
C55   C     C_R   0.404250 0.917957 0.476837 -0.035355
C56   C     C_R   0.561155 0.950375 0.505086 0.093863
C57   C     C_R   0.341565 0.824332 0.465372 0.020009
C58   C     C_R   0.765456 0.221361 0.508412 -0.545073
H37   H     H_    0.199447 0.957642 0.433377 0.163076
H38   H     H_    0.318651 0.107797 0.431355 0.221275
H39   H     H_    0.821875 0.284676 0.498621 0.150228
N1    N     N_R   0.227375 0.870207 0.807018 0.240926
O25   O     O_R   0.112211 0.822013 0.832243 -0.345698
O26   O     O_R   0.342562 0.916877 0.851520 -0.392868
O27   O     O_3   0.097257 0.904946 0.706251 -0.695232
C59   C     C_3   0.113928 0.000509 0.727935 -0.299354
H40   H     H_    0.177774 0.033495 0.687609 0.216217
H41   H     H_    0.170669 0.027180 0.783439 0.160015
H42   H     H_    0.997382 0.020187 0.728302 0.198914
N2    N     N_R   0.014165 0.227587 0.399106 0.205571
O28   O     O_R   0.065201 0.295171 0.451846 -0.337827
O29   O     O_R   0.088705 0.159823 0.386511 -0.410466
N3    N     N_R   0.906116 0.120117 0.233834 0.304649
O30   O     O_R   0.840398 0.112529 0.169538 -0.384879
O31   O     O_R   0.044589 0.100360 0.240077 -0.305884
O32   O     O_3   0.861952 0.710495 0.747825 -0.622103
C60   C     C_3   0.744962 0.684470 0.793782 -0.061530
H43   H     H_    0.644653 0.636626 0.762396 0.188862
H44   H     H_    0.707119 0.743382 0.828494 0.148195
H45   H     H_    0.795143 0.648609 0.831939 0.104521
O33   O     O_3   0.815814 0.929753 0.289179 -0.662323
C61   C     C_3   0.931687 0.949296 0.346504 -0.275075
H46   H     H_    0.917325 0.011415 0.385030 0.189069
H47   H     H_    0.049387 0.960424 0.325334 0.220607
H48   H     H_    0.918481 0.897343 0.379963 0.164703
O34   O     O_3   0.548182 0.774355 0.283713 -0.665221
C62   C     C_3   0.528401 0.859846 0.323218 -0.299646
H49   H     H_    0.536855 0.910184 0.287598 0.239078
H50   H     H_    0.610366 0.885298 0.371787 0.122341
H51   H     H_    0.410857 0.854161 0.341569 0.159061
O35   O     O_3   0.727150 0.834040 0.179857 -0.620977
C63   C     C_3   0.829394 0.873882 0.133646 -0.051324
H52   H     H_    0.907038 0.826629 0.110327 0.064940
H53   H     H_    0.900408 0.939859 0.161395 0.207997
H54   H     H_    0.759071 0.886734 0.088015 0.189054
N4    N     N_R   0.393659 0.340221 0.302484 0.206617
O36   O     O_R   0.281375 0.304095 0.253075 -0.380155
O37   O     O_R   0.366584 0.392624 0.361771 -0.390577
O38   O     O_3   0.982729 0.320295 0.739606 -0.671670
C64   C     C_3   0.869409 0.267378 0.772822 -0.330367
H55   H     H_    0.848912 0.194189 0.746340 0.188223
H56   H     H_    0.761820 0.292986 0.769233 0.201773
H57   H     H_    0.897640 0.277887 0.832050 0.186931
O39   O     O_3   0.219772 0.339310 0.853021 -0.575518
C65   C     C_3   0.279472 0.318789 0.917097 -0.143901
H58   H     H_    0.331635 0.383040 0.954594 0.144103
H59   H     H_    0.374393 0.278226 0.906802 0.128212
H60   H     H_    0.184234 0.282857 0.944439 0.147592
N5    N     N_R   0.539276 0.072125 0.674907 0.246306
O40   O     O_R   0.659454 0.036152 0.687410 -0.422566
O41   O     O_R   0.426502 0.024999 0.629524 -0.431310
O42   O     O_3   0.032689 0.669282 0.250779 -0.595141
C66   C     C_3   0.997335 0.647515 0.174916 -0.193687
H61   H     H_    0.921543 0.579983 0.160786 0.202744
H62   H     H_    0.102429 0.646539 0.143801 0.126292
H63   H     H_    0.929124 0.695013 0.157280 0.138241
O43   O     O_3   0.815211 0.498346 0.643445 -0.594509
C67   C     C_3   0.831057 0.414581 0.600333 0.091000
H64   H     H_    0.838005 0.358465 0.629745 0.044322
H65   H     H_    0.921064 0.421172 0.561763 0.171823
H66   H     H_    0.730554 0.391908 0.563693 0.161155
O44   O     O_3   0.476180 0.663725 0.023617 -0.595200
C68   C     C_3   0.632469 0.652232 0.013874 -0.267246
H67   H     H_    0.642418 0.579721 0.994999 0.123655
H68   H     H_    0.707508 0.682083 0.064162 0.172016
H69   H     H_    0.678080 0.689180 0.971565 0.173080
O45   O     O_3   0.383607 0.673867 0.464766 -0.663561
C69   C     C_3   0.282268 0.648489 0.516146 0.142900
H70   H     H_    0.190991 0.690052 0.527948 0.089677
H71   H     H_    0.344166 0.649565 0.567963 0.114691
H72   H     H_    0.219238 0.580882 0.491989 0.210543
N6    N     N_R   0.403477 0.771138 0.688747 0.179208
O46   O     O_R   0.450467 0.740422 0.743661 -0.434849
O47   O     O_R   0.499057 0.830937 0.663677 -0.494790

loop_
_geom_bond_atom_site_label_1
_geom_bond_atom_site_label_2
_geom_bond_distance
_ccdc_geom_bond_type
N4    O37   1.293327 A    
C12   H16   1.110906 S    
C13   C14   1.550914 S    
C62   H49   1.109678 S    
C14   O39   1.412489 S    
O38   C64   1.408546 S    
C60   H43   1.109627 S    
C1    C10   1.564842 S    
P4    C27   1.897721 S    
C31   C42   1.436405 A    
C20   C24   1.419793 A    
C35   C36   1.438551 A    
O2    Ba2   2.859343 S    
C53   C54   1.382423 A    
P4    O13   1.586267 S    
P3    C57   1.885245 S    
C17   C18   1.416020 A    
C50   C51   1.408240 A    
O17   Ba2   2.823870 S    
C17   C29   1.422556 A    
P7    C50   1.883850 S    
Ba2   O21   2.919011 S    
N6    O47   1.297730 A    
C67   H66   1.064257 S    
C24   C35   1.420498 A    
O34   C62   1.409670 S    
C9    H13   1.106216 S    
N2    O29   1.299093 A    
C2    H3    1.110500 S    
C66   H62   1.103265 S    
C7    H9    1.096201 S    
C13   O38   1.411079 S    
C64   H55   1.111504 S    
C2    O42   1.427972 S    
O12   Ba2   2.877825 S    
C36   C37   1.428101 A    
C4    O15   1.412023 S    
C67   H65   1.091083 S    
P1    O1    1.595243 D    
C30   C38   1.414320 A    
O42   C66   1.415409 S    
P2    O20   1.604809 S    
C33   H29   1.070827 S    
C40   C41   1.398855 A    
O39   C65   1.412200 S    
C11   O22   1.409283 S    
O5    C6    1.398142 S    
C33   C34   1.383585 A    
N1    O25   1.299902 A    
C14   H22   1.076393 S    
C6    N2    1.444493 S    
P3    O11   1.759930 S    
C19   H32   1.078247 S    
O33   C61   1.408840 S    
P3    O9    1.544442 D    
C15   H24   1.109637 S    
O1    Ba1   2.877278 S    
O16   Ba2   3.050438 S    
O8    Ba1   2.823082 S    
C16   N5    1.444848 S    
C1    H2    1.099834 S    
P5    O18   1.546417 D    
C45   C48   1.423269 A    
Ba2   O20   2.870132 S    
C4    C5    1.569863 S    
C23   C28   1.424953 A    
C28   C33   1.394727 A    
P7    O21   1.610141 D    
C62   H50   1.108032 S    
C13   H20   1.109532 S    
O14   P8    1.757668 S    
P8    C25   1.883740 S    
C15   H23   1.113342 S    
C55   C56   1.422917 A    
C59   H42   1.107370 S    
O13   Ba2   3.063337 S    
P5    O17   1.773937 S    
C21   C22   1.403831 A    
C65   H60   1.112367 S    
C63   H53   1.110209 S    
C11   C12   1.536387 S    
C10   O34   1.413950 S    
P7    O22   1.771821 S    
N6    O46   1.299661 A    
O32   C60   1.413700 S    
C4    N6    1.431752 S    
P1    O5    1.763594 S    
O27   C59   1.415269 S    
C60   H45   1.106723 S    
N2    O28   1.290404 A    
C65   H59   1.114329 S    
H25   C16   1.106903 S    
C66   H63   1.103630 S    
P4    O12   1.595598 D    
C19   C21   1.398073 A    
C26   C27   1.403149 A    
O19   C13   1.416181 S    
P4    O15   1.797872 S    
C45   C56   1.420208 A    
O14   Ba2   2.842592 S    
C18   C32   1.399389 A    
C5    H7    1.114940 S    
C25   C26   1.408045 A    
C34   H34   1.070174 S    
C7    N3    1.462858 S    
N5    O40   1.298526 A    
O3    P6    1.749488 S    
C67   H64   1.115804 S    
P1    O2    1.586238 S    
C9    H12   1.103265 S    
C68   H68   1.107791 S    
C52   C56   1.426016 A    
C15   O24   1.412825 S    
C16   H26   1.095762 S    
C66   H61   1.104317 S    
C44   C52   1.424781 A    
O10   C8    1.405957 S    
C63   H54   1.109133 S    
C21   H27   1.079774 S    
P2    O10   1.772139 S    
Ba1   O13   2.858644 S    
C65   H58   1.106703 S    
P1    C42   1.902770 S    
C61   H48   1.099110 S    
P2    Ba1   3.524748 S    
P8    O24   1.751172 S    
C47   H36   1.079439 S    
C34   C35   1.409220 A    
C9    H14   1.102032 S    
C69   H72   1.086886 S    
C32   H28   1.074974 S    
O11   C2    1.413630 S    
C3    H4    1.103292 S    
C1    O35   1.417108 S    
P2    C48   1.886543 S    
H1    C10   1.111647 S    
C51   C52   1.423139 A    
C69   H70   1.100571 S    
N1    O26   1.301133 A    
C59   H41   1.113226 S    
P4    Ba2   3.499956 S    
C38   C40   1.418875 A    
C3    H5    1.106269 S    
C22   C23   1.419550 A    
C62   H51   1.086542 S    
C12   H17   1.111826 S    
C53   H38   1.071876 S    
N4    O36   1.300710 A    
O4    P6    1.547034 D    
C23   C24   1.442972 A    
C58   H39   1.059469 S    
C31   C32   1.400809 A    
O3    Ba1   2.843163 S    
Ba1   O20   3.051337 S    
P1    Ba1   3.499347 S    
C45   C46   1.408075 A    
C17   C20   1.436786 A    
C39   H30   1.065291 S    
N3    O31   1.300765 A    
C6    H8    1.108059 S    
C43   C44   1.417791 A    
C60   H44   1.107706 S    
C49   O45   1.363813 S    
P6    C40   1.881710 S    
O6    P6    1.756999 S    
C61   H47   1.110549 S    
C59   H40   1.104909 S    
C69   H71   1.097893 S    
C50   C58   1.396524 A    
C11   H15   1.098054 S    
C63   H52   1.109017 S    
C22   C25   1.427019 A    
C48   C49   1.405893 A    
C29   C36   1.429327 A    
O44   C68   1.416145 S    
C6    C7    1.548113 S    
P3    O8    1.750204 S    
O6    C10   1.409541 S    
O43   C67   1.403823 S    
P5    O19   1.771432 S    
O35   C63   1.411597 S    
C68   H69   1.109350 S    
C7    H10   1.100086 S    
P2    O7    1.582984 D    
Ba1   O16   2.870761 S    
C30   C31   1.426687 A    
C37   O44   1.388638 S    
C64   H56   1.080929 S    
P8    O23   1.542210 D    
O2    Ba1   3.062366 S    
C38   C39   1.392430 A    
C8    C9    1.541657 S    
O16   P7    1.793064 S    
C8    H11   1.096585 S    
C54   H37   1.075094 S    
C15   C16   1.542591 S    
C18   H33   1.078313 S    
C2    C3    1.563626 S    
C46   C47   1.395019 A    
C14   H21   1.113109 S    
C3    H19   1.110734 S    
O45   C69   1.396536 S    
C5    O27   1.411509 S    
C51   C53   1.397330 A    
C46   H35   1.074762 S    
C8    O32   1.420373 S    
C4    H6    1.098268 S    
C19   C20   1.414579 A    
P5    C43   1.898259 S    
Ba1   Ba2   4.792024 S    
C11   N4    1.435195 S    
C26   O43   1.369326 S    
C41   C42   1.407099 A    
C61   H46   1.102859 S    
C27   C28   1.429684 A    
C1    O33   1.421997 S    
C68   H67   1.112176 S    
C12   H18   1.103273 S    
C43   C58   1.403660 A    
C55   C57   1.411132 A    
O7    Ba1   2.918737 S    
C41   H31   1.079147 S    
C29   C30   1.442869 A    
C5    N1    1.468007 S    
C37   C39   1.397435 A    
C44   C47   1.401798 A    
N3    O30   1.300902 A    
C54   C55   1.399721 A    
N5    O41   1.298110 A    
C64   H57   1.110406 S    
C49   C57   1.404302 A    
