data_mof_unit_67047.cif
_audit_creation_date              2012-12-11T17:41:18-0500
_audit_creation_method            fapswitch 2.2
_symmetry_space_group_name_H-M    P1
_symmetry_Int_Tables_number       1
_space_group_crystal_system       triclinic
_cell_length_a                    8.191104
_cell_length_b                    12.693064
_cell_length_c                    14.198463
_cell_angle_alpha                 92.578809
_cell_angle_beta                  90.636846
_cell_angle_gamma                 98.531368
_cell_volume                      1458.16757714

loop_
_atom_site_label
_atom_site_type_symbol
_atom_type_description
_atom_site_fract_x
_atom_site_fract_y
_atom_site_fract_z
_atom_type_partial_charge
Ba1   Ba    Ba6+2 0.855630 0.555280 0.454520 1.634268
Ba2   Ba    Ba6+2 0.334200 0.444810 0.545490 1.641987
C1    C     C_3   0.606258 0.948451 0.177691 -0.417378
C2    C     C_R   0.183246 0.499699 0.196209 0.044496
C3    C     C_R   0.337690 0.552548 0.226402 -0.293982
C4    C     C_3   0.146456 0.805110 0.194712 0.363189
C5    C     C_R   0.450732 0.599608 0.162597 0.015818
C6    C     C_R   0.406120 0.602410 0.067658 -0.145851
C7    C     C_R   0.249549 0.553036 0.034828 -0.003842
C8    C     C_R   0.138344 0.497624 0.098308 -0.024817
C9    C     C_R   0.055288 0.500635 0.901812 -0.027257
C10   C     C_R   0.944577 0.444937 0.965332 0.004747
C11   C     C_R   0.010454 0.497480 0.803740 0.045311
C12   C     C_3   0.651247 0.857685 0.234375 0.342524
C13   C     C_R   0.859703 0.439648 0.773040 -0.282279
C14   C     C_R   0.747145 0.392173 0.836826 -0.012776
C15   C     C_R   0.789027 0.394228 0.932496 -0.153319
C16   C     C_3   0.133154 0.843180 0.095198 -0.367860
C17   C     C_R   0.205676 0.556549 0.938794 -0.038494
C18   C     C_R   0.765767 0.176547 0.533995 -0.257358
C19   C     C_R   0.428196 0.813665 0.462386 -0.283297
C20   C     C_R   0.406180 0.994880 0.426931 -0.107358
C21   C     C_R   0.340539 0.887585 0.423400 -0.005036
C22   C     C_R   0.577104 0.846499 0.511475 0.054966
C23   C     C_3   0.476626 0.314698 0.258942 0.309608
C24   C     C_R   0.644313 0.956894 0.518103 -0.055918
C25   C     C_R   0.557025 0.031477 0.474638 -0.052864
C26   C     C_R   0.620540 0.141266 0.482555 0.049753
C27   C     C_R   0.856727 0.104519 0.572606 -0.006356
C28   C     C_3   0.227616 0.764256 0.659376 0.279563
C29   C     C_R   0.795004 0.995642 0.566662 -0.084517
C30   C     C_3   0.214841 0.881177 0.677550 -0.351024
C31   C     C_3   0.969526 0.235875 0.342384 0.279865
C32   C     C_3   0.962455 0.117123 0.320327 -0.351619
C33   C     C_3   0.713833 0.669111 0.736799 0.307816
C34   C     C_3   0.452700 0.294491 0.153064 -0.404596
C35   C     C_3   0.733745 0.690995 0.842897 -0.394574
C36   C     C_3   0.609626 0.991145 0.776277 -0.307565
C37   C     C_3   0.013849 0.192873 0.802070 0.371081
C38   C     C_3   0.013897 0.157009 0.903001 -0.376538
C39   C     C_3   0.524978 0.153380 0.853503 0.527679
C40   C     C_3   0.450810 0.089373 0.935928 -0.350585
C41   C     C_R   0.987364 0.442646 0.061516 -0.035249
H1    H     H_    0.743684 0.890505 0.289963 0.080274
H2    H     H_    0.828592 0.644971 0.708708 0.012534
H3    H     H_    0.609593 0.603638 0.723027 0.080680
H4    H     H_    0.558807 0.008385 0.225262 0.103195
H5    H     H_    0.844366 0.751378 0.858933 0.124631
H6    H     H_    0.748219 0.616871 0.878355 0.073778
H7    H     H_    0.622822 0.721447 0.871107 0.115654
H8    H     H_    0.537654 0.821062 0.269549 -0.051165
H9    H     H_    0.509452 0.916919 0.124188 0.112575
H10   H     H_    0.361661 0.337987 0.288392 0.017327
H11   H     H_    0.580360 0.380839 0.271990 0.063634
H12   H     H_    0.270359 0.908776 0.747486 0.125329
H13   H     H_    0.342350 0.233592 0.138079 0.125178
H14   H     H_    0.434590 0.369033 0.119229 0.066993
H15   H     H_    0.563455 0.265783 0.122758 0.115049
H16   H     H_    0.716144 0.987354 0.140657 0.128073
H17   H     H_    0.173727 0.784325 0.043706 0.067079
H18   H     H_    0.086082 0.274211 0.801411 0.075666
H19   H     H_    0.884254 0.195651 0.779499 -0.070557
H20   H     H_    0.939345 0.204755 0.947839 0.063953
H21   H     H_    0.961251 0.071509 0.905653 0.110788
H22   H     H_    0.141447 0.169012 0.932272 0.140836
H23   H     H_    0.279245 0.928805 0.621853 0.085110
H24   H     H_    0.651878 0.189131 0.875940 -0.039743
H25   H     H_    0.540403 0.040902 0.964659 0.069969
H26   H     H_    0.335618 0.036258 0.913116 0.118182
H27   H     H_    0.063600 0.727936 0.199022 0.091707
H28   H     H_    0.421289 0.144492 0.993796 0.094307
H29   H     H_    0.373627 0.552517 0.299965 0.072146
H30   H     H_    0.494360 0.641635 0.019469 0.072413
H31   H     H_    0.699261 0.357782 0.981279 0.057228
H32   H     H_    0.824123 0.438412 0.699325 0.067639
H33   H     H_    0.901146 0.397235 0.106805 0.098067
H34   H     H_    0.083357 0.892341 0.678447 0.129538
H35   H     H_    0.291257 0.602597 0.893594 0.103555
H36   H     H_    0.334994 0.048656 0.394151 0.097713
H37   H     H_    0.865008 0.943150 0.601373 0.097166
H38   H     H_    0.813331 0.260866 0.539438 0.056311
H39   H     H_    0.275874 0.792879 0.207855 -0.069941
H40   H     H_    0.375685 0.730157 0.458738 0.069441
H41   H     H_    0.003377 0.852078 0.078340 0.152286
H42   H     H_    0.212454 0.921366 0.088803 0.108776
H43   H     H_    0.358215 0.755116 0.649622 0.002689
H44   H     H_    0.154134 0.736283 0.594425 0.070971
H45   H     H_    0.846008 0.252995 0.361506 -0.001302
H46   H     H_    0.423602 0.073445 0.729032 0.236899
H47   H     H_    0.600256 0.946848 0.707501 0.133205
H48   H     H_    0.545718 0.936038 0.827129 0.122345
H49   H     H_    0.741326 0.013173 0.796846 0.127684
H50   H     H_    0.057288 0.258926 0.402355 0.077560
H51   H     H_    0.878269 0.092171 0.259257 0.116519
H52   H     H_    0.916561 0.071363 0.381555 0.081353
H53   H     H_    0.087592 0.099162 0.303024 0.140365
N1    N     N_2   0.531168 0.085500 0.768841 -0.443605
O1    O     O_2   0.887370 0.460630 0.272300 -0.468485
O2    O     O_2   0.201183 0.112344 0.572364 -0.480191
O3    O     O_3   0.086041 0.121557 0.742854 -0.593189
O4    O     O_3   0.129410 0.451380 0.388510 -0.495146
O5    O     O_3   0.575400 0.626570 0.547370 -0.490667
O6    O     O_2   0.344320 0.238700 0.455090 -0.465894
O7    O     O_3   0.511925 0.221175 0.298486 -0.651327
O8    O     O_2   0.435249 0.432380 0.832580 -0.484820
O9    O     O_3   0.422540 0.230420 0.835692 -0.583805
O10   O     O_3   0.670210 0.653170 0.329170 -0.477394
O11   O     O_2   0.789417 0.592036 0.164826 -0.492344
O12   O     O_3   0.682815 0.762525 0.695909 -0.650169
O13   O     O_3   0.018572 0.289594 0.261422 -0.640464
O14   O     O_3   0.720804 0.786308 0.173615 -0.594063
O15   O     O_2   0.845380 0.761330 0.544970 -0.467969
O16   O     O_3   0.088930 0.704860 0.376040 -0.487980
O17   O     O_2   0.001846 0.888630 0.433766 -0.488377
O18   O     O_3   0.099400 0.881699 0.259374 -0.601477
O19   O     O_2   0.302330 0.539400 0.727760 -0.461958
O20   O     O_3   0.060300 0.548700 0.611500 -0.496799
O21   O     O_3   0.519500 0.346920 0.670840 -0.451717
O22   O     O_3   0.169863 0.710229 0.738780 -0.641556
O23   O     O_3   0.614310 0.373510 0.452640 -0.481034
O24   O     O_3   0.100780 0.295230 0.623970 -0.482526
P1    P     P_3+3 0.054400 0.427280 0.286870 0.969086
P2    P     P_3+3 0.668300 0.742890 0.573060 0.961954
P3    P     P_3+3 0.133110 0.842633 0.373861 0.946958
P4    P     P_3+3 0.135310 0.572810 0.713130 0.969409
P5    P     P_3+3 0.060824 0.156339 0.626191 0.962395
P6    P     P_3+3 0.658096 0.655536 0.206485 0.958236
P7    P     P_3+3 0.526331 0.242063 0.421090 0.934922
P8    P     P_3+3 0.535308 0.346820 0.794277 0.967973

loop_
_geom_bond_atom_site_label_1
_geom_bond_atom_site_label_2
_ccdc_geom_bond_type
O9    P8    S    
C13   H32   S    
C4    H39   S    
C39   C40   S    
Ba2   O21   S    
C29   H37   S    
C39   H24   S    
C9    C17   A    
C24   C25   A    
C38   H20   S    
O3    P5    S    
C12   H1    S    
C33   C35   S    
C31   H45   S    
C32   H53   S    
C20   H36   S    
C3    H29   S    
C34   H15   S    
Ba1   O15   S    
C28   O22   S    
Ba2   O5    S    
C13   C14   A    
C36   H49   S    
O1    P1    D    
Ba1   Ba2   S    
Ba1   P1    S    
C6    H30   S    
C30   H34   S    
Ba2   O19   S    
C7    C17   A    
C19   H40   S    
C6    C7    A    
C10   C15   A    
C16   H41   S    
C28   H43   S    
C7    C8    A    
C30   H12   S    
C33   O12   S    
C11   P4    S    
C24   C29   A    
C18   H38   S    
C40   H25   S    
Ba1   O16   S    
C36   N1    S    
C37   H18   S    
Ba2   O20   S    
O2    P5    D    
C18   C27   A    
C12   O14   S    
C4    C16   S    
C16   H42   S    
C39   O9    S    
C5    C6    A    
C23   H11   S    
O15   P2    D    
C34   H14   S    
C37   C38   S    
C3    C5    A    
Ba2   O23   S    
O12   P2    S    
O8    P8    D    
C18   C26   A    
Ba2   O4    S    
C36   H48   S    
C40   H26   S    
H46   N1    S    
Ba1   O23   S    
C17   H35   S    
Ba1   P2    S    
C34   H13   S    
C35   H6    S    
C12   H8    S    
O7    P7    S    
C9    C10   A    
C31   C32   S    
C2    P1    S    
Ba1   O20   S    
C32   H52   S    
C35   H5    S    
C14   P8    S    
C1    C12   S    
Ba1   O10   S    
O22   P4    S    
C16   H17   S    
C38   H22   S    
C11   C13   A    
O14   P6    S    
C15   H31   S    
C39   N1    S    
C2    C8    A    
O5    P2    S    
C33   H2    S    
Ba1   O4    S    
C30   H23   S    
Ba2   O24   S    
C41   H33   S    
C4    H27   S    
C37   H19   S    
O6    P7    D    
O18   P3    S    
C8    C41   A    
C32   H51   S    
C23   H10   S    
C2    C3    A    
C31   H50   S    
Ba1   O1    S    
C1    H9    S    
O23   P7    S    
C23   O7    S    
C21   P3    S    
C10   C41   A    
C36   H47   S    
C20   C25   A    
O4    P1    S    
C38   H21   S    
O19   P4    D    
C19   C21   A    
O17   P3    D    
O24   P5    S    
C27   C29   A    
O21   P8    S    
O13   P1    S    
C28   C30   S    
C35   H7    S    
C9    C11   A    
C22   C24   A    
C37   O3    S    
C14   C15   A    
O16   P3    S    
Ba2   O6    S    
C1    H4    S    
C40   H28   S    
C22   P2    S    
O11   P6    D    
C4    O18   S    
C23   C34   S    
O10   P6    S    
Ba2   P4    S    
C19   C22   A    
C25   C26   A    
C20   C21   A    
C31   O13   S    
C5    P6    S    
C28   H44   S    
C27   P5    S    
C33   H3    S    
O20   P4    S    
Ba1   O5    S    
C26   P7    S    
C1    H16   S    
