data_mof_unit_18430.cif
_audit_creation_date              2012-12-10T18:33:46-0500
_audit_creation_method            fapswitch 2.2
_symmetry_space_group_name_H-M    P1
_symmetry_Int_Tables_number       1
_space_group_crystal_system       triclinic
_cell_length_a                    10.496933
_cell_length_b                    15.011217
_cell_length_c                    15.423103
_cell_angle_alpha                 82.217055
_cell_angle_beta                  89.72554
_cell_angle_gamma                 104.583445
_cell_volume                      2328.36455726

loop_
_atom_site_label
_atom_site_type_symbol
_atom_type_description
_atom_site_fract_x
_atom_site_fract_y
_atom_site_fract_z
_atom_type_partial_charge
C1    C     C_R   0.484532 0.441935 0.662326 0.858962
C2    C     C_R   0.597425 0.489269 0.044423 -0.003709
C3    C     C_R   0.586639 0.394510 0.075541 -0.318017
C4    C     C_R   0.645119 0.614293 0.921933 -0.306996
C5    C     C_R   0.560011 0.326956 0.019272 0.496031
C6    C     C_R   0.667103 0.680936 0.978978 0.494349
C7    C     C_R   0.695073 0.841843 0.639063 0.452341
C8    C     C_R   0.305820 0.158312 0.360544 0.416042
C9    C     C_R   0.660097 0.752212 0.616682 -0.111012
C10   C     C_R   0.339487 0.247618 0.383587 -0.116177
C11   C     C_R   0.517315 0.794666 0.509061 -0.088497
C12   C     C_R   0.522180 0.558223 0.337675 0.856808
C13   C     C_R   0.484129 0.205711 0.490116 -0.087244
C14   C     C_R   0.544981 0.886202 0.529490 -0.072685
C15   C     C_R   0.457687 0.114473 0.468985 -0.068148
C16   C     C_R   0.742610 0.500945 0.500201 0.857916
C17   C     C_R   0.257374 0.499054 0.499801 0.861186
C18   C     C_R   0.635285 0.908886 0.596377 0.043943
C19   C     C_R   0.367189 0.091711 0.402227 0.052904
C20   C     C_R   0.485916 0.955015 0.486429 0.123390
C21   C     C_R   0.517684 0.045916 0.511488 0.120557
C22   C     C_R   0.608257 0.065282 0.578182 -0.265586
C23   C     C_R   0.532308 0.474233 0.811448 -0.229102
C24   C     C_R   0.396071 0.935848 0.419290 -0.261470
C25   C     C_R   0.665564 0.998223 0.619437 -0.166822
C26   C     C_R   0.338258 0.002760 0.378339 -0.184189
C27   C     C_3   0.931628 0.431321 0.560371 -0.176976
C28   C     C_3   0.068287 0.568675 0.439646 -0.177652
C29   C     C_3   0.046866 0.512016 0.579657 -0.172746
C30   C     C_3   0.953051 0.487980 0.420357 -0.172376
C31   C     C_3   0.121582 0.497814 0.499500 0.024954
C32   C     C_3   0.878356 0.502182 0.500515 0.026739
C33   C     C_3   0.008996 0.417084 0.480202 -0.139628
C34   C     C_R   0.556826 0.528444 0.188539 -0.226182
C35   C     C_3   0.990922 0.582910 0.519814 -0.139398
C36   C     C_R   0.496761 0.408262 0.754656 -0.061225
C37   C     C_R   0.556732 0.593230 0.245194 -0.060587
C38   C     C_R   0.508302 0.287204 0.872785 -0.163042
C39   C     C_R   0.637786 0.717896 0.126055 -0.162788
C40   C     C_R   0.485993 0.314371 0.785208 -0.225333
C41   C     C_R   0.599085 0.688410 0.214106 -0.221605
C42   C     C_3   0.908450 0.865492 0.677989 -0.378862
C43   C     C_3   0.090893 0.128286 0.325276 -0.341293
C44   C     C_3   0.436867 0.197378 0.104254 -0.261203
C45   C     C_R   0.562968 0.449678 0.897700 0.053806
C46   C     C_3   0.840369 0.800329 0.926288 -0.261728
C47   C     C_R   0.600326 0.556076 0.101236 0.053831
C48   C     C_R   0.544719 0.354023 0.930089 0.055470
C49   C     C_R   0.636118 0.652367 0.068574 0.044563
C50   C     C_R   0.602378 0.518092 0.953630 -0.008174
H1    H     H_    0.089696 0.521446 0.644498 0.137233
H2    H     H_    0.128628 0.624312 0.390387 0.130822
H3    H     H_    0.020360 0.349557 0.464032 0.139089
H4    H     H_    0.979529 0.650427 0.535992 0.138132
H5    H     H_    0.517629 0.455700 0.212728 0.160612
H6    H     H_    0.532124 0.545154 0.787948 0.164665
H7    H     H_    0.601661 0.739803 0.257484 0.160590
H8    H     H_    0.460252 0.262206 0.741741 0.160146
H9    H     H_    0.496034 0.213935 0.895522 0.184389
H10   H     H_    0.667284 0.791831 0.103004 0.183794
H11   H     H_    0.602304 0.371742 0.143219 0.161536
H12   H     H_    0.910149 0.478571 0.355528 0.138030
H13   H     H_    0.665249 0.639746 0.853061 0.170485
H14   H     H_    0.734495 0.017088 0.670020 0.193217
H15   H     H_    0.269740 0.984024 0.327502 0.188439
H16   H     H_    0.939213 0.914855 0.616397 0.166441
H17   H     H_    0.918429 0.795185 0.669314 0.160219
H18   H     H_    0.977082 0.890848 0.728962 0.194661
H19   H     H_    0.076727 0.195557 0.340598 0.161617
H20   H     H_    0.064099 0.073923 0.383760 0.162224
H21   H     H_    0.022113 0.105890 0.273406 0.203662
H22   H     H_    0.347775 0.207870 0.069592 0.161749
H23   H     H_    0.550653 0.230054 0.539546 0.142363
H24   H     H_    0.444197 0.227053 0.166829 0.182541
H25   H     H_    0.424253 0.121348 0.121002 0.201238
H26   H     H_    0.867220 0.763171 0.874047 0.171958
H27   H     H_    0.896249 0.788176 0.986052 0.136118
H28   H     H_    0.870394 0.875840 0.901701 0.209354
H29   H     H_    0.450827 0.770347 0.459609 0.143052
H30   H     H_    0.297028 0.301021 0.350683 0.152237
H31   H     H_    0.701059 0.698381 0.650335 0.145059
H32   H     H_    0.637879 0.131958 0.600642 0.138139
H33   H     H_    0.367420 0.869442 0.396238 0.137240
H34   H     H_    0.871230 0.375713 0.609634 0.133751
N1    N     N_R   0.574200 0.731700 0.552740 -0.123109
N2    N     N_R   0.425800 0.268300 0.447260 -0.122384
O1    O     O_R   0.462600 0.383110 0.605620 -0.614674
O2    O     O_3   0.220628 0.137995 0.293614 -0.632674
O3    O     O_3   0.552558 0.234771 0.050763 -0.623682
O4    O     O_3   0.703482 0.774377 0.945481 -0.595389
O5    O     O_R   0.537400 0.616890 0.394380 -0.615857
O6    O     O_R   0.510210 0.531900 0.639510 -0.618730
O7    O     O_R   0.489790 0.468100 0.360490 -0.620455
O8    O     O_R   0.662240 0.425610 0.483080 -0.616489
O9    O     O_R   0.337760 0.574390 0.516920 -0.613992
O10   O     O_R   0.709860 0.574400 0.516970 -0.624875
O11   O     O_R   0.290140 0.425600 0.483030 -0.622619
O12   O     O_3   0.779288 0.862222 0.706538 -0.600729
Zn1   Zn    Zn3+2 0.468210 0.400660 0.477370 0.933002
Zn2   Zn    Zn3+2 0.531790 0.599340 0.522630 0.934514

loop_
_geom_bond_atom_site_label_1
_geom_bond_atom_site_label_2
_ccdc_geom_bond_type
C1    O1    A    
C38   C40   A    
C23   C45   A    
C7    O12   S    
C27   C29   S    
C34   C37   A    
C14   C18   A    
C12   O5    A    
C34   C47   A    
C46   H26   S    
C23   H6    S    
C39   C41   A    
C27   C33   S    
C15   C19   A    
C4    H13   S    
C43   O2    S    
C22   H32   S    
C27   H34   S    
C24   H33   S    
C24   C26   A    
C42   O12   S    
C11   C14   A    
C12   C37   S    
C19   C26   A    
C2    C50   A    
C9    N1    A    
C20   C24   A    
C28   C35   S    
C22   C25   A    
C13   N2    A    
C31   C33   S    
C17   O9    A    
O5    Zn2   S    
O7    Zn1   S    
C38   C48   A    
C34   H5    S    
C43   H19   S    
C21   C22   A    
C35   H4    S    
C42   H18   S    
C18   C25   A    
O11   Zn1   S    
O1    Zn1   S    
C3    H11   S    
C33   H3    S    
C5    C48   A    
C16   O10   A    
C8    C19   A    
C40   H8    S    
C32   C35   S    
C14   C20   A    
C36   C40   A    
C47   C49   A    
C46   H28   S    
C10   H30   S    
O9    Zn2   S    
C6    O4    S    
C4    C50   A    
C8    O2    S    
C25   H14   S    
C44   H25   S    
C7    C18   A    
C44   H24   S    
N2    Zn1   S    
C11   H29   S    
C4    C6    A    
C39   C49   A    
C13   H23   S    
C1    O6    A    
C13   C15   A    
C42   H17   S    
C17   C31   S    
C12   O7    A    
C16   C32   S    
O6    Zn2   S    
C29   H1    S    
C45   C48   A    
C7    C9    A    
C10   N2    A    
C43   H21   S    
C30   C33   S    
C27   C32   S    
C26   H15   S    
C28   C31   S    
C3    C5    A    
C46   H27   S    
C46   O4    S    
C2    C47   A    
C43   H20   S    
C29   C35   S    
C16   O8    A    
C30   H12   S    
C2    C3    A    
C41   H7    S    
C29   C31   S    
N1    Zn2   S    
C30   C32   S    
C28   H2    S    
O8    Zn1   S    
C11   N1    A    
C39   H10   S    
O10   Zn2   S    
C28   C30   S    
C44   H22   S    
C6    C49   A    
C37   C41   A    
C38   H9    S    
C15   C21   A    
C20   C21   A    
C8    C10   A    
C23   C36   A    
C42   H16   S    
C45   C50   A    
C17   O11   A    
C5    O3    S    
C44   O3    S    
C1    C36   S    
C9    H31   S    
