data_mof_unit_23747.cif
_audit_creation_date              2012-10-26T21:23:29-0400
_audit_creation_method            fapswitch 2.2
_symmetry_space_group_name_H-M    P1
_symmetry_Int_Tables_number       1
_space_group_crystal_system       triclinic
_cell_length_a                    27.791675
_cell_length_b                    10.894362
_cell_length_c                    9.790217
_cell_angle_alpha                 90.483681
_cell_angle_beta                  89.639614
_cell_angle_gamma                 91.610929
_cell_volume                      2962.87770338

loop_
_atom_site_label
_atom_site_type_symbol
_atom_type_description
_atom_site_fract_x
_atom_site_fract_y
_atom_site_fract_z
_atom_type_partial_charge
C1    C     C_R   0.500091 0.265582 0.499631 0.556164
C2    C     C_R   0.972730 0.383277 0.496361 0.022932
C3    C     C_R   0.976031 0.609310 0.511173 0.020449
C4    C     C_R   0.407588 0.499551 0.500402 0.555395
C5    C     C_R   0.949108 0.496990 0.502200 0.041881
C6    C     C_R   0.944443 0.274613 0.476019 -0.139024
C7    C     C_R   0.894537 0.277153 0.470566 -0.106972
C8    C     C_R   0.870865 0.388010 0.484167 0.024521
C9    C     C_R   0.898013 0.498341 0.499317 -0.027525
C10   C     C_R   0.873963 0.609990 0.511822 0.024331
C11   C     C_R   0.823439 0.609066 0.510475 0.401878
C12   C     C_R   0.278860 0.480927 0.626275 -0.044402
C13   C     C_R   0.820416 0.391341 0.482244 0.401139
C14   C     C_R   0.721315 0.512959 0.620274 -0.053387
C15   C     C_R   0.671140 0.512383 0.621447 -0.130901
C16   C     C_R   0.501519 0.734524 0.500762 0.555002
C17   C     C_R   0.670887 0.490378 0.374536 -0.127689
C18   C     C_R   0.721070 0.490338 0.373802 -0.054600
C19   C     C_R   0.746360 0.501650 0.496594 0.241760
C20   C     C_R   0.023634 0.381797 0.509580 -0.022667
C21   C     C_R   0.050760 0.493551 0.508799 0.027249
C22   C     C_R   0.027122 0.607694 0.505606 0.018874
C23   C     C_R   0.253615 0.493946 0.504339 0.234802
C24   C     C_R   0.048081 0.271711 0.528010 -0.132746
C25   C     C_R   0.105320 0.714221 0.494251 -0.067406
C26   C     C_R   0.950715 0.719632 0.526291 -0.138901
C27   C     C_R   0.900715 0.719684 0.526543 -0.108043
C28   C     C_R   0.592411 0.500337 0.499603 0.539523
C29   C     C_R   0.055526 0.716756 0.495543 -0.118731
C30   C     C_2   0.513075 0.933630 0.392506 -0.128338
C31   C     C_2   0.506034 0.867026 0.505428 -0.109710
C32   C     C_2   0.517046 0.067892 0.397710 -0.108913
C33   C     C_2   0.498112 0.133092 0.500226 -0.081364
C34   C     C_R   0.101931 0.491417 0.510494 -0.064199
C35   C     C_2   0.502331 0.403662 0.922408 0.090504
C36   C     C_2   0.487208 0.408058 0.069140 0.348457
C37   C     C_R   0.177237 0.382748 0.512496 0.426981
C38   C     C_R   0.179151 0.601428 0.501743 0.405745
C39   C     C_R   0.278700 0.508653 0.380918 -0.042914
C40   C     C_R   0.328905 0.510262 0.379326 -0.106941
C41   C     C_R   0.329036 0.483142 0.625142 -0.123285
C42   C     C_R   0.126160 0.378595 0.519949 0.008919
C43   C     C_R   0.098182 0.268072 0.536232 0.231063
C44   C     C_R   0.128879 0.602995 0.502438 0.020101
C45   C     C_R   0.354559 0.497824 0.501584 0.014153
C46   C     C_R   0.645431 0.501031 0.498515 0.004082
Cu1   Cu    Cu3+1 0.500010 0.500020 0.638630 1.039397
Cu2   Cu    Cu3+1 0.499990 0.499980 0.361370 1.169714
H1    H     H_    0.347765 0.472865 0.720860 0.159603
H2    H     H_    0.505788 0.909136 0.606125 0.124588
H3    H     H_    0.535000 0.114024 0.312969 0.188294
H4    H     H_    0.259524 0.469512 0.721901 0.143955
H5    H     H_    0.479948 0.090261 0.586475 0.117754
H6    H     H_    0.512227 0.316762 0.877031 0.155729
H7    H     H_    0.478428 0.566781 0.885862 0.259418
H8    H     H_    0.652562 0.521055 0.718468 0.167890
H9    H     H_    0.740797 0.521594 0.715468 0.135199
H10   H     H_    0.874546 0.191325 0.455594 0.171507
H11   H     H_    0.959868 0.185937 0.459995 0.116926
H12   H     H_    0.259236 0.518656 0.286378 0.141102
H13   H     H_    0.028360 0.186499 0.542311 0.148982
H14   H     H_    0.347559 0.521721 0.282628 0.163850
H15   H     H_    0.392130 0.181566 0.003568 0.384549
H16   H     H_    0.594121 0.741997 0.179368 0.350965
H17   H     H_    0.068930 0.044887 0.713251 0.347411
H18   H     H_    0.125369 0.800622 0.486048 0.230278
H19   H     H_    0.968462 0.807776 0.541770 0.120411
H20   H     H_    0.652097 0.481501 0.278226 0.170249
H21   H     H_    0.883085 0.806608 0.538496 0.169094
H22   H     H_    0.740359 0.481610 0.277924 0.135010
H23   H     H_    0.040375 0.805999 0.484519 0.156918
H24   H     H_    0.517037 0.889304 0.293439 0.206864
N1    N     N_R   0.202046 0.492680 0.506196 -0.414119
N2    N     N_R   0.797878 0.500736 0.495966 -0.400214
N3    N     N_2   0.499480 0.498660 0.846910 -0.312637
N4    N     N_2   0.499460 0.498630 0.153040 -0.089000
O1    O     O_R   0.500010 0.321960 0.617040 -0.517843
O2    O     O_R   0.569740 0.500000 0.617090 -0.491624
O3    O     O_R   0.569730 0.499960 0.382940 -0.456415
O4    O     O_2   0.202384 0.279054 0.507465 -0.370527
O5    O     O_2   0.476498 0.171312 0.132425 -0.315903
O6    O     O_2   0.417783 0.307301 0.237993 -0.253262
O7    O     O_3   0.410277 0.258280 0.980609 -0.542052
O8    O     O_2   0.578156 0.557188 0.000771 -0.308426
O9    O     O_2   0.516010 0.712301 0.025729 -0.304650
O10   O     O_3   0.573097 0.679060 0.223950 -0.486063
O11   O     O_2   0.147968 0.073576 0.451220 -0.182186
O12   O     O_2   0.794046 0.286138 0.467928 -0.481787
O13   O     O_2   0.157448 0.135699 0.690989 -0.214512
O14   O     O_3   0.078754 0.020344 0.619717 -0.564193
O15   O     O_2   0.205156 0.707871 0.496264 -0.446522
O16   O     O_2   0.800005 0.715448 0.523073 -0.480119
O17   O     O_R   0.499990 0.321920 0.382900 -0.453877
O18   O     O_R   0.430270 0.500040 0.617060 -0.512472
O19   O     O_R   0.430260 0.500000 0.382910 -0.471490
O20   O     O_R   0.500010 0.678080 0.617100 -0.491486
O21   O     O_R   0.499990 0.678040 0.382960 -0.441565
S1    S     S_3+6 0.447624 0.284103 0.112984 0.014222
S2    S     S_3+6 0.541747 0.611518 0.096490 0.079406
S3    S     S_3+6 0.122406 0.122704 0.574982 0.056414

loop_
_geom_bond_atom_site_label_1
_geom_bond_atom_site_label_2
_ccdc_geom_bond_type
C10   C27   A    
C18   H22   S    
C24   H13   S    
Cu2   O19   S    
C1    O1    A    
Cu2   N4    S    
C35   C36   S    
C34   C42   A    
C1    C33   S    
C7    C8    A    
C16   C31   S    
C38   C44   A    
Cu2   O21   S    
C12   C23   A    
C28   C46   S    
C26   C27   A    
C8    C13   A    
C26   H19   S    
Cu2   O3    S    
C22   C29   A    
C30   C31   D    
C16   O21   A    
O5    S1    D    
C40   H14   S    
C18   C19   A    
O14   S3    S    
C37   C42   A    
C28   O3    A    
C36   N4    D    
C11   O16   S    
C41   H1    S    
C20   C24   A    
C8    C9    A    
O7    S1    S    
Cu1   O20   S    
C28   O2    A    
C9    C10   A    
C7    H10   S    
C27   H21   S    
H7    N3    S    
C21   C22   A    
C35   H6    S    
C25   C29   A    
O6    S1    D    
C2    C6    A    
C23   N1    S    
C14   C19   A    
C25   C44   A    
H16   O10   S    
C12   H4    S    
C4    C45   S    
C19   N2    S    
C33   H5    S    
H17   O14   S    
C37   O4    S    
C16   O20   A    
Cu2   O17   S    
O13   S3    D    
C2    C20   A    
C34   C44   A    
C43   S3    S    
C39   C40   A    
C21   C34   A    
C38   O15   S    
H15   O7    S    
N4    S2    S    
C32   H3    S    
C5    C9    A    
C12   C41   A    
O9    S2    D    
C4    O19   A    
Cu1   Cu2   S    
C35   N3    D    
C17   C18   A    
C17   C46   A    
O10   S2    S    
C4    O18   A    
C2    C5    A    
C42   C43   A    
Cu1   O1    S    
C31   H2    S    
O11   S3    D    
C14   H9    S    
C37   N1    A    
C17   H20   S    
O8    S2    D    
C6    H11   S    
C3    C26   A    
C25   H18   S    
C3    C5    A    
C11   N2    A    
C30   H24   S    
C6    C7    A    
C15   C46   A    
C40   C45   A    
C32   C33   D    
Cu1   N3    S    
C15   H8    S    
C30   C32   S    
C23   C39   A    
C39   H12   S    
C13   O12   S    
Cu1   O18   S    
C10   C11   A    
C20   C21   A    
C1    O17   A    
C24   C43   A    
C41   C45   A    
C14   C15   A    
C3    C22   A    
C36   S1    S    
Cu1   O2    S    
C13   N2    A    
C29   H23   S    
C38   N1    A    
