data_mof_unit_45950.cif
_audit_creation_date              2012-12-10T19:09:22-0500
_audit_creation_method            fapswitch 2.2
_symmetry_space_group_name_H-M    P1
_symmetry_Int_Tables_number       1
_space_group_crystal_system       triclinic
_cell_length_a                    14.910795
_cell_length_b                    15.377218
_cell_length_c                    9.680774
_cell_angle_alpha                 90.06942
_cell_angle_beta                  89.86782
_cell_angle_gamma                 90.011254
_cell_volume                      2219.66364845

loop_
_atom_site_label
_atom_site_type_symbol
_atom_type_description
_atom_site_fract_x
_atom_site_fract_y
_atom_site_fract_z
_atom_type_partial_charge
C1    C     C_R   0.121837 0.379186 0.499553 0.888980
C2    C     C_R   0.878974 0.621221 0.499957 0.911665
C3    C     C_R   0.379363 0.878422 0.500166 0.893126
C4    C     C_R   0.378975 0.121221 0.499957 0.911621
C5    C     C_3   0.804787 0.268596 0.649434 0.282676
C6    C     C_3   0.837038 0.239855 0.387487 0.275812
C7    C     C_3   0.802899 0.728654 0.349467 0.276782
C8    C     C_3   0.837330 0.760995 0.609329 0.285402
C9    C     C_3   0.304778 0.768605 0.649438 0.282659
C10   C     C_3   0.337040 0.739852 0.387497 0.275833
C11   C     C_3   0.302897 0.228655 0.349467 0.276778
C12   C     C_R   0.122455 0.620216 0.500143 0.900763
C13   C     C_3   0.337330 0.260994 0.609330 0.285383
C14   C     C_3   0.238656 0.692010 0.646641 -0.071770
C15   C     C_3   0.263391 0.669196 0.382705 -0.045526
C16   C     C_3   0.231485 0.300699 0.348485 -0.073711
C17   C     C_3   0.267548 0.335245 0.605677 -0.060345
C18   C     C_3   0.738675 0.191993 0.646629 -0.071774
C19   C     C_3   0.763382 0.169206 0.382680 -0.045500
C20   C     C_3   0.731469 0.800683 0.348476 -0.073733
C21   C     C_3   0.767559 0.835255 0.605650 -0.060407
C22   C     C_3   0.720728 0.347735 0.462905 -0.606292
C23   C     C_R   0.621837 0.879186 0.499553 0.888989
C24   C     C_3   0.720567 0.652103 0.541411 -0.609795
C25   C     C_3   0.220728 0.847735 0.462891 -0.606317
C26   C     C_3   0.220568 0.152103 0.541410 -0.609755
C27   C     C_3   0.813448 0.308844 0.500769 -0.016391
C28   C     C_3   0.812783 0.690562 0.499287 -0.009533
C29   C     C_3   0.313446 0.808846 0.500770 -0.016376
C30   C     C_3   0.312783 0.190562 0.499287 -0.009563
C31   C     C_3   0.193231 0.686366 0.500610 0.022951
C32   C     C_3   0.192487 0.312899 0.498182 0.025604
C33   C     C_3   0.693234 0.186364 0.500608 0.022971
C34   C     C_R   0.622458 0.120213 0.500143 0.900750
C35   C     C_3   0.692486 0.812899 0.498179 0.025596
C36   C     C_3   0.148805 0.775942 0.470545 -0.509603
C37   C     C_3   0.149651 0.224940 0.542888 -0.516330
C38   C     C_3   0.648804 0.275942 0.470576 -0.509622
C39   C     C_3   0.649655 0.724944 0.542918 -0.516307
C40   C     C_3   0.032382 0.416419 0.081052 -0.246116
C41   C     C_3   0.032598 0.416495 0.918439 -0.229111
C42   C     C_3   0.056350 0.570196 0.918666 -0.239683
C43   C     C_3   0.056484 0.570099 0.081250 -0.226553
C44   C     C_3   0.532265 0.916375 0.081053 -0.246133
C45   C     C_3   0.907206 0.513356 0.081724 -0.233536
C46   C     C_3   0.532482 0.916451 0.918439 -0.229115
C47   C     C_3   0.556448 0.070120 0.918666 -0.239652
C48   C     C_3   0.556582 0.070022 0.081250 -0.226557
C49   C     C_3   0.907179 0.513178 0.918909 -0.235580
C50   C     C_3   0.407226 0.013477 0.081724 -0.233543
C51   C     C_3   0.407198 0.013298 0.918909 -0.235609
C52   C     C_R   0.879364 0.378422 0.500166 0.893097
H1    H     H_    0.773841 0.319506 0.716450 0.117500
H2    H     H_    0.227994 0.675968 0.281647 0.094258
H3    H     H_    0.175207 0.277144 0.282292 0.113216
H4    H     H_    0.235931 0.338829 0.710276 0.097034
H5    H     H_    0.685226 0.206951 0.724070 0.114623
H6    H     H_    0.727976 0.175998 0.281633 0.094260
H7    H     H_    0.675187 0.777103 0.282314 0.113214
H8    H     H_    0.735953 0.838867 0.710253 0.097054
H9    H     H_    0.702733 0.401655 0.534740 0.193391
H10   H     H_    0.722260 0.375707 0.356865 0.201699
H11   H     H_    0.700068 0.600162 0.467658 0.193415
H12   H     H_    0.835978 0.272462 0.284104 0.074268
H13   H     H_    0.724195 0.621580 0.645520 0.201691
H14   H     H_    0.202727 0.901654 0.534726 0.193389
H15   H     H_    0.222267 0.875711 0.356853 0.201707
H16   H     H_    0.200074 0.100152 0.467671 0.193412
H17   H     H_    0.224193 0.121592 0.645528 0.201688
H18   H     H_    0.100663 0.792518 0.554019 0.216720
H19   H     H_    0.110627 0.773996 0.371850 0.214504
H20   H     H_    0.094593 0.206851 0.471689 0.217031
H21   H     H_    0.120071 0.230453 0.648273 0.207202
H22   H     H_    0.600679 0.292513 0.554074 0.216683
H23   H     H_    0.776322 0.675411 0.282791 0.111825
H24   H     H_    0.610608 0.274004 0.371897 0.214498
H25   H     H_    0.594579 0.706855 0.471751 0.217056
H26   H     H_    0.620100 0.730464 0.648317 0.207199
H27   H     H_    0.990500 0.361735 0.119899 0.143417
H28   H     H_    0.991013 0.361717 0.879448 0.194390
H29   H     H_    0.032808 0.634432 0.880337 0.141951
H30   H     H_    0.033153 0.634348 0.120236 0.175434
H31   H     H_    0.490305 0.861746 0.119899 0.143423
H32   H     H_    0.490820 0.861728 0.879450 0.194472
H33   H     H_    0.532995 0.134387 0.880341 0.141958
H34   H     H_    0.831692 0.730676 0.714169 0.071267
H35   H     H_    0.533341 0.134302 0.120233 0.175349
H36   H     H_    0.101644 0.404156 0.118373 0.157372
H37   H     H_    0.102038 0.404462 0.880886 0.141320
H38   H     H_    0.126236 0.562133 0.880336 0.153594
H39   H     H_    0.126416 0.561840 0.118900 0.138858
H40   H     H_    0.601509 0.904019 0.118375 0.157371
H41   H     H_    0.601904 0.904325 0.880886 0.141338
H42   H     H_    0.626322 0.061966 0.880331 0.153579
H43   H     H_    0.626502 0.061672 0.118903 0.138862
H44   H     H_    0.861451 0.461711 0.120640 0.138041
H45   H     H_    0.273839 0.819521 0.716449 0.117510
H46   H     H_    0.861631 0.461253 0.880474 0.151173
H47   H     H_    0.879217 0.575779 0.881050 0.143778
H48   H     H_    0.879512 0.576157 0.119546 0.169554
H49   H     H_    0.361398 0.961893 0.120643 0.138017
H50   H     H_    0.361578 0.961433 0.880473 0.151108
H51   H     H_    0.379323 0.075936 0.881053 0.143807
H52   H     H_    0.379620 0.076315 0.119541 0.169686
H53   H     H_    0.927925 0.221332 0.646499 0.379178
H54   H     H_    0.965530 0.238300 0.352498 0.316261
H55   H     H_    0.918030 0.791579 0.351443 0.385151
H56   H     H_    0.335975 0.772453 0.284109 0.074264
H57   H     H_    0.964584 0.757801 0.654037 0.319591
H58   H     H_    0.427905 0.721311 0.646512 0.379196
H59   H     H_    0.465532 0.738307 0.352499 0.316262
H60   H     H_    0.418058 0.291531 0.351427 0.385134
H61   H     H_    0.464589 0.257813 0.654001 0.319587
H62   H     H_    0.340676 0.600055 0.637265 0.256402
H63   H     H_    0.293876 0.612392 0.794418 0.194710
H64   H     H_    0.249943 0.537579 0.366976 0.189548
H65   H     H_    0.345458 0.574384 0.303439 0.214860
H66   H     H_    0.324480 0.401538 0.327724 0.241015
H67   H     H_    0.276302 0.175414 0.282800 0.111825
H68   H     H_    0.273939 0.371537 0.180329 0.189790
H69   H     H_    0.259509 0.466186 0.581976 0.193931
H70   H     H_    0.352150 0.434016 0.661546 0.219172
H71   H     H_    0.840709 0.100057 0.637189 0.256429
H72   H     H_    0.793922 0.112359 0.794358 0.194718
H73   H     H_    0.749926 0.037593 0.366870 0.189528
H74   H     H_    0.845446 0.074406 0.303368 0.214852
H75   H     H_    0.824431 0.901547 0.327634 0.240970
H76   H     H_    0.773885 0.871496 0.180270 0.189780
H77   H     H_    0.759538 0.966190 0.581857 0.193933
H78   H     H_    0.331707 0.230671 0.714170 0.071255
H79   H     H_    0.852175 0.934030 0.661452 0.219192
H80   H     H_    0.185199 0.706987 0.724061 0.114616
N1    N     N_3   0.998760 0.500000 0.138610 -0.033233
N2    N     N_3   0.801475 0.081472 0.387006 -0.417342
N3    N     N_3   0.763308 0.882062 0.285829 -0.457797
N4    N     N_3   0.809810 0.919337 0.578640 -0.409365
N5    N     N_3   0.998760 0.500000 0.861390 -0.034961
N6    N     N_3   0.498760 0.000000 0.138610 -0.033226
N7    N     N_3   0.498760 1.000000 0.861390 -0.034975
N8    N     N_3   0.279861 0.609637 0.688667 -0.462577
N9    N     N_3   0.301491 0.581466 0.387079 -0.417312
N10   N     N_3   0.263355 0.382083 0.285892 -0.457817
N11   N     N_3   0.309787 0.419341 0.578724 -0.409363
N12   N     N_3   0.779898 0.109619 0.688609 -0.462589
O1    O     O_R   0.092530 0.407440 0.616040 -0.637722
O2    O     O_R   0.907330 0.407420 0.383960 -0.657971
O3    O     O_R   0.907330 0.592580 0.383960 -0.596656
O4    O     O_R   0.907330 0.592580 0.616040 -0.659033
O5    O     O_R   0.407330 0.907420 0.616040 -0.597006
O6    O     O_R   0.407330 0.907420 0.383960 -0.657971
O7    O     O_R   0.407330 0.092580 0.383960 -0.596655
O8    O     O_R   0.407330 0.092580 0.616040 -0.659033
O9    O     O_3   0.886774 0.247845 0.714437 -0.794034
O10   O     O_3   0.922518 0.203569 0.408120 -0.808767
O11   O     O_3   0.884690 0.753658 0.287296 -0.785040
O12   O     O_R   0.092530 0.407440 0.383960 -0.623965
O13   O     O_3   0.925353 0.792239 0.592024 -0.805343
O14   O     O_3   0.386764 0.747847 0.714441 -0.794063
O15   O     O_3   0.422525 0.703575 0.408129 -0.808770
O16   O     O_3   0.384688 0.253639 0.287273 -0.785061
O17   O     O_3   0.425346 0.292252 0.592007 -0.805337
O18   O     O_R   0.092530 0.592560 0.383960 -0.637415
O19   O     O_R   0.092530 0.592560 0.616040 -0.630472
O20   O     O_R   0.592530 0.907440 0.616040 -0.637713
O21   O     O_R   0.592530 0.907440 0.383960 -0.623944
O22   O     O_R   0.592530 0.092560 0.383960 -0.637419
O23   O     O_R   0.592530 0.092560 0.616040 -0.630486
O24   O     O_R   0.907330 0.407420 0.616040 -0.597008
Zn1   Zn    Zn3+2 0.999890 0.500000 0.654960 0.911989
Zn2   Zn    Zn3+2 0.999890 0.500000 0.345040 0.914777
Zn3   Zn    Zn3+2 0.499890 1.000000 0.654960 0.911984
Zn4   Zn    Zn3+2 0.499890 0.000000 0.345040 0.914779

loop_
_geom_bond_atom_site_label_1
_geom_bond_atom_site_label_2
_ccdc_geom_bond_type
H73   N2    S    
H53   O9    S    
C48   N6    S    
O22   Zn4   S    
C48   H43   S    
C49   N5    S    
H69   N11   S    
C1    O1    A    
C25   H15   S    
C14   C31   S    
N1    Zn2   S    
C44   H31   S    
C11   H67   S    
C41   H28   S    
C38   H24   S    
C51   H50   S    
C50   H52   S    
C6    C19   S    
C47   H33   S    
C5    H1    S    
H75   N3    S    
C10   C15   S    
C49   H47   S    
C51   H51   S    
C22   C38   S    
C24   C39   S    
C43   N1    S    
C6    H12   S    
C3    C29   S    
H59   O15   S    
C49   H46   S    
C15   N9    S    
C20   C35   S    
C10   H56   S    
O6    Zn4   S    
C47   C48   S    
C11   C30   S    
C44   C46   S    
H54   O10   S    
H71   N12   S    
C52   O2    A    
C13   H78   S    
N7    Zn3   S    
H62   N8    S    
C48   H35   S    
C21   N4    S    
N5    Zn1   S    
C44   H40   S    
O3    Zn2   S    
C9    C29   S    
O21   Zn4   S    
O4    Zn1   S    
H57   O13   S    
C5    C27   S    
C42   N5    S    
C42   H29   S    
H70   N11   S    
C8    O13   S    
C36   H18   S    
C11   O16   S    
C50   C51   S    
C19   H6    S    
C25   C29   S    
H65   N9    S    
C4    O8    A    
O1    Zn1   S    
C3    O5    A    
N6    Zn4   S    
C39   H26   S    
C13   C30   S    
H68   N10   S    
C21   H8    S    
H79   N4    S    
C19   C33   S    
H76   N3    S    
O8    Zn3   S    
C7    H23   S    
C5    C18   S    
C2    O3    A    
H61   O17   S    
C1    C32   S    
C43   H39   S    
O7    Zn4   S    
C19   N2    S    
C1    O12   A    
C35   C39   S    
C9    C14   S    
C15   H2    S    
C22   H10   S    
H77   N4    S    
C11   C16   S    
C18   H5    S    
C6    C27   S    
O18   Zn2   S    
C45   C49   S    
C8    C21   S    
C40   H27   S    
C32   C37   S    
C20   H7    S    
C15   C31   S    
C17   H4    S    
C6    O10   S    
C24   H13   S    
C16   N10   S    
C46   H32   S    
C40   C41   S    
C14   N8    S    
C26   C30   S    
C24   H11   S    
C23   C35   S    
C22   C27   S    
O2    Zn2   S    
C12   C31   S    
C8    C28   S    
C42   C43   S    
C36   H19   S    
C34   O23   A    
C39   H25   S    
C27   C52   S    
C23   O20   A    
C38   H22   S    
C17   C32   S    
C4    O7    A    
C37   H21   S    
O24   Zn1   S    
C3    O6    A    
C44   N6    S    
H60   O16   S    
C41   H37   S    
O5    Zn3   S    
C41   N5    S    
C25   H14   S    
C24   C28   S    
H66   N10   S    
C45   H48   S    
H58   O14   S    
O23   Zn3   S    
C50   N6    S    
C26   C37   S    
C13   O17   S    
C21   C35   S    
C13   C17   S    
C16   C32   S    
C40   N1    S    
C45   N1    S    
C33   C38   S    
C23   O21   A    
C17   N11   S    
C26   H16   S    
C40   H36   S    
C18   N12   S    
C16   H3    S    
C52   O24   A    
C12   O19   A    
C10   C29   S    
C46   H41   S    
C9    O14   S    
C14   H80   S    
C5    O9    S    
O12   Zn2   S    
C47   H42   S    
C33   C34   S    
C8    H34   S    
C20   N3    S    
O19   Zn1   S    
C18   C33   S    
H55   O11   S    
C7    C28   S    
C25   C36   S    
C12   O18   A    
H64   N9    S    
C7    O11   S    
H63   N8    S    
H74   N2    S    
C50   H49   S    
C7    C20   S    
C37   H20   S    
C47   N7    S    
C9    H45   S    
C43   H30   S    
C31   C36   S    
H72   N12   S    
O20   Zn3   S    
C2    C28   S    
C26   H17   S    
C42   H38   S    
C34   O22   A    
C45   H44   S    
C2    O4    A    
C10   O15   S    
C4    C30   S    
C46   N7    S    
C22   H9    S    
C51   N7    S    
