data_mof_unit_62422.cif
_audit_creation_date              2012-12-10T17:41:12-0500
_audit_creation_method            fapswitch 2.2
_symmetry_space_group_name_H-M    P1
_symmetry_Int_Tables_number       1
_space_group_crystal_system       monoclinic
_cell_length_a                    30.432208
_cell_length_b                    30.432205
_cell_length_c                    21.822554
_cell_angle_alpha                 90.000013
_cell_angle_beta                  90.0
_cell_angle_gamma                 90.0
_cell_volume                      20210.2860879

loop_
_atom_site_label
_atom_site_type_symbol
_atom_type_description
_atom_site_fract_x
_atom_site_fract_y
_atom_site_fract_z
_atom_type_partial_charge
C1    C     C_R   0.500000 0.085287 0.000000 0.823247
C2    C     C_R   0.085287 0.500000 0.000000 0.823247
C3    C     C_R   0.500000 0.914713 0.000000 0.823248
C4    C     C_R   0.914713 0.500000 0.000000 0.823248
C5    C     C_R   1.000000 0.585287 0.500000 0.823247
C6    C     C_R   0.585287 0.000000 0.500000 0.823247
C7    C     C_R   1.000000 0.414713 0.500000 0.823248
C8    C     C_R   0.414713 0.000000 0.500000 0.823248
C9    C     C_R   0.500000 0.226535 1.000000 0.020376
C10   C     C_R   0.226535 0.500000 1.000000 0.020376
C11   C     C_R   0.500000 0.773465 0.000000 0.020376
C12   C     C_R   0.773465 0.500000 0.000000 0.020375
C13   C     C_R   1.000000 0.726535 0.500000 0.020376
C14   C     C_R   0.726535 1.000000 0.500000 0.020375
C15   C     C_R   1.000000 0.273465 0.500000 0.020376
C16   C     C_R   0.273465 0.000000 0.500000 0.020374
C17   C     C_R   0.501045 0.297749 0.055805 0.375603
C18   C     C_R   0.297749 0.498955 0.055805 0.375603
C19   C     C_R   0.498955 0.702251 0.055805 0.375603
C20   C     C_R   0.702251 0.501045 0.055805 0.375603
C21   C     C_R   0.498955 0.297749 0.944195 0.375603
C22   C     C_R   0.702251 0.498955 0.944195 0.375603
C23   C     C_R   0.501045 0.702251 0.944195 0.375603
C24   C     C_R   0.297749 0.501045 0.944195 0.375603
C25   C     C_R   0.001045 0.797749 0.555805 0.375603
C26   C     C_R   0.797749 0.998956 0.555805 0.375602
C27   C     C_R   0.998955 0.202251 0.555805 0.375603
C28   C     C_R   0.202251 0.001043 0.555805 0.375602
C29   C     C_R   0.998955 0.797749 0.444195 0.375603
C30   C     C_R   0.202251 0.998957 0.444195 0.375602
C31   C     C_R   0.001045 0.202251 0.444195 0.375603
C32   C     C_R   0.797749 0.001043 0.444195 0.375602
C33   C     C_R   0.501025 0.343519 0.055533 -0.192021
C34   C     C_R   0.343518 0.498975 0.055533 -0.192021
C35   C     C_R   0.498975 0.656481 0.055533 -0.192021
C36   C     C_R   0.656481 0.501025 0.055533 -0.192022
C37   C     C_R   0.498975 0.343519 0.944467 -0.192021
C38   C     C_R   0.656481 0.498975 0.944467 -0.192021
C39   C     C_R   0.501025 0.656481 0.944467 -0.192021
C40   C     C_R   0.343518 0.501025 0.944467 -0.192021
C41   C     C_R   0.001025 0.843518 0.555532 -0.192022
C42   C     C_R   0.843518 0.998976 0.555533 -0.192022
C43   C     C_R   0.998975 0.156481 0.555532 -0.192022
C44   C     C_R   0.156481 0.001024 0.555533 -0.192021
C45   C     C_R   0.998975 0.843518 0.444467 -0.192021
C46   C     C_R   0.156481 0.998976 0.444467 -0.192021
C47   C     C_R   0.001025 0.156481 0.444467 -0.192021
C48   C     C_R   0.843518 0.001024 0.444467 -0.192021
C49   C     C_R   0.500000 0.366731 0.000000 -0.172097
C50   C     C_R   0.366731 0.500000 0.000000 -0.172097
C51   C     C_R   0.500000 0.633268 0.000000 -0.172097
C52   C     C_R   0.633268 0.500000 0.000000 -0.172098
C53   C     C_R   1.000000 0.866731 0.500000 -0.172098
C54   C     C_R   0.866731 0.000000 0.500000 -0.172097
C55   C     C_R   1.000000 0.133268 0.500000 -0.172097
C56   C     C_R   0.133268 0.000000 0.500000 -0.172097
C57   C     C_R   0.500000 0.274622 1.000000 -0.073574
C58   C     C_R   0.274622 0.500000 1.000000 -0.073575
C59   C     C_R   0.500000 0.725378 0.000000 -0.073575
C60   C     C_R   0.725378 0.500000 0.000000 -0.073574
C61   C     C_R   1.000000 0.774622 0.500000 -0.073575
C62   C     C_R   0.774622 1.000000 0.500000 -0.073574
C63   C     C_R   1.000000 0.225378 0.500000 -0.073575
C64   C     C_R   0.225378 0.000000 0.500000 -0.073574
C65   C     C_R   0.584992 0.500000 0.000000 0.836345
C66   C     C_R   0.500000 0.415008 0.000000 0.836346
C67   C     C_R   0.415008 0.500000 0.000000 0.836346
C68   C     C_R   0.500000 0.584992 0.000000 0.836345
C69   C     C_R   0.084992 0.000000 0.500000 0.836345
C70   C     C_R   1.000000 0.915008 0.500000 0.836346
C71   C     C_R   0.915008 0.000000 0.500000 0.836346
C72   C     C_R   1.000000 0.084992 0.500000 0.836345
C73   C     C_R   0.500000 1.000000 0.118704 0.746014
C74   C     C_R   1.000000 0.500000 0.118704 0.746014
C75   C     C_R   0.500000 0.000000 0.881296 0.746015
C76   C     C_R   1.000000 0.500000 0.881296 0.746015
C77   C     C_R   1.000000 0.500000 0.618704 0.746015
C78   C     C_R   0.500000 0.000000 0.618704 0.746014
C79   C     C_R   1.000000 0.500000 0.381296 0.746015
C80   C     C_R   0.500000 0.000000 0.381296 0.746015
C81   C     C_R   0.552018 0.937215 0.187216 -0.323717
C82   C     C_R   0.937215 0.447982 0.187216 -0.323717
C83   C     C_R   0.447981 0.062785 0.187216 -0.323717
C84   C     C_R   0.062785 0.552018 0.187216 -0.323717
C85   C     C_R   0.447981 0.937215 0.812784 -0.323717
C86   C     C_R   0.062785 0.447981 0.812784 -0.323717
C87   C     C_R   0.552018 0.062785 0.812784 -0.323717
C88   C     C_R   0.937215 0.552018 0.812784 -0.323717
C89   C     C_R   0.052019 0.437215 0.687216 -0.323717
C90   C     C_R   0.437215 0.947982 0.687216 -0.323716
C91   C     C_R   0.947981 0.562785 0.687216 -0.323717
C92   C     C_R   0.562785 0.052018 0.687216 -0.323717
C93   C     C_R   0.947981 0.437215 0.312784 -0.323717
C94   C     C_R   0.562785 0.947981 0.312784 -0.323717
C95   C     C_R   0.052019 0.562785 0.312784 -0.323716
C96   C     C_R   0.437215 0.052019 0.312784 -0.323716
C97   C     C_R   0.582310 0.911439 0.218809 0.635650
C98   C     C_R   0.911439 0.417691 0.218809 0.635651
C99   C     C_R   0.417690 0.088561 0.218809 0.635650
C100  C     C_R   0.088561 0.582309 0.218809 0.635651
C101  C     C_R   0.417690 0.911439 0.781191 0.635650
C102  C     C_R   0.088561 0.417690 0.781191 0.635649
C103  C     C_R   0.582310 0.088561 0.781191 0.635650
C104  C     C_R   0.911439 0.582310 0.781191 0.635650
C105  C     C_R   0.082310 0.411439 0.718809 0.635651
C106  C     C_R   0.411439 0.917690 0.718809 0.635648
C107  C     C_R   0.917690 0.588561 0.718809 0.635649
C108  C     C_R   0.588561 0.082309 0.718809 0.635649
C109  C     C_R   0.917690 0.411439 0.281191 0.635648
C110  C     C_R   0.588561 0.917690 0.281191 0.635650
C111  C     C_R   0.082310 0.588560 0.281191 0.635649
C112  C     C_R   0.411439 0.082310 0.281191 0.635650
C113  C     C_R   0.529965 0.972780 0.282213 -0.021201
C114  C     C_R   0.972780 0.470035 0.282213 -0.021201
C115  C     C_R   0.470035 0.027219 0.282213 -0.021202
C116  C     C_R   0.027220 0.529965 0.282213 -0.021202
C117  C     C_R   0.470035 0.972780 0.717787 -0.021202
C118  C     C_R   0.027220 0.470035 0.717787 -0.021201
C119  C     C_R   0.529965 0.027220 0.717787 -0.021202
C120  C     C_R   0.972780 0.529965 0.717787 -0.021202
C121  C     C_R   0.029965 0.472780 0.782213 -0.021201
C122  C     C_R   0.472780 0.970035 0.782213 -0.021201
C123  C     C_R   0.970035 0.527219 0.782213 -0.021201
C124  C     C_R   0.527219 0.029965 0.782213 -0.021202
C125  C     C_R   0.970034 0.472780 0.217787 -0.021201
C126  C     C_R   0.527219 0.970035 0.217787 -0.021201
C127  C     C_R   0.029965 0.527219 0.217787 -0.021202
C128  C     C_R   0.472780 0.029965 0.217787 -0.021202
C129  C     C_R   0.500000 0.000000 0.314345 -0.025072
C130  C     C_R   1.000000 0.500000 0.314345 -0.025072
C131  C     C_R   0.500000 0.000000 0.685655 -0.025072
C132  C     C_R   1.000000 0.500000 0.685655 -0.025072
C133  C     C_R   1.000000 0.500000 0.814345 -0.025072
C134  C     C_R   0.500000 0.000000 0.814345 -0.025072
C135  C     C_R   1.000000 0.500000 0.185655 -0.025071
C136  C     C_R   0.500000 0.000000 0.185655 -0.025072
C137  C     C_R   0.537216 0.203741 0.980871 -0.078410
C138  C     C_R   0.203741 0.462784 0.980871 -0.078411
C139  C     C_R   0.462784 0.796258 0.980871 -0.078410
C140  C     C_R   0.796258 0.537216 0.980871 -0.078411
C141  C     C_R   0.462784 0.203741 0.019129 -0.078411
C142  C     C_R   0.796259 0.462784 0.019129 -0.078410
C143  C     C_R   0.537216 0.796258 0.019129 -0.078410
C144  C     C_R   0.203741 0.537216 0.019129 -0.078411
C145  C     C_R   0.037216 0.703741 0.480871 -0.078411
C146  C     C_R   0.703741 0.962784 0.480871 -0.078410
C147  C     C_R   0.962784 0.296259 0.480871 -0.078410
C148  C     C_R   0.296259 0.037216 0.480871 -0.078410
C149  C     C_R   0.962784 0.703741 0.519129 -0.078410
C150  C     C_R   0.296259 0.962784 0.519129 -0.078410
C151  C     C_R   0.037216 0.296258 0.519129 -0.078411
C152  C     C_R   0.703741 0.037216 0.519129 -0.078411
C153  C     C_R   0.537674 0.157983 0.980527 0.344001
C154  C     C_R   0.157983 0.462326 0.980527 0.344003
C155  C     C_R   0.462326 0.842016 0.980527 0.344002
C156  C     C_R   0.842016 0.537674 0.980527 0.344003
C157  C     C_R   0.462326 0.157983 0.019473 0.344003
C158  C     C_R   0.842016 0.462326 0.019473 0.344002
C159  C     C_R   0.537674 0.842016 0.019473 0.344002
C160  C     C_R   0.157983 0.537674 0.019473 0.344003
C161  C     C_R   0.037674 0.657984 0.480527 0.344002
C162  C     C_R   0.657984 0.962326 0.480527 0.344003
C163  C     C_R   0.962326 0.342016 0.480527 0.344002
C164  C     C_R   0.342016 0.037674 0.480527 0.344002
C165  C     C_R   0.962326 0.657984 0.519473 0.344002
C166  C     C_R   0.342016 0.962326 0.519473 0.344002
C167  C     C_R   0.037674 0.342016 0.519473 0.344002
C168  C     C_R   0.657984 0.037674 0.519473 0.344002
C169  C     C_R   0.500000 0.134060 0.000000 -0.246949
C170  C     C_R   0.134060 0.500000 0.000000 -0.246949
C171  C     C_R   0.500000 0.865940 0.000000 -0.246949
C172  C     C_R   0.865940 0.500000 0.000000 -0.246949
C173  C     C_R   1.000000 0.634060 0.500000 -0.246949
C174  C     C_R   0.634060 1.000000 0.500000 -0.246950
C175  C     C_R   1.000000 0.365940 0.500000 -0.246949
C176  C     C_R   0.365940 0.000000 0.500000 -0.246950
Cu1   Cu    Cu3+1 0.455950 0.000000 0.000000 1.134518
Cu2   Cu    Cu3+1 0.000000 0.544050 0.000000 1.134518
Cu3   Cu    Cu3+1 0.544050 0.000000 0.000000 1.134518
Cu4   Cu    Cu3+1 0.000000 0.455950 0.000000 1.134518
Cu5   Cu    Cu3+1 0.955950 0.500000 0.500000 1.134518
Cu6   Cu    Cu3+1 0.500000 0.044050 0.500000 1.134518
Cu7   Cu    Cu3+1 0.044050 0.500000 0.500000 1.134518
Cu8   Cu    Cu3+1 0.500000 0.955950 0.500000 1.134518
Cu9   Cu    Cu3+1 0.500000 0.500000 0.061790 1.048808
Cu10  Cu    Cu3+1 0.500000 0.500000 0.938210 1.048809
Cu11  Cu    Cu3+1 1.000000 0.000000 0.561790 1.048808
Cu12  Cu    Cu3+1 1.000000 0.000000 0.438210 1.048809
H1    H     H_    0.548116 0.930710 0.138894 0.219113
H2    H     H_    0.930710 0.451884 0.138894 0.219113
H3    H     H_    0.451884 0.069290 0.138894 0.219113
H4    H     H_    0.069290 0.548115 0.138894 0.219112
H5    H     H_    0.451884 0.930710 0.861106 0.219113
H6    H     H_    0.069290 0.451884 0.861106 0.219113
H7    H     H_    0.548116 0.069290 0.861106 0.219113
H8    H     H_    0.930710 0.548116 0.861106 0.219113
H9    H     H_    0.048116 0.430710 0.638894 0.219113
H10   H     H_    0.430710 0.951884 0.638894 0.219113
H11   H     H_    0.951884 0.569290 0.638894 0.219113
H12   H     H_    0.569290 0.048116 0.638894 0.219112
H13   H     H_    0.951884 0.430710 0.361106 0.219113
H14   H     H_    0.569290 0.951884 0.361106 0.219113
H15   H     H_    0.048116 0.569290 0.361106 0.219113
H16   H     H_    0.430710 0.048116 0.361106 0.219113
H17   H     H_    0.566020 0.221767 0.965954 0.206129
H18   H     H_    0.221767 0.433980 0.965954 0.206129
H19   H     H_    0.433980 0.778233 0.965954 0.206129
H20   H     H_    0.778233 0.566020 0.965954 0.206129
H21   H     H_    0.433980 0.221767 0.034045 0.206129
H22   H     H_    0.778233 0.433980 0.034046 0.206129
H23   H     H_    0.566020 0.778233 0.034046 0.206129
H24   H     H_    0.221767 0.566020 0.034045 0.206129
H25   H     H_    0.066020 0.721767 0.465954 0.206129
H26   H     H_    0.721767 0.933979 0.465955 0.206129
H27   H     H_    0.933980 0.278233 0.465954 0.206129
H28   H     H_    0.278233 0.066020 0.465955 0.206129
H29   H     H_    0.933980 0.721767 0.534046 0.206129
H30   H     H_    0.278233 0.933980 0.534045 0.206130
H31   H     H_    0.066020 0.278233 0.534046 0.206128
H32   H     H_    0.721767 0.066020 0.534045 0.206129
H33   H     H_    0.501980 0.360836 0.098874 0.211461
H34   H     H_    0.360836 0.498019 0.098874 0.211461
H35   H     H_    0.498020 0.639164 0.098874 0.211461
H36   H     H_    0.639164 0.501979 0.098874 0.211461
H37   H     H_    0.498020 0.360836 0.901126 0.211461
H38   H     H_    0.639164 0.498021 0.901126 0.211461
H39   H     H_    0.501980 0.639164 0.901126 0.211461
H40   H     H_    0.360836 0.501981 0.901126 0.211462
H41   H     H_    0.001980 0.860836 0.598874 0.211461
H42   H     H_    0.860836 0.998022 0.598874 0.211461
H43   H     H_    0.998019 0.139164 0.598874 0.211461
H44   H     H_    0.139164 0.001977 0.598874 0.211461
H45   H     H_    0.998019 0.860836 0.401126 0.211461
H46   H     H_    0.139164 0.998023 0.401126 0.211461
H47   H     H_    0.001980 0.139164 0.401126 0.211461
H48   H     H_    0.860836 0.001978 0.401126 0.211462
O1    O     O_R   0.462810 0.064270 0.999990 -0.535592
O2    O     O_R   0.064270 0.537190 0.999990 -0.535593
O3    O     O_R   0.537190 0.935730 0.999990 -0.535593
O4    O     O_R   0.935730 0.462810 0.999990 -0.535592
O5    O     O_R   0.537190 0.064270 0.000010 -0.535593
O6    O     O_R   0.935730 0.537190 0.000010 -0.535593
O7    O     O_R   0.462810 0.935730 0.000010 -0.535592
O8    O     O_R   0.064270 0.462810 0.000010 -0.535593
O9    O     O_R   0.962810 0.564270 0.499990 -0.535592
O10   O     O_R   0.564270 0.037190 0.499990 -0.535593
O11   O     O_R   0.037190 0.435730 0.499990 -0.535593
O12   O     O_R   0.435730 0.962810 0.499990 -0.535592
O13   O     O_R   0.037190 0.564270 0.500010 -0.535593
O14   O     O_R   0.435730 0.037190 0.500010 -0.535593
O15   O     O_R   0.962810 0.435730 0.500010 -0.535592
O16   O     O_R   0.564270 0.962810 0.500010 -0.535593
O17   O     O_R   0.462810 0.999990 0.090160 -0.571387
O18   O     O_R   0.999990 0.537190 0.090160 -0.571387
O19   O     O_R   0.537190 0.000010 0.090160 -0.571387
O20   O     O_R   0.000010 0.462810 0.090160 -0.571387
O21   O     O_R   0.537190 0.999990 0.909840 -0.571387
O22   O     O_R   0.000010 0.537190 0.909840 -0.571387
O23   O     O_R   0.462810 0.000010 0.909840 -0.571387
O24   O     O_R   0.999990 0.462810 0.909840 -0.571387
O25   O     O_R   0.962810 0.499990 0.590160 -0.571387
O26   O     O_R   0.499990 0.037190 0.590160 -0.571387
O27   O     O_R   0.037190 0.500010 0.590160 -0.571387
O28   O     O_R   0.500010 0.962810 0.590160 -0.571387
O29   O     O_R   0.037190 0.499990 0.409840 -0.571387
O30   O     O_R   0.500010 0.037190 0.409840 -0.571387
O31   O     O_R   0.962810 0.500010 0.409840 -0.571387
O32   O     O_R   0.499990 0.962810 0.409840 -0.571387
O33   O     O_R   0.564270 0.500020 0.052180 -0.579866
O34   O     O_R   0.500020 0.435730 0.052180 -0.579866
O35   O     O_R   0.435730 0.499980 0.052180 -0.579866
O36   O     O_R   0.499980 0.564270 0.052180 -0.579866
O37   O     O_R   0.435730 0.500020 0.947820 -0.579865
O38   O     O_R   0.499980 0.435730 0.947820 -0.579865
O39   O     O_R   0.564270 0.499980 0.947820 -0.579866
O40   O     O_R   0.500020 0.564270 0.947820 -0.579866
O41   O     O_R   0.064270 0.000020 0.552180 -0.579866
O42   O     O_R   0.000020 0.935730 0.552180 -0.579866
O43   O     O_R   0.935730 0.999980 0.552180 -0.579866
O44   O     O_R   0.999980 0.064270 0.552180 -0.579866
O45   O     O_R   0.935730 0.000020 0.447820 -0.579865
O46   O     O_R   0.999980 0.935730 0.447820 -0.579865
O47   O     O_R   0.064270 0.999980 0.447820 -0.579866
O48   O     O_R   0.000020 0.064270 0.447820 -0.579866
F1    F     F_    0.393736 0.119204 0.188510 -0.533459
F2    F     F_    0.119204 0.606263 0.188510 -0.533459
F3    F     F_    0.606264 0.880796 0.188510 -0.533459
F4    F     F_    0.880796 0.393737 0.188510 -0.533459
F5    F     F_    0.606264 0.119203 0.811489 -0.533459
F6    F     F_    0.880796 0.606263 0.811489 -0.533459
F7    F     F_    0.393736 0.880796 0.811489 -0.533459
F8    F     F_    0.119204 0.393736 0.811489 -0.533459
F9    F     F_    0.893736 0.619203 0.688510 -0.533459
F10   F     F_    0.619204 0.106263 0.688510 -0.533459
F11   F     F_    0.106264 0.380797 0.688510 -0.533460
F12   F     F_    0.380796 0.893736 0.688510 -0.533458
F13   F     F_    0.106264 0.619203 0.311489 -0.533459
F14   F     F_    0.380796 0.106264 0.311489 -0.533459
F15   F     F_    0.893736 0.380797 0.311489 -0.533459
F16   F     F_    0.619203 0.893736 0.311489 -0.533459
Cl1   Cl    Cl    0.586402 0.133329 0.953460 -0.443600
Cl2   Cl    Cl    0.133329 0.413598 0.953460 -0.443601
Cl3   Cl    Cl    0.413598 0.866671 0.953460 -0.443600
Cl4   Cl    Cl    0.866671 0.586402 0.953460 -0.443601
Cl5   Cl    Cl    0.413598 0.133329 0.046540 -0.443600
Cl6   Cl    Cl    0.866671 0.413598 0.046540 -0.443600
Cl7   Cl    Cl    0.586402 0.866671 0.046540 -0.443600
Cl8   Cl    Cl    0.133329 0.586402 0.046540 -0.443600
Cl9   Cl    Cl    0.086402 0.633329 0.453460 -0.443601
Cl10  Cl    Cl    0.633329 0.913598 0.453460 -0.443600
Cl11  Cl    Cl    0.913598 0.366671 0.453460 -0.443600
Cl12  Cl    Cl    0.366671 0.086402 0.453460 -0.443600
Cl13  Cl    Cl    0.913598 0.633329 0.546540 -0.443600
Cl14  Cl    Cl    0.366671 0.913598 0.546540 -0.443600
Cl15  Cl    Cl    0.086402 0.366671 0.546540 -0.443601
Cl16  Cl    Cl    0.633329 0.086402 0.546540 -0.443600
Cl17  Cl    Cl    0.503420 0.270376 0.126897 -0.496310
Cl18  Cl    Cl    0.270376 0.496579 0.126897 -0.496310
Cl19  Cl    Cl    0.496579 0.729623 0.126897 -0.496310
Cl20  Cl    Cl    0.729623 0.503419 0.126897 -0.496310
Cl21  Cl    Cl    0.496580 0.270376 0.873103 -0.496310
Cl22  Cl    Cl    0.729623 0.496580 0.873103 -0.496310
Cl23  Cl    Cl    0.503421 0.729623 0.873103 -0.496310
Cl24  Cl    Cl    0.270376 0.503421 0.873103 -0.496310
Cl25  Cl    Cl    0.003421 0.770376 0.626897 -0.496310
Cl26  Cl    Cl    0.770376 0.996582 0.626897 -0.496309
Cl27  Cl    Cl    0.996578 0.229623 0.626897 -0.496310
Cl28  Cl    Cl    0.229623 0.003417 0.626897 -0.496309
Cl29  Cl    Cl    0.996579 0.770376 0.373103 -0.496310
Cl30  Cl    Cl    0.229623 0.996583 0.373103 -0.496309
Cl31  Cl    Cl    0.003421 0.229623 0.373103 -0.496310
Cl32  Cl    Cl    0.770376 0.003417 0.373103 -0.496310

loop_
_geom_bond_atom_site_label_1
_geom_bond_atom_site_label_2
_ccdc_geom_bond_type
C81   C126  A    
C88   H8    S    
Cu2   O2    S    
C83   C128  A    
C15   C151  A    
C76   O24   A    
C77   O25   A    
C92   C119  A    
C68   O36   A    
C22   C60   A    
C87   C124  A    
C26   Cl26  S    
Cu10  O40   S    
C22   C38   A    
C154  C170  A    
Cu2   O22   S    
C157  C169  A    
C18   C58   A    
C165  Cl13  S    
C109  F15   S    
C110  F16   S    
C32   Cl32  S    
C72   O48   A    
C144  C160  A    
C93   H13   S    
C36   H36   S    
C38   H38   S    
C125  C135  A    
Cu4   O8    S    
C126  C136  A    
C98   C109  A    
C157  Cl5   S    
Cu8   O12   S    
C142  C158  A    
C28   Cl28  S    
C47   H47   S    
Cu5   Cu7   S    
Cu3   O21   S    
Cu12  O46   S    
C24   Cl24  S    
C84   C100  A    
C90   C117  A    
C91   C107  A    
Cu5   O15   S    
C25   C41   A    
C160  Cl8   S    
C6    C174  S    
C70   O46   A    
C79   C130  S    
C28   C44   A    
C29   C45   A    
C82   C125  A    
C66   O34   A    
C86   C121  A    
C137  C153  A    
C149  H29   S    
C81   H1    S    
C146  H26   S    
Cu9   O34   S    
C140  C156  A    
C87   C103  A    
C141  C157  A    
C35   C51   A    
C151  H31   S    
C141  H21   S    
Cu1   O1    S    
C77   O27   A    
C78   O28   A    
C6    O10   A    
C45   H45   S    
C70   O42   A    
C76   C133  S    
Cu10  O38   S    
Cu11  O43   S    
C114  C130  A    
Cu7   O29   S    
C1    O1    A    
Cu6   O10   S    
C32   C62   A    
C19   C35   A    
C158  C172  A    
C145  C161  A    
C151  C167  A    
Cu8   O28   S    
C162  Cl10  S    
Cu5   O9    S    
C93   C114  A    
C112  F14   S    
C74   O18   A    
C87   H7    S    
C116  C130  A    
C100  C111  A    
C155  Cl3   S    
C156  Cl4   S    
C10   C138  A    
C2    O8    A    
C118  C121  A    
C104  C107  A    
C52   C65   S    
Cu6   O26   S    
C39   C51   A    
Cu12  O48   S    
C31   Cl31  S    
C13   C145  A    
C163  C175  A    
C75   C134  S    
C168  C174  A    
C8    O14   A    
C80   O30   A    
C46   H46   S    
C10   C58   S    
C147  H27   S    
C103  F5    S    
C95   H15   S    
C14   C62   S    
C100  F2    S    
C122  C134  A    
Cu9   O36   S    
C21   Cl21  S    
C92   C108  A    
Cu1   Cu3   S    
C119  C131  A    
C164  C176  A    
C168  Cl16  S    
C50   C67   S    
C36   C52   A    
Cu3   O19   S    
C45   C53   A    
C78   O26   A    
C148  H28   S    
C4    O6    A    
C88   C104  A    
C94   C113  A    
C96   H16   S    
Cu11  O41   S    
C29   C61   A    
C49   C66   S    
C148  C164  A    
C31   C63   A    
C149  C165  A    
C113  C126  A    
C19   C59   A    
C166  Cl14  S    
C156  C172  A    
C71   O43   A    
C115  C128  A    
C7    O15   A    
C72   O44   A    
Cu4   O24   S    
C40   H40   S    
C117  C122  A    
Cu1   O23   S    
C139  C155  A    
C95   C116  A    
C158  Cl6   S    
C21   C37   A    
C10   C144  A    
C41   C53   A    
Cu3   O5    S    
C139  H19   S    
C43   C55   A    
Cu1   O7    S    
C75   O23   A    
C29   Cl29  S    
C86   C102  A    
C26   C42   A    
C101  F7    S    
C167  C175  A    
C101  C106  A    
C22   Cl22  S    
C80   C129  S    
C4    C172  S    
C17   Cl17  S    
C80   O32   A    
C5    C173  S    
C30   C46   A    
C19   Cl19  S    
C8    C176  S    
C164  Cl12  S    
C89   H9    S    
C124  C134  A    
Cu6   O14   S    
C147  C163  A    
C86   H6    S    
C138  C154  A    
C11   C143  A    
Cu8   O32   S    
C117  C131  A    
Cu6   Cu8   S    
C118  C132  A    
C153  Cl1   S    
C56   C69   S    
C14   C152  A    
C31   C47   A    
C92   H12   S    
C93   C109  A    
C33   H33   S    
C20   Cl20  S    
C30   C64   A    
C65   O39   A    
C82   C98   A    
C138  H18   S    
C146  C162  A    
C159  C171  A    
C123  C133  A    
C83   H3    S    
C127  C135  A    
C128  C136  A    
C43   H43   S    
C25   Cl25  S    
Cu4   O4    S    
C33   C49   A    
C27   Cl27  S    
C102  C105  A    
C11   C139  A    
Cu3   O3    S    
C9    C137  A    
C54   C71   S    
C75   O21   A    
C116  C127  A    
C12   C140  A    
C94   H14   S    
C20   C60   A    
C39   H39   S    
C120  C123  A    
Cu9   O33   S    
C67   O35   A    
C37   H37   S    
C83   C99   A    
C32   C48   A    
C17   C33   A    
C11   C59   S    
C53   C70   S    
C140  H20   S    
C152  C168  A    
C71   O45   A    
C5    O13   A    
C90   C106  A    
C108  F10   S    
Cu10  O39   S    
C119  C124  A    
C94   C110  A    
C23   C59   A    
C161  C173  A    
C44   C56   A    
C73   C136  S    
C74   C135  S    
C4    O4    A    
C85   C122  A    
C25   C61   A    
C27   C63   A    
C2    C170  S    
C145  H25   S    
C42   H42   S    
C66   O38   A    
C163  Cl11  S    
C144  H24   S    
C102  F8    S    
Cu12  O45   S    
C105  F11   S    
C5    O9    A    
C106  F12   S    
Cu2   Cu4   S    
C107  F9    S    
C143  C159  A    
C167  Cl15  S    
Cu11  Cu12  S    
C42   C54   A    
C15   C147  A    
Cu9   Cu10  S    
C40   C50   A    
C12   C142  A    
Cu7   O11   S    
C26   C62   A    
Cu9   O35   S    
C20   C36   A    
C27   C43   A    
Cu5   O25   S    
C8    O12   A    
C24   C58   A    
C153  C169  A    
C18   Cl18  S    
C3    O3    A    
Cu2   O6    S    
C150  C166  A    
C7    O11   A    
C3    C171  S    
C17   C57   A    
Cu4   O20   S    
Cu10  O37   S    
C137  H17   S    
Cu11  O44   S    
C48   C54   A    
C96   C112  A    
C113  C129  A    
Cu8   O16   S    
Cu6   O30   S    
Cu7   O27   S    
C38   C52   A    
C154  Cl2   S    
C165  C173  A    
C37   C49   A    
C24   C40   A    
Cu5   O31   S    
C111  F13   S    
C7    C175  S    
C79   O31   A    
C96   C115  A    
C103  C108  A    
C65   O33   A    
C55   C72   S    
C91   H11   S    
C84   C127  A    
Cu12  O47   S    
C73   O19   A    
C82   H2    S    
C88   C123  A    
C97   F3    S    
C98   F4    S    
C99   F1    S    
C104  F6    S    
C34   C50   A    
C114  C125  A    
C9    C141  A    
C2    O2    A    
C143  H23   S    
C76   O22   A    
C77   C132  S    
C67   O37   A    
C78   C131  S    
Cu7   O13   S    
C21   C57   A    
C35   H35   S    
C68   O40   A    
C69   O41   A    
C150  H30   S    
C3    O7    A    
C18   C34   A    
C48   H48   S    
C1    O5    A    
C41   H41   S    
C161  Cl9   S    
C30   Cl30  S    
C73   O17   A    
C142  H22   S    
C89   C105  A    
C28   C64   A    
C85   C101  A    
C47   C55   A    
C115  C129  A    
Cu11  O42   S    
C23   Cl23  S    
C15   C63   S    
C120  C132  A    
C46   C56   A    
C16   C150  A    
C162  C174  A    
Cu1   O17   S    
C90   H10   S    
C14   C146  A    
C166  C176  A    
C6    O16   A    
C16   C148  A    
C44   H44   S    
C13   C149  A    
C95   C111  A    
C97   C110  A    
C85   H5    S    
C69   O47   A    
C81   C97   A    
C23   C39   A    
C99   C112  A    
C152  H32   S    
C1    C169  S    
C79   O29   A    
C84   H4    S    
C9    C57   S    
C51   C68   S    
C12   C60   S    
C155  C171  A    
C13   C61   S    
C89   C118  A    
C159  Cl7   S    
C160  C170  A    
C91   C120  A    
C16   C64   S    
C121  C133  A    
Cu2   O18   S    
C74   O20   A    
C34   H34   S    
