data_mof_unit_56398.cif
_audit_creation_date              2013-03-05T15:52:29-0500
_audit_creation_method            fapswitch 2.2
_symmetry_space_group_name_H-M    P1
_symmetry_Int_Tables_number       1
_space_group_crystal_system       triclinic
_cell_length_a                    27.750317
_cell_length_b                    10.765883
_cell_length_c                    9.605149
_cell_angle_alpha                 89.375235
_cell_angle_beta                  89.000085
_cell_angle_gamma                 94.225797
_cell_volume                      2861.15137845

loop_
_atom_site_label
_atom_site_type_symbol
_atom_site_description
_atom_site_fract_x
_atom_site_fract_y
_atom_site_fract_z
_atom_type_partial_charge
O1    O     O_R   0.500000 0.319640 0.618810 -0.562838
O2    O     O_R   0.500000 0.319660 0.381240 -0.532913
C1    C     C_R   0.492154 0.262502 0.500741 0.906456
O3    O     O_R   0.430260 0.500010 0.618770 -0.538595
O4    O     O_R   0.430270 0.500030 0.381200 -0.585691
C2    C     C_R   0.407584 0.497545 0.500295 0.971287
Cu1   Cu    Cu3+1 0.500000 0.499990 0.640660 0.998965
Cu2   Cu    Cu3+1 0.500000 0.500010 0.359340 1.040666
O5    O     O_R   0.500000 0.680340 0.618760 -0.580134
O6    O     O_R   0.500000 0.680360 0.381190 -0.476527
O7    O     O_R   0.569730 0.499970 0.618800 -0.607817
O8    O     O_R   0.569740 0.499990 0.381230 -0.546396
C3    C     C_R   0.493049 0.735999 0.500602 0.894246
C4    C     C_R   0.592477 0.497948 0.498935 0.826846
C5    C     C_R   0.175014 0.372737 0.543093 0.642150
O9    O     O_2   0.197991 0.290679 0.620196 -0.473042
N1    N     N_R   0.201768 0.461946 0.467264 -0.442661
C6    C     C_R   0.180588 0.546848 0.386342 0.596406
C7    C     C_R   0.277096 0.568094 0.546435 -0.306888
C8    C     C_R   0.327628 0.579571 0.553588 0.302867
C9    C     C_R   0.331082 0.384223 0.427274 0.258285
C10   C     C_R   0.280328 0.379889 0.410780 0.435045
C11   C     C_R   0.253521 0.469045 0.476124 0.160710
C12   C     C_R   0.101403 0.458020 0.463575 -0.191435
C13   C     C_R   0.124041 0.367582 0.542334 -0.042967
C14   C     C_R   0.095366 0.276358 0.619604 0.445751
C15   C     C_R   0.129838 0.547395 0.382560 -0.178016
C16   C     C_R   0.354497 0.485900 0.497279 -0.221891
C17   C     C_R   0.645447 0.492535 0.495779 -0.134802
C18   C     C_R   0.970396 0.362279 0.531095 0.089016
C19   C     C_R   0.978183 0.570107 0.420384 -0.058043
C20   C     C_R   0.948965 0.467502 0.476328 0.024396
C21   C     C_R   0.939779 0.258356 0.576508 -0.202724
C22   C     C_R   0.889735 0.260692 0.574200 -0.142323
C23   C     C_R   0.868408 0.366843 0.527438 -0.016825
C24   C     C_R   0.897988 0.470713 0.478780 -0.060549
C25   C     C_R   0.876551 0.577960 0.433021 -0.114171
C26   C     C_R   0.825983 0.579004 0.435573 0.548120
N2    N     N_R   0.797883 0.477049 0.483166 -0.451329
C27   C     C_R   0.817979 0.371806 0.528115 0.602950
C28   C     C_R   0.720404 0.477723 0.364642 -0.157667
C29   C     C_R   0.670369 0.482602 0.368241 -0.181356
C30   C     C_R   0.671506 0.495271 0.619961 -0.305567
C31   C     C_R   0.721855 0.492021 0.616789 0.544389
C32   C     C_R   0.746333 0.481758 0.488358 0.244858
O10   O     O_2   0.789232 0.272369 0.573119 -0.521525
C33   C     C_R   0.021568 0.364863 0.538676 0.048172
C34   C     C_R   0.050321 0.459805 0.466598 0.020967
C35   C     C_R   0.028142 0.555963 0.396043 -0.139629
C36   C     C_R   0.044836 0.275769 0.616216 -0.311814
H1    H     H_    0.651206 0.477877 0.271074 0.198142
H2    H     H_    0.739106 0.470100 0.265548 0.175955
H3    H     H_    0.867793 0.178765 0.609980 0.188900
H4    H     H_    0.953518 0.172186 0.610599 0.150405
H5    H     H_    0.024359 0.206960 0.679898 0.133879
O11   O     O_2   0.208897 0.630333 0.310288 -0.505508
C37   C     C_R   0.106805 0.632838 0.298270 0.409332
H6    H     H_    0.255864 0.638345 0.591903 0.170410
C38   C     C_R   0.956135 0.683445 0.393811 0.445151
C39   C     C_R   0.905943 0.683866 0.392973 -0.165601
O12   O     O_2   0.805026 0.681617 0.392626 -0.543572
C40   C     C_R   0.056217 0.629857 0.297274 0.363746
H7    H     H_    0.653058 0.499898 0.719734 0.193487
H8    H     H_    0.890118 0.770203 0.367742 0.208917
C41   C     C_R   0.438628 0.120542 0.733166 0.567700
C42   C     C_R   0.435188 0.063042 0.863966 -0.301225
H9    H     H_    0.423942 0.113166 0.954477 0.165463
C43   C     C_R   0.440131 0.936936 0.875524 -0.374629
H10   H     H_    0.433266 0.895533 0.977554 0.186171
C44   C     C_R   0.446488 0.864684 0.755019 0.576252
C45   C     C_R   0.463265 0.927996 0.627883 -0.113773
C46   C     C_R   0.461540 0.060296 0.622774 -0.145547
C47   C     C_R   0.477187 0.127072 0.500848 -0.178398
C48   C     C_R   0.474770 0.063824 0.374859 0.275889
C49   C     C_R   0.479520 0.934683 0.373838 0.365639
C50   C     C_R   0.478666 0.867189 0.502413 -0.220268
H11   H     H_    0.436228 0.383371 0.133761 0.178688
C51   C     C_R   0.579292 0.636796 0.130336 0.462940
C52   C     C_R   0.621209 0.664366 0.045099 0.308042
C53   C     C_R   0.615165 0.679775 0.903517 -0.395633
H12   H     H_    0.644169 0.721398 0.837593 0.168186
C54   C     C_R   0.571279 0.644898 0.846119 -0.207001
H13   H     H_    0.567789 0.673773 0.740834 0.221265
C55   C     C_R   0.535964 0.569882 0.921101 0.165424
C56   C     C_R   0.537785 0.567725 0.070530 0.049820
N3    N     N_R   0.500460 0.501210 0.147910 -0.172448
C57   C     C_R   0.465055 0.435863 0.076781 -0.045072
H14   H     H_    0.436014 0.385982 0.877928 0.180031
C58   C     C_R   0.465278 0.435678 0.929448 -0.080344
N4    N     N_R   0.500480 0.501290 0.852040 -0.161692
O13   O     O_3   0.359376 0.297565 0.365920 -0.580289
C59   C     C_3   0.342387 0.173872 0.400751 -0.170699
H15   H     H_    0.322724 0.131237 0.311498 0.191079
H16   H     H_    0.318917 0.165096 0.496137 0.153561
H17   H     H_    0.373915 0.118993 0.419807 0.174627
O14   O     O_3   0.133236 0.712749 0.206949 -0.525095
C60   C     C_3   0.136387 0.833285 0.264015 -0.158116
H18   H     H_    0.152867 0.833840 0.368953 0.148976
H19   H     H_    0.100424 0.872414 0.269534 0.174224
H20   H     H_    0.160099 0.895567 0.195129 0.188494
O15   O     O_3   0.981813 0.797895 0.382200 -0.689356
H21   H     H_    0.011952 0.794266 0.435470 0.320214
O16   O     O_3   0.746735 0.491458 0.740049 -0.560181
C61   C     C_3   0.759835 0.615763 0.776132 -0.301109
H22   H     H_    0.727657 0.670882 0.787373 0.140043
H23   H     H_    0.785883 0.661261 0.698684 0.181978
H24   H     H_    0.777931 0.615849 0.878199 0.202045
O17   O     O_3   0.034794 0.697759 0.195341 -0.533308
C62   C     C_3   0.021594 0.617269 0.085332 -0.210862
H25   H     H_    0.993898 0.542780 0.119939 0.146217
H26   H     H_    0.053685 0.575539 0.039269 0.163148
H27   H     H_    0.005446 0.672212 0.002146 0.184126
O18   O     O_3   0.465650 0.128783 0.254747 -0.716891
H28   H     H_    0.444476 0.073340 0.196421 0.327285
O19   O     O_3   0.416859 0.230471 0.707323 -0.588087
C63   C     C_3   0.368328 0.221550 0.756438 -0.366514
H29   H     H_    0.366357 0.235270 0.870745 0.154884
H30   H     H_    0.348778 0.131421 0.728527 0.169320
H31   H     H_    0.349248 0.297239 0.707886 0.192600
O20   O     O_3   0.256473 0.287646 0.333564 -0.569395
C64   C     C_3   0.258886 0.324783 0.192234 -0.286834
H32   H     H_    0.296886 0.335065 0.152317 0.170847
H33   H     H_    0.241027 0.412816 0.175421 0.190254
H34   H     H_    0.239308 0.251474 0.130302 0.194430
O21   O     O_3   0.432605 0.737268 0.753714 -0.520004
C65   C     C_3   0.405758 0.690889 0.872138 -0.197101
H35   H     H_    0.374007 0.745589 0.893481 0.148491
H36   H     H_    0.429366 0.686678 0.964085 0.146066
H37   H     H_    0.391237 0.594362 0.851213 0.193134
O22   O     O_3   0.482231 0.872333 0.247891 -0.570180
C66   C     C_3   0.520462 0.925621 0.161657 -0.223935
H38   H     H_    0.551305 0.968724 0.221157 0.141374
H39   H     H_    0.507566 0.995747 0.088874 0.180794
H40   H     H_    0.533905 0.851958 0.095066 0.180826
O23   O     O_3   0.574510 0.691839 0.259518 -0.542999
C67   C     C_3   0.610899 0.782937 0.298805 -0.229492
H41   H     H_    0.620475 0.852354 0.214457 0.166856
H42   H     H_    0.643014 0.738352 0.337100 0.216535
H43   H     H_    0.596790 0.834972 0.387892 0.132201
O24   O     O_3   0.666380 0.685026 0.102549 -0.750066
H44   H     H_    0.690926 0.702542 0.027260 0.335161
O25   O     O_3   0.117048 0.188143 0.697926 -0.676658
H45   H     H_    0.091945 0.131011 0.744449 0.318690
O26   O     O_3   0.351462 0.684499 0.607640 -0.702363
H46   H     H_    0.327444 0.742033 0.640249 0.325517

loop_
_geom_bond_atom_site_label_1
_geom_bond_atom_site_label_2
_geom_bond_distance
_ccdc_geom_bond_type
C42   C43   1.378055 A    
O15   H21   0.991031 S    
C17   C29   1.405213 A    
C28   C29   1.393162 A    
C8    O26   1.377595 S    
C7    C8    1.401571 A    
C12   C15   1.415746 A    
C49   C50   1.424994 A    
C66   H40   1.106139 S    
C61   H23   1.112160 S    
C60   H18   1.113980 S    
C30   H7    1.081965 S    
C37   C40   1.402039 A    
C56   N3    1.410758 A    
O17   C62   1.410070 S    
Cu1   O7    1.942758 S    
N1    C11   1.436642 S    
C20   C24   1.417397 A    
C24   C25   1.406934 A    
O2    C1    1.303730 A    
C62   H26   1.113649 S    
O4    C2    1.295117 A    
O7    C4    1.304486 A    
C5    C13   1.411637 A    
C40   O17   1.383905 S    
C10   O20   1.382333 S    
O19   C63   1.415366 S    
C63   H29   1.110364 S    
Cu1   O5    1.950707 S    
C22   C23   1.398496 A    
C47   C48   1.395235 A    
C19   C38   1.427249 A    
O5    C3    1.301603 A    
C64   H34   1.109170 S    
C55   C56   1.437050 A    
C2    C16   1.470075 S    
C23   C24   1.408064 A    
C43   H10   1.080209 S    
C37   O14   1.384051 S    
C44   C45   1.444937 A    
C51   O23   1.389342 S    
C28   H2    1.082943 S    
C49   O22   1.393440 S    
C6    O11   1.349148 S    
C29   H1    1.082047 S    
N2    C32   1.435151 S    
C26   O12   1.349775 S    
C42   H9    1.081661 S    
C38   C39   1.393351 A    
O1    Cu1   1.955210 S    
C9    C10   1.417469 A    
C17   C30   1.405101 A    
C41   O19   1.389744 S    
C55   N4    1.371586 A    
C19   C35   1.421420 A    
C67   H43   1.109244 S    
C61   H22   1.112328 S    
C60   H19   1.112139 S    
C31   O16   1.381085 S    
C21   C22   1.391377 A    
C33   C36   1.408587 A    
C7    H6    1.083407 S    
C48   C49   1.406315 A    
C6    C15   1.409881 A    
C38   O15   1.379584 S    
C18   C33   1.421426 A    
O23   C67   1.413998 S    
C12   C13   1.416190 A    
C53   C54   1.374287 A    
C15   C37   1.413725 A    
C62   H27   1.109218 S    
N2    C27   1.368232 A    
C51   C52   1.421990 A    
C46   C47   1.412363 A    
C8    C16   1.405025 A    
C65   H37   1.108323 S    
O3    Cu1   1.950357 S    
C13   C14   1.413125 A    
C48   O18   1.379426 S    
C59   H17   1.107894 S    
O1    C1    1.309969 A    
C12   C34   1.418901 A    
C7    C11   1.396242 A    
C30   C31   1.400015 A    
C25   C26   1.403948 A    
C33   C34   1.416262 A    
C3    C50   1.495918 S    
Cu2   O8    1.950352 S    
O14   C60   1.411567 S    
C59   H16   1.113888 S    
N1    C6    1.365529 A    
O24   H44   0.991671 S    
H11   C57   1.081751 S    
C64   H32   1.113106 S    
C51   C56   1.454603 A    
C67   H42   1.109317 S    
C34   C35   1.415248 A    
C9    C16   1.413887 A    
O8    C4    1.305069 A    
C41   C42   1.393162 A    
C54   C55   1.406204 A    
C57   C58   1.415086 A    
O21   C65   1.414720 S    
O3    C2    1.309519 A    
C27   O10   1.349551 S    
C4    C17   1.475156 S    
C66   H38   1.113033 S    
C45   C50   1.450540 A    
O13   C59   1.414137 S    
C60   H20   1.109269 S    
O20   C64   1.410023 S    
C44   O21   1.397474 S    
O18   H28   0.991191 S    
C9    O13   1.392104 S    
C21   H4    1.078449 S    
C5    N1    1.365604 A    
C65   H36   1.111282 S    
C35   C40   1.416432 A    
C18   C21   1.414292 A    
N3    C57   1.363471 A    
C19   C20   1.416420 A    
O2    Cu2   1.950707 S    
C31   C32   1.407187 A    
C53   H12   1.082795 S    
C66   H39   1.106261 S    
O6    C3    1.317517 A    
O4    Cu2   1.942761 S    
C41   C46   1.414735 A    
C36   H5    1.077860 S    
C63   H31   1.107128 S    
C39   H8    1.083740 S    
O26   H46   0.991855 S    
C14   C36   1.402704 A    
C23   C27   1.404258 A    
C45   C46   1.428986 A    
C62   H25   1.112984 S    
C18   C20   1.418055 A    
Cu1   N4    2.030807 S    
C26   N2    1.368331 A    
C65   H35   1.112630 S    
C59   H15   1.109665 S    
C63   H30   1.113953 S    
O22   C66   1.417749 S    
Cu2   N3    2.030528 S    
C1    C47   1.486280 S    
C64   H33   1.112924 S    
C25   C39   1.398437 A    
Cu1   Cu2   2.702118 S    
C52   C53   1.382809 A    
H14   C58   1.070693 S    
C52   O24   1.382371 S    
C22   H3    1.083394 S    
Cu2   O6    1.955211 S    
C54   H13   1.062877 S    
O16   C61   1.409262 S    
O25   H45   0.991597 S    
C43   C44   1.417263 A    
C28   C32   1.399325 A    
C10   C11   1.403811 A    
C67   H41   1.111550 S    
C58   N4    1.366571 A    
C14   O25   1.383605 S    
C61   H24   1.109243 S    
C5    O9    1.349346 S    
