data_mof_unit_17464.cif
_audit_creation_date              2012-12-10T17:50:13-0500
_audit_creation_method            fapswitch 2.2
_symmetry_space_group_name_H-M    P1
_symmetry_Int_Tables_number       1
_space_group_crystal_system       triclinic
_cell_length_a                    10.658111
_cell_length_b                    14.788778
_cell_length_c                    14.856139
_cell_angle_alpha                 64.445993
_cell_angle_beta                  104.460611
_cell_angle_gamma                 103.17446
_cell_volume                      2026.18741051

loop_
_atom_site_label
_atom_site_type_symbol
_atom_type_description
_atom_site_fract_x
_atom_site_fract_y
_atom_site_fract_z
_atom_type_partial_charge
C1    C     C_R   0.479310 0.120147 0.312324 0.862909
C2    C     C_R   0.520801 0.880247 0.687618 0.879477
C3    C     C_R   0.503457 0.294013 0.176616 0.346641
C4    C     C_R   0.532512 0.710635 0.828036 0.343845
C5    C     C_R   0.465416 0.361914 0.075911 -0.099815
C6    C     C_R   0.497359 0.640473 0.921918 -0.103814
C7    C     C_R   0.419855 0.323230 0.999480 0.078662
C8    C     C_R   0.486457 0.677666 0.992761 0.076593
C9    C     C_R   0.472255 0.467247 0.049088 0.094367
C10   C     C_R   0.471478 0.534648 0.946813 0.095092
C11   C     C_R   0.432679 0.494699 0.871671 -0.243200
C12   C     C_R   0.467803 0.506022 0.119859 -0.236146
C13   C     C_R   0.403347 0.390857 0.897658 -0.135481
C14   C     C_R   0.471057 0.609203 0.091352 -0.126171
C15   C     C_R   0.762104 0.312176 0.617371 -0.212922
C16   C     C_R   0.264956 0.705114 0.345725 -0.198315
C17   C     C_R   0.710172 0.219423 0.612032 0.485778
C18   C     C_R   0.301364 0.788008 0.371576 0.477995
C19   C     C_R   0.507379 0.279522 0.521875 0.533026
C20   C     C_R   0.489445 0.718169 0.484511 0.517666
C21   C     C_R   0.560059 0.379144 0.520544 -0.168387
C22   C     C_R   0.460443 0.634258 0.453493 -0.180644
C23   C     C_R   0.259841 0.999946 0.499796 0.891404
C24   C     C_R   0.740182 0.999989 0.500301 0.915380
C25   C     C_R   0.689514 0.392762 0.571681 -0.011614
C26   C     C_R   0.343786 0.629076 0.383833 -0.002715
C27   C     C_R   0.490724 0.465464 0.470169 0.057711
C28   C     C_R   0.540494 0.555234 0.489011 0.046666
C29   C     C_R   0.672380 0.566655 0.534225 -0.299812
C30   C     C_R   0.380499 0.468837 0.394213 -0.311346
C31   C     C_R   0.746879 0.486895 0.575609 0.450805
C32   C     C_R   0.306929 0.549095 0.351162 0.438097
C33   C     C_3   0.007670 0.923310 0.474075 -0.363177
C34   C     C_3   0.992407 0.076531 0.526137 -0.342562
C35   C     C_3   0.931238 0.014158 0.408774 0.335851
C36   C     C_3   0.068840 0.985674 0.591446 0.336877
C37   C     C_3   0.876802 0.000855 0.500592 -0.143699
C38   C     C_3   0.123255 0.998996 0.499611 -0.134459
C39   C     C_3   0.954078 0.911901 0.566544 0.342800
C40   C     C_3   0.045975 0.087929 0.433666 0.348170
C41   C     C_R   0.463533 0.189424 0.204344 -0.101045
C42   C     C_R   0.520412 0.812807 0.794936 -0.111361
C43   C     C_R   0.390621 0.217923 0.026111 0.423591
C44   C     C_R   0.489059 0.782303 0.963323 0.428283
C45   C     C_R   0.407494 0.152053 0.129011 -0.358795
C46   C     C_R   0.500422 0.848617 0.862848 -0.350297
Cu1   Cu    Cu3+1 0.465750 0.918270 0.475680 1.034062
Cu2   Cu    Cu3+1 0.534250 0.081730 0.524320 1.042974
H1    H     H_    0.861063 0.320376 0.657705 0.228480
H2    H     H_    0.174286 0.702061 0.293412 0.230527
H3    H     H_    0.014207 0.861275 0.452993 0.212763
H4    H     H_    0.985978 0.138613 0.547180 0.218377
H5    H     H_    0.416150 0.543343 0.791955 0.192186
H6    H     H_    0.453227 0.456487 0.196326 0.196691
N1    N     N_R   0.585750 0.204560 0.560800 -0.238395
N2    N     N_R   0.414250 0.795440 0.439200 -0.238395
O1    O     O_R   0.454850 0.022100 0.338110 -0.638837
O2    O     O_R   0.545150 0.977900 0.661890 -0.639986
O3    O     O_R   0.512700 0.160150 0.379180 -0.500564
O4    O     O_R   0.487300 0.839850 0.620820 -0.498257
O5    O     O_R   0.287930 0.931000 0.479440 -0.617428
O6    O     O_R   0.712070 0.069000 0.520560 -0.593433
O7    O     O_R   0.345780 0.069050 0.520520 -0.493269
O8    O     O_R   0.654220 0.930950 0.479480 -0.504116
O9    O     O_3   0.855963 0.031434 0.312683 -0.701093
H7    H     H_    0.917194 0.035625 0.270168 0.348107
O10   O     O_3   0.144213 0.968397 0.687512 -0.706816
H8    H     H_    0.083049 0.964181 0.730087 0.350302
O11   O     O_3   0.584859 0.720267 0.565254 -0.637127
H9    H     H_    0.581160 0.650398 0.617982 0.330926
O12   O     O_3   0.376718 0.253990 0.491036 -0.671140
H10   H     H_    0.327552 0.283242 0.518171 0.316301
O13   O     O_3   0.215109 0.857749 0.329721 -0.733922
H11   H     H_    0.264064 0.924459 0.321566 0.366385
O14   O     O_3   0.790083 0.145208 0.659292 -0.726019
H12   H     H_    0.734357 0.079848 0.684174 0.360949
H13   H     H_    0.721784 0.639350 0.533079 0.195152
H14   H     H_    0.353907 0.412020 0.363026 0.192921
O15   O     O_3   0.902893 0.820769 0.637646 -0.677000
H15   H     H_    0.973493 0.777507 0.665507 0.333636
O16   O     O_3   0.097081 0.179048 0.362508 -0.693409
H16   H     H_    0.026229 0.222105 0.334305 0.339095
H17   H     H_    0.369102 0.363880 0.837362 0.199546
H18   H     H_    0.462331 0.635014 0.147311 0.205720
O17   O     O_3   0.590342 0.683708 0.771510 -0.703273
H19   H     H_    0.638165 0.625785 0.817948 0.331976
O18   O     O_3   0.589017 0.326856 0.246733 -0.714043
H20   H     H_    0.647724 0.387478 0.210292 0.331720
H21   H     H_    0.493614 0.928121 0.837754 0.187408
H22   H     H_    0.379137 0.071382 0.150010 0.181822
O19   O     O_3   0.342457 0.181224 0.951037 -0.725969
H23   H     H_    0.327535 0.106222 0.982635 0.336994
O20   O     O_3   0.475075 0.817501 0.032196 -0.722494
H24   H     H_    0.478816 0.892158 0.999237 0.335641
O21   O     O_3   0.876400 0.499418 0.620595 -0.732569
H25   H     H_    0.901270 0.569172 0.618156 0.331252
O22   O     O_3   0.198002 0.550686 0.276880 -0.729632
H26   H     H_    0.185170 0.489135 0.262844 0.333362

loop_
_geom_bond_atom_site_label_1
_geom_bond_atom_site_label_2
_ccdc_geom_bond_type
C25   C31   A    
Cu2   N1    S    
C38   C40   S    
O18   H20   S    
C26   C32   A    
O20   H24   S    
C34   C37   S    
O13   H11   S    
C19   O12   S    
O21   H25   S    
C14   H18   S    
C20   N2    A    
O22   H26   S    
C36   O10   S    
C46   H21   S    
O17   H19   S    
C33   C39   S    
C34   C40   S    
C28   C29   A    
C35   C37   S    
C16   H2    S    
C1    O3    A    
C2    O4    A    
C15   C25   A    
C35   O9    S    
C32   O22   S    
C42   C46   A    
C44   O20   S    
Cu1   O4    S    
C8    C14   A    
C7    C43   A    
C9    C10   A    
C17   N1    A    
C11   H5    S    
C18   N2    A    
C23   O7    A    
C21   C27   A    
C24   O8    A    
C22   C28   A    
C27   C30   A    
C44   C46   A    
O16   H16   S    
C16   C26   A    
C37   C39   S    
C3    O18   S    
O10   H8    S    
C4    C6    A    
C10   C11   A    
Cu1   O8    S    
C5    C7    A    
Cu2   O7    S    
C6    C8    A    
C4    O17   S    
C43   O19   S    
C39   O15   S    
O14   H12   S    
C5    C9    A    
C1    O1    A    
Cu1   O1    S    
Cu2   O6    S    
Cu1   Cu2   S    
C7    C13   A    
C24   C37   S    
C45   H22   S    
C43   C45   A    
C1    C41   S    
C12   C14   A    
C18   O13   S    
C20   O11   S    
O19   H23   S    
Cu2   O3    S    
C19   N1    A    
C15   C17   A    
C21   C25   A    
C3    C41   A    
C24   O6    A    
C19   C21   A    
C40   O16   S    
C36   C39   S    
C8    C44   A    
C20   C22   A    
C3    C5    A    
Cu1   O5    S    
C2    O2    A    
Cu2   O2    S    
C33   H3    S    
C23   C38   S    
C13   H17   S    
C34   H4    S    
C33   C38   S    
C36   C38   S    
C35   C40   S    
O12   H10   S    
C29   C31   A    
C30   C32   A    
C11   C13   A    
C4    C42   A    
C2    C42   S    
C31   O21   S    
C33   C35   S    
C34   C36   S    
C15   H1    S    
O11   H9    S    
C9    C12   A    
C6    C10   A    
O15   H15   S    
C30   H14   S    
C23   O5    A    
C29   H13   S    
C16   C18   A    
O9    H7    S    
C22   C26   A    
C27   C28   A    
C17   O14   S    
C41   C45   A    
C12   H6    S    
Cu1   N2    S    
