data_mof_unit_18237.cif
_audit_creation_date              2012-12-11T19:09:42-0500
_audit_creation_method            fapswitch 2.2
_symmetry_space_group_name_H-M    P1
_symmetry_Int_Tables_number       1
_space_group_crystal_system       triclinic
_cell_length_a                    8.20977
_cell_length_b                    15.043545
_cell_length_c                    27.024079
_cell_angle_alpha                 98.725853
_cell_angle_beta                  92.412635
_cell_angle_gamma                 81.339746
_cell_volume                      3260.70647846

loop_
_atom_site_label
_atom_site_type_symbol
_atom_type_description
_atom_site_fract_x
_atom_site_fract_y
_atom_site_fract_z
_atom_type_partial_charge
Ba1   Ba    Ba6+2 0.860050 0.456430 0.522540 1.670034
Ba2   Ba    Ba6+2 0.329780 0.543490 0.477450 1.656358
C1    C     C_3   0.701560 0.137111 0.652285 -0.376266
C2    C     C_R   0.874774 0.578622 0.175533 0.588494
C3    C     C_2   0.757563 0.557994 0.274323 -0.066563
C4    C     C_3   0.205617 0.264427 0.657333 0.279938
C5    C     C_3   0.732506 0.589942 0.329465 -0.047411
C6    C     C_1   0.986806 0.489965 0.344627 0.062937
C7    C     C_2   0.034702 0.491764 0.297938 -0.118176
C8    C     C_2   0.911781 0.522356 0.258022 0.171958
C9    C     C_R   0.029356 0.505603 0.101710 -0.114963
C10   C     C_R   0.121730 0.444604 0.131264 -0.075842
C11   C     C_R   0.257371 0.383600 0.108405 -0.003735
C12   C     C_3   0.694554 0.227607 0.633055 0.357173
C13   C     C_R   0.895703 0.567128 0.123227 -0.027275
C14   C     C_2   0.843601 0.533234 0.362030 -0.253110
C15   C     C_2   0.360437 0.485228 0.640692 -0.270593
C16   C     C_3   0.178039 0.253429 0.711008 -0.338842
C17   C     C_R   0.236320 0.440250 0.976429 0.032258
C18   C     C_R   0.025346 0.574630 0.972461 0.017071
C19   C     C_R   0.150825 0.507341 0.949103 0.017725
C20   C     C_R   0.351565 0.371096 0.950441 -0.098798
C21   C     C_R   0.386026 0.369767 0.900253 -0.061775
C22   C     C_R   0.308342 0.437617 0.873479 -0.023220
C23   C     C_3   0.470627 0.686042 0.632429 0.276948
C24   C     C_R   0.191157 0.506822 0.897924 -0.084932
C25   C     C_R   0.114594 0.575449 0.871165 -0.054609
C26   C     C_R   0.157016 0.574830 0.820730 0.597586
C27   C     C_R   0.344645 0.436897 0.822566 0.574011
C28   C     C_3   0.276747 0.253677 0.376309 0.241509
C29   C     C_2   0.468682 0.490727 0.728919 -0.075304
C30   C     C_3   0.509947 0.492442 0.674825 -0.047452
C31   C     C_1   0.214095 0.522791 0.657456 -0.002184
C32   C     C_2   0.175772 0.522548 0.704844 -0.138188
C33   C     C_2   0.309379 0.505034 0.743854 0.207375
C34   C     C_3   0.439732 0.721915 0.687534 -0.403503
C35   C     C_R   0.202706 0.443613 0.028332 0.014103
C36   C     C_R   0.069493 0.505581 0.050505 0.037640
C37   C     C_R   0.974263 0.567071 0.021614 -0.001041
C38   C     C_R   0.297410 0.386040 0.058740 -0.135529
C39   C     C_R   0.785288 0.615825 0.091737 0.213716
C40   C     C_3   0.349984 0.207424 0.326079 -0.311696
C41   C     C_R   0.958576 0.647363 0.945676 0.168386
C42   C     C_R   0.000629 0.645356 0.895723 -0.090337
C43   C     C_R   0.824576 0.614317 0.041790 -0.106648
C44   C     C_R   0.353610 0.176899 0.537042 0.050203
C45   C     C_3   0.017967 0.742958 0.347076 0.340691
C46   C     C_R   0.577071 0.209804 0.490008 0.042660
C47   C     C_R   0.766664 0.772429 0.490314 -0.251499
C48   C     C_R   0.855375 0.831256 0.471878 0.015330
C49   C     C_R   0.795699 0.924232 0.476889 -0.161335
C50   C     C_R   0.643943 0.959823 0.500986 0.007902
C51   C     C_R   0.559085 0.898657 0.521869 -0.012690
C52   C     C_3   0.906683 0.740776 0.644084 0.471885
C53   C     C_R   0.574859 0.053947 0.505920 0.018177
C54   C     C_R   0.425086 0.084661 0.532539 -0.003040
C55   C     C_R   0.349166 0.022845 0.553872 -0.100810
C56   C     C_3   0.014017 0.771922 0.295502 -0.345761
C57   C     C_R   0.414831 0.932124 0.548816 -0.053035
C58   C     C_R   0.646481 0.118207 0.484011 -0.119908
C59   C     C_R   0.434253 0.238989 0.517435 -0.263363
C60   C     C_R   0.621573 0.805049 0.515788 0.035112
C61   C     C_3   0.953736 0.763844 0.699246 -0.389446
C62   C     C_3   0.697844 0.332129 0.368175 0.315507
C63   C     C_3   0.750492 0.292486 0.314358 -0.107993
C64   C     C_3   0.957126 0.876800 0.607805 -0.197841
C65   C     C_3   0.552305 0.368199 0.258335 -0.185752
C66   C     C_2   0.365522 0.315403 0.133741 0.894895
C67   C     C_3   0.484900 0.789583 0.370900 0.334648
C68   C     C_3   0.507593 0.604606 0.116288 -0.171502
C69   C     C_3   0.951322 0.797306 0.993696 -0.227850
C70   C     C_2   0.237994 0.184233 0.406903 0.815361
C71   C     C_3   0.434606 0.881771 0.353984 -0.308738
C72   C     C_R   0.075348 0.447945 0.182278 0.598658
H1    H     H_    0.811591 0.227196 0.613955 0.109205
H2    H     H_    0.582761 0.381153 0.367879 0.058667
H3    H     H_    0.806783 0.127752 0.679144 0.134636
H4    H     H_    0.884658 0.267333 0.314885 0.128469
H5    H     H_    0.689486 0.232168 0.300118 0.109708
H6    H     H_    0.590391 0.234244 0.605896 -0.046016
H7    H     H_    0.718029 0.080775 0.620420 0.067029
H8    H     H_    0.354106 0.667917 0.614455 0.068718
H9    H     H_    0.566739 0.625144 0.628905 0.014371
H10   H     H_    0.357826 0.788575 0.691259 0.132963
H11   H     H_    0.378766 0.673986 0.705084 0.080704
H12   H     H_    0.369953 0.259154 0.302912 0.102683
H13   H     H_    0.558539 0.731109 0.707631 0.105773
H14   H     H_    0.585113 0.134926 0.671260 0.121259
H15   H     H_    0.240137 0.302670 0.736870 0.128350
H16   H     H_    0.104808 0.678536 0.346465 0.082243
H17   H     H_    0.892251 0.731819 0.355256 -0.063357
H18   H     H_    0.137922 0.785496 0.286332 0.146472
H19   H     H_    0.977486 0.716883 0.266969 0.119719
H20   H     H_    0.923315 0.834566 0.294527 0.125099
H21   H     H_    0.621633 0.776800 0.372543 -0.075746
H22   H     H_    0.437306 0.792415 0.409030 0.082184
H23   H     H_    0.469182 0.164133 0.332095 0.102447
H24   H     H_    0.486642 0.934718 0.380548 0.105623
H25   H     H_    0.298360 0.898961 0.352897 0.176975
H26   H     H_    0.157599 0.335484 0.652758 0.070641
H27   H     H_    0.482576 0.880880 0.316076 0.112564
H28   H     H_    0.163758 0.473561 0.289138 0.146608
H29   H     H_    0.569196 0.483108 0.756112 0.107650
H30   H     H_    0.474944 0.314778 0.882396 0.122519
H31   H     H_    0.414381 0.314893 0.967378 0.072965
H32   H     H_    0.405731 0.341106 0.044530 0.094243
H33   H     H_    0.655913 0.573878 0.248659 0.117451
H34   H     H_    0.263988 0.164327 0.304965 0.139347
H35   H     H_    0.339455 0.250638 0.650385 -0.012103
H36   H     H_    0.945758 0.701138 0.876486 0.120849
H37   H     H_    0.047522 0.532651 0.715338 0.124212
H38   H     H_    0.730085 0.646360 0.018497 0.105944
H39   H     H_    0.823419 0.547060 0.401799 0.074877
H40   H     H_    0.374306 0.452349 0.602150 0.070955
H41   H     H_    0.380429 0.309801 0.520959 0.061415
H42   H     H_    0.237264 0.043500 0.574900 0.093456
H43   H     H_    0.754274 0.099186 0.461185 0.100139
H44   H     H_    0.814585 0.700714 0.486622 0.073191
H45   H     H_    0.806086 0.699854 0.641871 0.058995
H46   H     H_    0.871285 0.966490 0.462290 0.098432
H47   H     H_    0.044558 0.266243 0.718742 0.143044
H48   H     H_    0.348762 0.888862 0.566364 0.098394
H49   H     H_    0.228785 0.183726 0.717483 0.116880
H50   H     H_    0.365101 0.293623 0.398017 -0.029971
H51   H     H_    0.740817 0.861180 0.641522 0.190616
H52   H     H_    0.888505 0.935409 0.591601 0.087136
H53   H     H_    0.039681 0.836243 0.578353 0.149457
H54   H     H_    0.030075 0.903764 0.640674 0.094639
H55   H     H_    0.805530 0.352240 0.253799 0.231848
H56   H     H_    0.996398 0.700814 0.715133 0.127968
H57   H     H_    0.536745 0.422514 0.234224 0.133868
H58   H     H_    0.458351 0.386316 0.287748 0.144289
H59   H     H_    0.531904 0.303399 0.235148 0.134914
H60   H     H_    0.599573 0.260955 0.148815 0.309092
H61   H     H_    0.579986 0.716481 0.091209 0.192713
H62   H     H_    0.426545 0.595337 0.082097 0.080713
H63   H     H_    0.428627 0.637407 0.148711 0.125931
H64   H     H_    0.568331 0.536629 0.124449 0.117500
H65   H     H_    0.762807 0.752811 0.946789 0.191382
H66   H     H_    0.864992 0.853528 0.014343 0.119706
H67   H     H_    0.844268 0.801064 0.720364 0.086324
H68   H     H_    0.015404 0.825463 0.965505 0.108224
H69   H     H_    0.044097 0.769048 0.020811 0.121465
H70   H     H_    0.144219 0.282204 0.460711 0.281930
H71   H     H_    0.053705 0.806138 0.704019 0.118767
H72   H     H_    0.796740 0.367541 0.387599 0.016159
N1    N     N_R   0.954702 0.515719 0.204601 -0.423942
N2    N     N_R   0.269377 0.505269 0.796383 -0.422254
N3    N     N_2   0.841219 0.822632 0.623116 -0.431051
N4    N     N_2   0.716360 0.359390 0.280499 -0.472087
N5    N     N_2   0.628455 0.662040 0.108936 -0.384682
N6    N     N_2   0.858840 0.727165 0.969274 -0.441002
O1    O     O_2   0.906490 0.548660 0.619040 -0.498193
O2    O     O_2   0.194489 0.823603 0.472652 -0.481047
O3    O     O_3   0.070077 0.811508 0.382615 -0.592970
O4    O     O_3   0.138490 0.548590 0.558860 -0.446843
O5    O     O_3   0.572560 0.389970 0.472910 -0.498009
O6    O     O_2   0.345680 0.723560 0.528460 -0.449494
O7    O     O_3   0.525110 0.754263 0.610656 -0.656808
O8    O     O_2   0.403524 0.547934 0.324179 -0.508089
O9    O     O_3   0.418908 0.722399 0.337283 -0.589313
O10   O     O_2   0.141835 0.390269 0.206573 -0.589597
O11   O     O_2   0.442669 0.374745 0.801519 -0.598925
O12   O     O_3   0.670331 0.259649 0.392131 -0.661618
O13   O     O_2   0.789524 0.647345 0.195346 -0.589382
O14   O     O_2   0.095646 0.637428 0.798859 -0.622133
O15   O     O_3   0.686290 0.382320 0.585720 -0.491770
O16   O     O_2   0.851939 0.425477 0.670104 -0.495017
O17   O     O_3   0.045337 0.695250 0.616829 -0.624156
O18   O     O_3   0.670842 0.299062 0.673222 -0.591131
O19   O     O_2   0.844020 0.276410 0.471510 -0.409763
O20   O     O_3   0.101490 0.335510 0.560360 -0.484449
O21   O     O_2   0.010076 0.174360 0.533105 -0.442536
O22   O     O_2   0.307782 0.255602 0.150148 -0.564796
O23   O     O_3   0.122485 0.203178 0.625197 -0.622917
O24   O     O_R   0.536420 0.314567 0.134178 -0.784774
O25   O     O_2   0.271902 0.102305 0.392965 -0.611307
O26   O     O_R   0.152392 0.214400 0.450881 -0.701389
O27   O     O_2   0.283210 0.451320 0.380930 -0.484403
O28   O     O_3   0.051220 0.451340 0.441130 -0.487997
O29   O     O_3   0.503420 0.617610 0.414270 -0.474858
O30   O     O_3   0.126046 0.306686 0.367186 -0.661980
O31   O     O_3   0.617160 0.609950 0.527080 -0.473170
O32   O     O_3   0.088220 0.664410 0.439630 -0.487713
P1    P     P_3+3 0.071960 0.575810 0.612130 0.983258
P2    P     P_3+3 0.664360 0.290070 0.457280 0.994555
P3    P     P_3+3 0.147118 0.220102 0.563555 0.974793
P4    P     P_3+3 0.117760 0.424110 0.387870 0.973500
P5    P     P_3+3 0.052535 0.783035 0.442360 0.975598
P6    P     P_3+3 0.680844 0.401979 0.651188 0.972825
P7    P     P_3+3 0.530703 0.723395 0.545782 0.957105
P8    P     P_3+3 0.514323 0.616125 0.350087 0.956720

loop_
_geom_bond_atom_site_label_1
_geom_bond_atom_site_label_2
_ccdc_geom_bond_type
C53   C54   A    
C63   H5    S    
C10   C72   A    
Ba1   O4    S    
C27   O11   D    
C65   H58   S    
C70   O26   S    
C62   O12   S    
C67   H22   S    
C14   H39   S    
C27   N2    Am   
C56   H18   S    
C51   C57   A    
C43   H38   S    
O4    P1    S    
C6    P4    S    
C24   C25   A    
H60   O24   S    
C38   H32   S    
C65   H59   S    
C56   H19   S    
C67   O9    S    
C32   C33   S    
C35   C38   A    
O12   P2    S    
C36   C37   A    
O29   P8    S    
C55   C57   A    
C4    O23   S    
Ba1   O15   S    
O20   P3    S    
H65   N6    S    
O16   P6    D    
C64   H53   S    
Ba1   Ba2   S    
C61   H56   S    
C63   N4    S    
C48   P5    S    
C22   C27   A    
C11   C38   A    
O3    P5    S    
C9    C13   A    
C25   C42   A    
C69   N6    S    
C64   H54   S    
C6    C7    D    
C1    H7    S    
C21   C22   A    
C67   C71   S    
C40   H12   S    
C12   H6    S    
C44   P3    S    
C55   H42   S    
O28   P4    S    
C7    C8    S    
C50   C53   A    
C26   O14   D    
C8    N1    S    
C37   C43   A    
C62   H72   S    
C57   H48   S    
C71   H27   S    
C6    C14   D    
C52   H45   S    
C65   N4    S    
C68   H62   S    
C32   H37   S    
C28   O30   S    
C52   O17   S    
Ba2   O28   S    
C70   O25   D    
O9    P8    S    
C19   C24   A    
C49   H46   S    
C15   H40   S    
C46   C58   A    
C52   N3    S    
C3    C5    S    
C34   H13   S    
C66   O24   S    
C71   H24   S    
C4    C16   S    
C26   N2    Am   
C44   C59   A    
C49   C50   A    
O7    P7    S    
C72   N1    Am   
C17   C20   A    
O5    P2    S    
O8    P8    D    
C64   N3    S    
C40   H23   S    
C72   O10   D    
C18   C37   A    
C66   O22   D    
C23   O7    S    
C7    H28   S    
O30   P4    S    
O27   P4    D    
C16   H47   S    
Ba1   P2    S    
C2    N1    Am   
Ba1   O19   S    
C64   H52   S    
O31   P7    S    
Ba2   O29   S    
C29   H29   S    
C9    C36   A    
C41   C42   A    
C46   P2    S    
C35   C36   A    
C51   C60   A    
C52   C61   S    
C29   C30   S    
Ba2   O6    S    
C48   C49   A    
C62   H2    S    
C30   P6    S    
C58   H43   S    
C15   C31   D    
Ba2   O32   S    
C10   C11   A    
Ba1   O1    S    
C13   C39   A    
C60   P7    S    
C1    C12   S    
H51   N3    S    
Ba1   O31   S    
C69   H68   S    
C5    C14   S    
O2    P5    D    
C28   H50   S    
C68   H64   S    
C23   H8    S    
C4    H35   S    
C29   C33   D    
C5    P8    S    
C17   C35   A    
C54   C55   A    
C1    H3    S    
C18   C41   A    
C50   C51   A    
C69   H69   S    
C3    H33   S    
C71   H25   S    
O15   P6    S    
O18   P6    S    
O21   P3    D    
Ba2   O4    S    
C47   C60   A    
O19   P2    D    
C17   C19   A    
C1    H14   S    
O32   P5    S    
C16   H15   S    
C45   H17   S    
C65   H57   S    
C68   N5    S    
C22   C24   A    
C67   H21   S    
C61   H67   S    
C28   C70   S    
C9    C10   A    
C69   H66   S    
C39   N5    S    
C33   N2    S    
Ba1   P1    S    
C34   H11   S    
C20   H31   S    
C16   H49   S    
Ba1   O20   S    
C63   H4    S    
C62   C63   S    
C2    C13   A    
Ba1   O5    S    
C56   H20   S    
O17   P1    S    
C3    C8    D    
C59   H41   S    
O6    P7    D    
C12   H1    S    
C45   C56   S    
C46   C59   A    
H70   O26   S    
O1    P1    D    
C12   O18   S    
C34   H10   S    
Ba2   O5    S    
H61   N5    S    
Ba1   O28   S    
C31   C32   D    
Ba2   O31   S    
C21   H30   S    
Ba2   P4    S    
C45   H16   S    
C23   C34   S    
O23   P3    S    
C47   H44   S    
H55   N4    S    
C18   C19   A    
C68   H63   S    
C47   C48   A    
Ba2   O27   S    
C44   C54   A    
C25   C26   A    
C23   H9    S    
C15   C30   S    
C39   C43   A    
C20   C21   A    
C28   C40   S    
C31   P1    S    
C2    O13   D    
C53   C58   A    
C40   H34   S    
C61   H71   S    
C41   N6    S    
C4    H26   S    
C45   O3    S    
C11   C66   S    
C42   H36   S    
