data_mof_unit_46359.cif
_audit_creation_date              2012-12-10T17:28:39-0500
_audit_creation_method            fapswitch 2.2
_symmetry_space_group_name_H-M    P1
_symmetry_Int_Tables_number       1
_space_group_crystal_system       triclinic
_cell_length_a                    10.616562
_cell_length_b                    11.931106
_cell_length_c                    12.900648
_cell_angle_alpha                 92.988249
_cell_angle_beta                  89.947865
_cell_angle_gamma                 86.252101
_cell_volume                      1628.36330684

loop_
_atom_site_label
_atom_site_type_symbol
_atom_type_description
_atom_site_fract_x
_atom_site_fract_y
_atom_site_fract_z
_atom_type_partial_charge
Br1   Br    Br    0.229947 0.015239 0.334117 -0.588145
Br2   Br    Br    0.770057 0.984760 0.665879 -0.588149
C1    C     C_R   0.498737 0.521823 0.700571 0.891260
C2    C     C_R   0.485832 0.562172 0.132161 -0.264869
C3    C     C_R   0.510096 0.446402 0.974419 0.177269
C4    C     C_R   0.489901 0.553597 0.025581 0.177269
C5    C     C_R   0.366791 0.956270 0.416668 0.160848
C6    C     C_R   0.633210 0.043730 0.583331 0.160847
C7    C     C_R   0.382249 0.839478 0.423287 -0.040189
C8    C     C_R   0.617752 0.160521 0.576713 -0.040191
C9    C     C_R   0.559582 0.856418 0.533232 -0.041610
C10   C     C_R   0.440418 0.143582 0.466767 -0.041614
C11   C     C_R   0.549155 0.974669 0.529628 -0.019910
C12   C     C_R   0.501263 0.478177 0.299429 0.891243
C13   C     C_R   0.450846 0.025330 0.470371 -0.019909
C14   C     C_R   0.739810 0.498071 0.484088 0.897439
C15   C     C_R   0.260186 0.501927 0.515902 0.897426
C16   C     C_R   0.905259 0.287189 0.454195 -0.135468
C17   C     C_R   0.094722 0.712804 0.545774 -0.135477
C18   C     C_R   0.968442 0.189498 0.487522 -0.082325
C19   C     C_R   0.031536 0.810495 0.512448 -0.082322
C20   C     C_R   0.075516 0.197071 0.548739 -0.096577
C21   C     C_R   0.924470 0.802924 0.451223 -0.096600
C22   C     C_R   0.124628 0.301401 0.569615 -0.138753
C23   C     C_R   0.502487 0.465349 0.188249 -0.061948
C24   C     C_R   0.875362 0.698593 0.430346 -0.138735
C25   C     C_R   0.066663 0.400182 0.529162 0.088770
C26   C     C_R   0.933329 0.599812 0.470798 0.088772
C27   C     C_R   0.948377 0.394500 0.482536 0.084122
C28   C     C_R   0.051613 0.605493 0.517426 0.084117
C29   C     C_R   0.124063 0.503926 0.532562 -0.250771
C30   C     C_R   0.875927 0.496069 0.467406 -0.250780
C31   C     C_R   0.497510 0.534651 0.811752 -0.061955
C32   C     C_R   0.474377 0.650638 0.969517 -0.197104
C33   C     C_R   0.525620 0.349362 0.030483 -0.197104
C34   C     C_R   0.478209 0.641179 0.862220 -0.184502
C35   C     C_R   0.521788 0.358821 0.137780 -0.184503
C36   C     C_R   0.514165 0.437828 0.867839 -0.264867
H1    H     H_    0.877750 0.878130 0.421869 0.152764
H2    H     H_    0.529871 0.355270 0.828879 0.169822
H3    H     H_    0.534734 0.283477 0.180963 0.173927
H4    H     H_    0.465264 0.716523 0.819037 0.173927
H5    H     H_    0.459019 0.733136 0.008464 0.155386
H6    H     H_    0.540978 0.266864 0.991536 0.155386
H7    H     H_    0.367440 0.185545 0.421805 0.193443
H8    H     H_    0.632560 0.814455 0.578194 0.193445
H9    H     H_    0.682141 0.214133 0.617065 0.174042
H10   H     H_    0.317860 0.785867 0.382934 0.174041
H11   H     H_    0.122231 0.121866 0.578101 0.152768
H12   H     H_    0.823175 0.278063 0.405549 0.154979
H13   H     H_    0.176798 0.721931 0.594428 0.154985
H14   H     H_    0.932860 0.108184 0.467554 0.159390
H15   H     H_    0.067106 0.891810 0.532428 0.159399
H16   H     H_    0.207190 0.304291 0.618573 0.155752
H17   H     H_    0.792793 0.695705 0.381392 0.155742
H18   H     H_    0.470126 0.644730 0.171121 0.169822
N1    N     N_R   0.523130 0.207800 0.519340 -0.134250
N2    N     N_R   0.476870 0.792200 0.480660 -0.134251
O1    O     O_R   0.506170 0.421700 0.658830 -0.628247
O2    O     O_R   0.493830 0.578300 0.341170 -0.628254
O3    O     O_R   0.491330 0.609310 0.646410 -0.624491
O4    O     O_R   0.508670 0.390690 0.353590 -0.624498
O5    O     O_R   0.690650 0.406190 0.506220 -0.624174
O6    O     O_R   0.309350 0.593810 0.493780 -0.624172
O7    O     O_R   0.675800 0.593810 0.493800 -0.618001
O8    O     O_R   0.324200 0.406190 0.506200 -0.618005
Zn1   Zn    Zn3+2 0.509910 0.374730 0.508290 0.942158
Zn2   Zn    Zn3+2 0.490090 0.625270 0.491710 0.942160

loop_
_geom_bond_atom_site_label_1
_geom_bond_atom_site_label_2
_ccdc_geom_bond_type
C34   H4    S    
C36   H2    S    
C22   C25   A    
C6    C11   A    
C14   O5    A    
C25   C27   A    
C9    N2    A    
C12   O2    A    
C24   C26   A    
C31   C36   A    
C10   C13   A    
N2    Zn2   S    
O7    Zn2   S    
C23   C35   A    
C24   H17   S    
C8    N1    A    
C5    C13   A    
C2    C23   A    
C18   H14   S    
C16   C27   A    
C3    C36   A    
C2    H18   S    
C19   H15   S    
C33   H6    S    
C9    C11   A    
O3    Zn2   S    
O2    Zn2   S    
C15   O8    A    
C28   C29   A    
O4    Zn1   S    
N1    Zn1   S    
C20   H11   S    
C21   H1    S    
C10   N1    A    
C3    C33   A    
C20   C22   A    
C26   C28   A    
C17   C19   A    
C32   C34   A    
C18   C20   A    
O8    Zn1   S    
C27   C30   A    
C16   C18   A    
C11   C13   A    
C12   C23   S    
C35   H3    S    
C3    C4    A    
C15   C29   S    
O5    Zn1   S    
C6    C8    A    
C14   C30   S    
C1    C31   S    
C1    O3    A    
C25   C29   A    
C12   O4    A    
O6    Zn2   S    
C17   H13   S    
C26   C30   A    
C31   C34   A    
C16   H12   S    
C7    H10   S    
C2    C4    A    
C7    N2    A    
C21   C24   A    
C33   C35   A    
C8    H9    S    
C5    C7    A    
C9    H8    S    
C14   O7    A    
O1    Zn1   S    
Br1   C5    S    
C17   C28   A    
C22   H16   S    
C15   O6    A    
C19   C21   A    
Br2   C6    S    
C32   H5    S    
C4    C32   A    
C10   H7    S    
C1    O1    A    
