data_mof_unit_35425.cif
_audit_creation_date              2012-12-10T17:53:13-0500
_audit_creation_method            fapswitch 2.2
_symmetry_space_group_name_H-M    P1
_symmetry_Int_Tables_number       1
_space_group_crystal_system       triclinic
_cell_length_a                    23.423922
_cell_length_b                    10.71493
_cell_length_c                    9.86536
_cell_angle_alpha                 89.943646
_cell_angle_beta                  90.113903
_cell_angle_gamma                 91.811347
_cell_volume                      2474.82095311

loop_
_atom_site_label
_atom_site_type_symbol
_atom_type_description
_atom_site_fract_x
_atom_site_fract_y
_atom_site_fract_z
_atom_type_partial_charge
C1    C     C_R   0.504475 0.260237 0.501058 0.864424
C2    C     C_R   0.120466 0.601560 0.562550 0.521013
C3    C     C_R   0.237601 0.548132 0.385213 0.048121
C4    C     C_R   0.389377 0.501821 0.499773 0.872378
C5    C     C_R   0.297489 0.552350 0.384819 0.393772
C6    C     C_R   0.327227 0.507996 0.499420 -0.173479
C7    C     C_R   0.297058 0.469002 0.615373 -0.289143
C8    C     C_R   0.237974 0.469403 0.616581 -0.150758
C9    C     C_R   0.208413 0.507423 0.501730 0.276454
C10   C     C_R   0.761432 0.475574 0.622899 -0.100018
C11   C     C_R   0.702224 0.476193 0.622104 -0.235503
C12   C     C_R   0.968416 0.299615 0.387164 -0.155180
C13   C     C_R   0.672842 0.497825 0.500591 -0.050085
C14   C     C_R   0.703342 0.517569 0.379728 -0.214847
C15   C     C_R   0.762588 0.516710 0.380835 -0.101779
C16   C     C_R   0.494516 0.739229 0.500680 0.877885
C17   C     C_R   0.791530 0.496027 0.502406 0.323877
C18   C     C_R   0.525008 0.113615 0.756174 -0.160966
C19   C     C_R   0.511375 0.053779 0.877992 -0.148084
C20   C     C_R   0.480492 0.940998 0.876326 -0.121996
C21   C     C_R   0.468308 0.882601 0.752985 -0.098995
C22   C     C_R   0.487204 0.937037 0.629082 0.092427
C23   C     C_R   0.027862 0.301080 0.387370 -0.158487
C24   C     C_R   0.507401 0.060949 0.630229 0.091981
C25   C     C_R   0.508124 0.126638 0.505030 -0.112713
C26   C     C_R   0.502098 0.063278 0.381899 -0.217281
C27   C     C_R   0.494418 0.936297 0.381399 -0.223171
C28   C     C_R   0.610661 0.499696 0.500110 0.873649
C29   C     C_R   0.488380 0.872158 0.503974 -0.139204
C30   C     C_R   0.426791 0.332326 0.140457 -0.097568
C31   C     C_R   0.391195 0.248679 0.069983 -0.195648
C32   C     C_R   0.391138 0.248746 0.929748 -0.184875
C33   C     C_R   0.426733 0.332332 0.859381 -0.126042
C34   C     C_R   0.058993 0.401302 0.446035 -0.025620
C35   C     C_R   0.464288 0.416554 0.927578 0.056677
C36   C     C_R   0.464304 0.416597 0.072344 0.154450
C37   C     C_R   0.533065 0.582139 0.072148 -0.285754
C38   C     C_R   0.533769 0.582041 0.927269 0.509964
C39   C     C_R   0.881409 0.595339 0.562277 0.502481
C40   C     C_R   0.879543 0.399216 0.446261 0.503372
C41   C     C_R   0.939147 0.398331 0.445659 -0.015480
C42   C     C_R   0.970017 0.499130 0.505280 -0.019332
C43   C     C_R   0.941040 0.598569 0.564453 -0.014367
C44   C     C_3   0.621092 0.684898 0.896047 0.069825
C45   C     C_R   0.030007 0.500654 0.505423 -0.021569
C46   C     C_3   0.654477 0.761346 0.791129 -0.735454
C47   C     C_3   0.343060 0.719649 0.286130 0.143255
C48   C     C_3   0.378202 0.762058 0.164031 -0.806885
C49   C     C_R   0.060872 0.601693 0.564640 -0.020893
C50   C     C_R   0.031612 0.700138 0.623643 -0.157476
C51   C     C_R   0.972171 0.698586 0.623557 -0.156967
C52   C     C_R   0.118632 0.405331 0.446743 0.537944
H1    H     H_    0.945536 0.221159 0.340927 0.193549
H2    H     H_    0.493879 0.888484 0.284631 0.169831
H3    H     H_    0.558155 0.650480 0.128802 0.156180
H4    H     H_    0.049283 0.223742 0.341265 0.192712
H5    H     H_    0.423014 0.329087 0.247786 0.202008
H6    H     H_    0.363012 0.184447 0.124667 0.154330
H7    H     H_    0.362972 0.184468 0.874955 0.154503
H8    H     H_    0.423105 0.328702 0.752013 0.205546
H9    H     H_    0.054494 0.778658 0.669748 0.193151
H10   H     H_    0.950758 0.775950 0.669632 0.193299
H11   H     H_    0.319095 0.436144 0.704554 0.188681
H12   H     H_    0.679547 0.459542 0.716240 0.158181
H13   H     H_    0.214908 0.438324 0.706119 0.159532
H14   H     H_    0.784027 0.459183 0.716806 0.139851
H15   H     H_    0.640793 0.591927 0.905521 0.123987
H16   H     H_    0.624672 0.735762 0.993913 0.132066
H17   H     H_    0.637368 0.856699 0.784380 0.250959
H18   H     H_    0.700245 0.768593 0.820535 0.214672
H19   H     H_    0.650802 0.716323 0.690131 0.258421
H20   H     H_    0.218561 0.529703 0.186095 0.229169
H21   H     H_    0.216104 0.677509 0.245869 0.194878
H22   H     H_    0.369856 0.734276 0.378524 0.120603
H23   H     H_    0.681547 0.534581 0.284862 0.154660
H24   H     H_    0.305113 0.779181 0.293310 0.127731
H25   H     H_    0.352734 0.749373 0.069695 0.252471
H26   H     H_    0.390840 0.862338 0.174739 0.190663
H27   H     H_    0.417349 0.706661 0.156649 0.266585
H28   H     H_    0.786113 0.532829 0.287730 0.138989
H29   H     H_    0.503514 0.111526 0.285285 0.168917
H30   H     H_    0.550342 0.199441 0.762518 0.164418
H31   H     H_    0.523523 0.096561 0.973605 0.138684
H32   H     H_    0.467385 0.897001 0.970549 0.132490
H33   H     H_    0.443428 0.795921 0.756052 0.153339
N1    N     N_R   0.852251 0.496803 0.503737 -0.359574
N2    N     N_R   0.147705 0.504571 0.503929 -0.337145
N3    N     N_R   0.499460 0.498800 0.142780 -0.135951
N4    N     N_R   0.499440 0.498720 0.857170 -0.159572
N5    N     N_3   0.205850 0.584124 0.267920 -0.430485
O1    O     O_R   0.500000 0.316780 0.614690 -0.656358
O2    O     O_R   0.583850 0.500050 0.614640 -0.596626
O3    O     O_R   0.583840 0.500030 0.385310 -0.616296
O4    O     O_2   0.852636 0.690031 0.617146 -0.559343
O5    O     O_3   0.563538 0.673291 0.853941 -0.572128
O6    O     O_3   0.326199 0.592735 0.269524 -0.598301
O7    O     O_2   0.848952 0.303360 0.390669 -0.554525
O8    O     O_2   0.147516 0.311305 0.390887 -0.556669
O9    O     O_2   0.151116 0.697493 0.617814 -0.561252
O10   O     O_R   0.500000 0.316750 0.385360 -0.643672
O11   O     O_R   0.416160 0.499970 0.614690 -0.653138
O12   O     O_R   0.416150 0.499950 0.385360 -0.586427
O13   O     O_R   0.500000 0.683250 0.614640 -0.571680
O14   O     O_R   0.500000 0.683220 0.385310 -0.625645
Zn1   Zn    Zn3+2 0.500000 0.500020 0.653130 0.959856
Zn2   Zn    Zn3+2 0.500000 0.499980 0.346870 0.941542

loop_
_geom_bond_atom_site_label_1
_geom_bond_atom_site_label_2
_ccdc_geom_bond_type
C22   C29   A    
C27   C29   A    
C41   C42   A    
O1    Zn1   S    
C37   N3    A    
C35   C36   A    
O14   Zn2   S    
C27   H2    S    
C23   H4    S    
C36   N3    A    
C38   N4    A    
C26   C27   A    
C37   C38   A    
C3    N5    S    
C18   C24   A    
C48   H27   S    
C47   H24   S    
C30   C31   A    
C10   C17   A    
C40   N1    A    
C52   N2    A    
C30   H5    S    
H20   N5    S    
C18   C19   A    
C48   H26   S    
C46   H17   S    
C33   C35   A    
C16   O14   A    
C15   H28   S    
C8    C9    A    
C4    O12   A    
C38   O5    S    
C47   O6    S    
C13   C28   S    
C12   H1    S    
C8    H13   S    
C1    O1    A    
C13   C14   A    
C1    C25   S    
C51   H10   S    
C19   H31   S    
C1    O10   A    
C44   C46   S    
C10   H14   S    
O11   Zn1   S    
C21   H33   S    
C17   N1    S    
C7    C8    A    
C24   C25   A    
C28   O2    A    
C11   H12   S    
C40   O7    S    
C39   C43   A    
C16   C29   S    
C28   O3    A    
C42   C45   A    
C48   H25   S    
C39   O4    S    
C12   C41   A    
C3    C9    A    
C2    C49   A    
O3    Zn2   S    
N3    Zn2   S    
C16   O13   A    
C47   C48   S    
C12   C23   A    
C45   C49   A    
C23   C34   A    
C4    O11   A    
C50   C51   A    
C2    N2    A    
O13   Zn1   S    
C34   C45   A    
C7    H11   S    
C46   H19   S    
C35   N4    A    
C4    C6    S    
C40   C41   A    
C2    O9    S    
C26   H29   S    
C20   H32   S    
C22   C24   A    
C44   H16   S    
C42   C43   A    
C5    O6    S    
C31   H6    S    
C15   C17   A    
C34   C52   A    
C31   C32   A    
C47   H22   S    
C3    C5    A    
H21   N5    S    
C6    C7    A    
C33   H8    S    
O10   Zn2   S    
C39   N1    A    
C30   C36   A    
C32   C33   A    
C19   C20   A    
C25   C26   A    
C44   O5    S    
C9    N2    S    
C11   C13   A    
C43   C51   A    
C5    C6    A    
C52   O8    S    
C18   H30   S    
O12   Zn2   S    
C46   H18   S    
C10   C11   A    
C37   H3    S    
O2    Zn1   S    
C20   C21   A    
C49   C50   A    
N4    Zn1   S    
C50   H9    S    
C14   C15   A    
C44   H15   S    
C32   H7    S    
C21   C22   A    
C14   H23   S    
