data_mof_unit_35750.cif
_audit_creation_date              2013-03-05T15:48:11-0500
_audit_creation_method            fapswitch 2.2
_symmetry_space_group_name_H-M    P1
_symmetry_Int_Tables_number       1
_space_group_crystal_system       triclinic
_cell_length_a                    21.032279
_cell_length_b                    7.126876
_cell_length_c                    14.000754
_cell_angle_alpha                 90.484427
_cell_angle_beta                  98.515172
_cell_angle_gamma                 89.353919
_cell_volume                      2075.32053013

loop_
_atom_site_label
_atom_site_type_symbol
_atom_site_description
_atom_site_fract_x
_atom_site_fract_y
_atom_site_fract_z
_atom_type_partial_charge
O1    O     O_R   0.447130 0.507140 0.597350 -0.594482
O2    O     O_R   0.552870 0.007140 0.402650 -0.592350
O3    O     O_R   0.578910 0.181280 0.586990 -0.593408
O4    O     O_R   0.421090 0.681280 0.413010 -0.596548
C1    C     C_R   0.604425 0.344138 0.607565 0.992615
C2    C     C_R   0.395579 0.844833 0.392412 0.997730
O5    O     O_R   0.449230 0.177860 0.608640 -0.581268
O6    O     O_R   0.550770 0.677860 0.391360 -0.588172
O7    O     O_R   0.422260 0.000770 0.424450 -0.567984
O8    O     O_R   0.577740 0.500770 0.575550 -0.568961
C3    C     C_R   0.433384 0.347854 0.635042 1.051304
C4    C     C_R   0.566516 0.845110 0.365066 1.059905
O9    O     O_3   0.491310 0.336980 0.439550 -0.288999
O10   O     O_3   0.508690 0.836980 0.560450 -0.287587
V1    V     V_3+5 0.501610 0.064760 0.511210 1.235746
V2    V     V_3+5 0.498390 0.564760 0.488790 1.230746
C5    C     C_R   0.612372 0.871136 0.117187 -0.161718
C6    C     C_R   0.383643 0.460810 0.876141 -0.154758
H1    H     H_    0.588262 0.890680 0.044074 0.147761
H2    H     H_    0.406838 0.506615 0.946433 0.147637
C7    C     C_R   0.605294 0.850430 0.287025 -0.300471
C8    C     C_R   0.394372 0.364889 0.713155 -0.304942
C9    C     C_R   0.913195 0.892663 0.296962 -0.174897
C10   C     C_R   0.084916 0.355614 0.700923 -0.172167
C11   C     C_R   0.875581 0.914460 0.369148 -0.100214
C12   C     C_R   0.121670 0.371338 0.627267 -0.101923
C13   C     C_R   0.809351 0.903561 0.347280 -0.033914
C14   C     C_R   0.188077 0.381218 0.648645 -0.035226
C15   C     C_R   0.778604 0.860628 0.252711 0.081698
C16   C     C_R   0.219991 0.365986 0.744614 0.088976
C17   C     C_R   0.816160 0.860576 0.175499 -0.005328
C18   C     C_R   0.182572 0.362580 0.821600 -0.002220
C19   C     C_R   0.710616 0.839540 0.232990 -0.094942
C20   C     C_R   0.288335 0.366670 0.765653 -0.099352
C21   C     C_R   0.679628 0.845566 0.136151 0.008117
C22   C     C_R   0.317247 0.423390 0.859307 0.007555
C23   C     C_R   0.715988 0.831610 0.059606 0.285609
C24   C     C_R   0.279665 0.436441 0.934992 0.284706
C25   C     C_R   0.783302 0.857691 0.077817 0.153989
C26   C     C_R   0.215371 0.374064 0.918466 0.154556
C27   C     C_R   0.671822 0.813450 0.306906 0.246277
C28   C     C_R   0.328738 0.318205 0.695830 0.253751
C29   C     C_R   0.575515 0.882954 0.192001 0.263404
C30   C     C_R   0.421704 0.439444 0.803108 0.266771
C31   C     C_R   0.884930 0.869687 0.200815 -0.126579
C32   C     C_R   0.113957 0.355619 0.797452 -0.131559
H3    H     H_    0.964975 0.902313 0.315677 0.112356
H4    H     H_    0.033005 0.352228 0.682699 0.112199
H5    H     H_    0.782844 0.938339 0.405322 0.155961
H6    H     H_    0.213659 0.409519 0.589091 0.153736
H7    H     H_    0.897833 0.943658 0.442472 0.128672
H8    H     H_    0.098425 0.380960 0.553091 0.127320
C33   C     C_1   0.166778 0.856379 0.167822 -0.297678
C34   C     C_1   0.833231 0.358229 0.832136 -0.296686
C35   C     C_1   0.219243 0.854545 0.218761 0.061080
C36   C     C_1   0.780763 0.355557 0.781216 0.064782
C37   C     C_1   0.280977 0.853860 0.278797 0.081769
C38   C     C_1   0.719020 0.353191 0.721193 0.082051
C39   C     C_1   0.333279 0.851914 0.330191 -0.240687
C40   C     C_1   0.666719 0.350318 0.669811 -0.240123
O11   O     O_R   0.922300 0.202240 0.924350 -0.586752
O12   O     O_R   0.077700 0.702240 0.075650 -0.590455
O13   O     O_R   0.050780 0.535130 0.891350 -0.592889
O14   O     O_R   0.949220 0.035130 0.108650 -0.598646
C41   C     C_R   0.070133 0.367293 0.869158 0.949864
C42   C     C_R   0.929775 0.869999 0.130666 0.947300
O15   O     O_R   0.921100 0.531560 0.912990 -0.595793
O16   O     O_R   0.078900 0.031560 0.087010 -0.588224
O17   O     O_R   0.947120 0.708470 0.097370 -0.593007
O18   O     O_R   0.052880 0.208470 0.902630 -0.595838
C43   C     C_R   0.895823 0.364000 0.893584 0.968774
C44   C     C_R   0.104181 0.863235 0.106405 0.969792
O19   O     O_3   0.008710 0.375800 0.060400 -0.280677
O20   O     O_3   0.991290 0.875800 0.939600 -0.278960
V3    V     V_3+5 0.998380 0.648080 0.988790 1.163741
V4    V     V_3+5 0.001620 0.148080 0.011210 1.160238
C45   C     C_3   0.504093 0.920027 0.169087 -1.024754
H9    H     H_    0.488375 0.940245 0.090515 0.255620
H10   H     H_    0.477329 0.799570 0.192666 0.234388
H11   H     H_    0.491310 0.048987 0.207360 0.254915
C46   C     C_3   0.492161 0.488027 0.823674 -1.013313
H12   H     H_    0.506463 0.536933 0.899286 0.250736
H13   H     H_    0.521884 0.362536 0.811863 0.229076
H14   H     H_    0.502821 0.602032 0.775070 0.263351
C47   C     C_3   0.682999 0.779683 0.958872 -1.006053
H15   H     H_    0.716211 0.703790 0.916920 0.266244
H16   H     H_    0.643297 0.679749 0.962494 0.248321
H17   H     H_    0.663748 0.907716 0.919612 0.251826
C48   C     C_3   0.307927 0.515247 0.033115 -1.012553
H18   H     H_    0.270859 0.546011 0.079916 0.267306
H19   H     H_    0.343917 0.415398 0.070747 0.252547
H20   H     H_    0.331022 0.652046 0.024102 0.247973
N1    N     N_R   0.697575 0.723651 0.396413 0.219238
O21   O     O_R   0.686551 0.792355 0.478915 -0.426021
O22   O     O_R   0.732618 0.572181 0.395336 -0.398668
N2    N     N_R   0.305359 0.203392 0.613180 0.220604
O23   O     O_R   0.313795 0.252722 0.526642 -0.427963
O24   O     O_R   0.274786 0.049275 0.624495 -0.398734
C49   C     C_3   0.816253 0.912522 0.993087 -0.919034
H21   H     H_    0.782717 0.948041 0.926910 0.250460
H22   H     H_    0.842090 0.045125 0.010935 0.249743
H23   H     H_    0.848263 0.798313 0.974070 0.261112
C50   C     C_3   0.186543 0.299407 0.003268 -0.911827
H24   H     H_    0.223703 0.263838 0.065466 0.248723
H25   H     H_    0.152703 0.402846 0.028143 0.254757
H26   H     H_    0.163109 0.163624 0.982918 0.249876

loop_
_geom_bond_atom_site_label_1
_geom_bond_atom_site_label_2
_geom_bond_distance
_ccdc_geom_bond_type
C24   C26   1.413833 A    
O13   C41   1.308883 A    
N1    O21   1.301895 A    
C9    C31   1.397774 A    
C13   C15   1.417374 A    
O1    C3    1.309000 A    
O2    C4    1.311385 A    
C2    O7    1.297028 A    
C5    C29   1.393786 A    
C46   H12   1.111068 S    
C45   H9    1.110899 S    
O5    C3    1.317312 A    
C24   C48   1.519450 S    
O20   V4    2.174871 S    
C28   N2    1.440458 S    
C23   C47   1.521383 S    
C21   C23   1.407972 A    
C10   C12   1.383323 A    
C12   H8    1.082747 S    
C29   C45   1.509639 S    
C37   C39   1.222055 T    
C42   O17   1.306693 A    
C38   C40   1.222233 T    
C41   O18   1.304262 A    
C15   C19   1.425041 A    
N1    O22   1.301481 A    
C19   C21   1.415465 A    
C7    C29   1.403978 A    
C14   H6    1.078669 S    
C27   N1    1.441573 S    
C34   C43   1.462923 S    
C36   C38   1.438723 S    
C20   C28   1.425053 A    
N2    O24   1.301549 A    
C48   H19   1.110430 S    
C6    H2    1.081237 S    
O6    C4    1.310884 A    
O11   C43   1.321957 A    
C33   C35   1.221963 T    
O6    V2    2.051294 S    
O19   V3    2.185598 S    
C46   H13   1.110648 S    
C45   H10   1.110654 S    
O11   V4    1.950296 S    
C34   C36   1.222143 T    
C9    H3    1.084573 S    
O20   V3    1.764506 S    
C16   C20   1.423977 A    
C47   H16   1.110717 S    
C10   H4    1.084306 S    
C32   C41   1.461272 S    
O4    C2    1.294402 A    
C30   C46   1.510726 S    
C47   H15   1.110445 S    
C4    C7    1.458005 S    
O14   C42   1.304454 A    
O4    V2    1.982955 S    
C11   H7    1.082827 S    
C6    C30   1.395190 A    
C25   C49   1.515819 S    
C49   H21   1.107455 S    
O16   C44   1.320583 A    
N2    O23   1.302042 A    
C49   H23   1.106228 S    
O14   V4    2.051233 S    
O12   C44   1.321796 A    
C50   H25   1.108392 S    
O1    V2    2.036404 S    
C48   H20   1.110541 S    
O2    V1    2.026292 S    
C7    C27   1.407972 A    
C49   H22   1.103736 S    
C35   C37   1.438445 S    
O18   V4    2.040949 S    
O19   V4    1.756871 S    
O12   V3    1.953671 S    
C11   C13   1.384154 A    
C22   C24   1.414565 A    
C31   C42   1.458995 S    
C46   H14   1.110018 S    
O3    V1    1.990781 S    
C47   H17   1.110375 S    
C8    C30   1.407145 A    
C1    C40   1.463061 S    
C18   C32   1.433955 A    
C2    C39   1.462735 S    
O3    C1    1.296426 A    
O16   V4    1.982762 S    
C3    C8    1.464679 S    
C12   C14   1.386847 A    
C19   C27   1.424090 A    
C14   C16   1.414721 A    
O7    V1    1.968806 S    
C10   C32   1.398245 A    
C1    O8    1.296865 A    
C15   C17   1.430174 A    
O8    V2    1.964842 S    
C26   C50   1.513772 S    
C16   C18   1.426143 A    
C45   H11   1.110358 S    
C8    C28   1.408881 A    
O13   V3    2.032339 S    
O5    V1    2.032380 S    
C5    H1    1.082345 S    
C20   C22   1.418785 A    
C17   C25   1.438174 A    
O17   V3    2.030376 S    
C50   H26   1.106823 S    
O15   C43   1.322336 A    
C18   C26   1.429751 A    
C9    C11   1.379410 A    
O15   V3    1.990584 S    
C23   C25   1.414983 A    
C17   C31   1.439365 A    
O9    V2    1.757518 S    
C50   H24   1.109565 S    
O10   V1    1.765167 S    
C5    C21   1.410120 A    
C48   H18   1.109158 S    
C33   C44   1.462586 S    
C6    C22   1.409481 A    
C13   H5    1.077160 S    
