data_mof_unit_57321.cif
_audit_creation_date              2013-03-05T16:48:45-0500
_audit_creation_method            fapswitch 2.2
_symmetry_space_group_name_H-M    P1
_symmetry_Int_Tables_number       1
_space_group_crystal_system       triclinic
_cell_length_a                    27.800625
_cell_length_b                    8.998066
_cell_length_c                    8.089145
_cell_angle_alpha                 89.999983
_cell_angle_beta                  89.999934
_cell_angle_gamma                 90.000102
_cell_volume                      2023.51465616

loop_
_atom_site_label
_atom_site_type_symbol
_atom_site_description
_atom_site_fract_x
_atom_site_fract_y
_atom_site_fract_z
_atom_type_partial_charge
O1    O     O_R   0.500000 0.285350 0.636850 -0.619077
O2    O     O_R   0.500000 0.714650 0.363150 -0.619077
O3    O     O_R   0.500000 0.714650 0.636850 -0.619077
O4    O     O_R   0.500000 0.285350 0.363150 -0.619077
C1    C     C_R   0.500000 0.217814 0.500000 0.914725
C2    C     C_R   0.500000 0.782186 0.500000 0.914725
O5    O     O_R   0.428760 0.500000 0.636860 -0.563895
O6    O     O_R   0.571240 0.500000 0.363140 -0.563895
O7    O     O_R   0.571240 0.500000 0.636860 -0.563895
O8    O     O_R   0.428760 0.500000 0.363140 -0.563895
C3    C     C_R   0.405626 0.500000 0.500000 1.012862
C4    C     C_R   0.594374 0.500000 0.500000 1.012862
Zn1   Zn    Zn3+2 0.500000 0.500000 0.682780 1.105329
Zn2   Zn    Zn3+2 0.500000 0.500000 0.317220 1.105329
C5    C     C_R   0.176843 0.369310 0.526171 0.739769
C6    C     C_R   0.823157 0.630699 0.526167 0.739772
C7    C     C_R   0.176843 0.630701 0.473836 0.739777
C8    C     C_R   0.823157 0.369308 0.473834 0.739776
O9    O     O_2   0.202012 0.242354 0.546539 -0.399876
O10   O     O_2   0.797988 0.757655 0.546533 -0.399873
O11   O     O_2   0.202012 0.757657 0.453467 -0.399868
O12   O     O_2   0.797988 0.242351 0.453466 -0.399868
N1    N     N_R   0.200703 0.500005 0.500004 -0.315577
N2    N     N_R   0.799297 0.500003 0.500000 -0.315578
C9    C     C_R   0.276916 0.528124 0.352317 0.348830
C10   C     C_R   0.723084 0.471880 0.352316 0.348832
C11   C     C_R   0.276916 0.471882 0.647687 0.348833
C12   C     C_R   0.723084 0.528126 0.647684 0.348833
C13   C     C_R   0.327350 0.528257 0.352667 0.460906
C14   C     C_R   0.672650 0.471744 0.352666 0.460907
C15   C     C_R   0.327350 0.471745 0.647335 0.460907
C16   C     C_R   0.672650 0.528260 0.647333 0.460906
C17   C     C_R   0.252147 0.500005 0.500003 0.019899
C18   C     C_R   0.747853 0.500002 0.500000 0.019898
C19   C     C_R   0.101179 0.500005 0.500004 -0.229600
C20   C     C_R   0.898821 0.500004 0.500001 -0.229601
C21   C     C_R   0.126477 0.366968 0.530188 -0.252499
C22   C     C_R   0.873523 0.633041 0.530185 -0.252499
C23   C     C_R   0.126477 0.633042 0.469820 -0.252503
C24   C     C_R   0.873523 0.366966 0.469817 -0.252502
C25   C     C_R   0.100798 0.236829 0.567360 0.641424
C26   C     C_R   0.899202 0.763180 0.567357 0.641423
C27   C     C_R   0.100798 0.763181 0.432648 0.641424
C28   C     C_R   0.899202 0.236828 0.432646 0.641424
C29   C     C_R   0.352755 0.500000 0.500001 -0.415726
C30   C     C_R   0.647244 0.500001 0.500000 -0.415726
C31   C     C_R   0.974857 0.364339 0.486620 -0.087459
C32   C     C_R   0.025143 0.635669 0.486621 -0.087459
C33   C     C_R   0.974857 0.635669 0.513385 -0.087460
C34   C     C_R   0.025143 0.364340 0.513386 -0.087460
C35   C     C_R   0.949573 0.500004 0.500002 -0.056862
C36   C     C_R   0.050427 0.500005 0.500004 -0.056862
C37   C     C_R   0.949179 0.235883 0.439831 0.648282
C38   C     C_R   0.050821 0.764126 0.439832 0.648283
C39   C     C_R   0.949179 0.764125 0.560174 0.648283
C40   C     C_R   0.050821 0.235884 0.560176 0.648283
C41   C     C_1   0.500000 0.065036 0.500000 -0.130713
C42   C     C_1   0.500000 0.934964 0.500000 -0.130713
N3    N     N_1   0.500000 0.500000 0.073640 0.025076
N4    N     N_1   0.500000 0.500000 0.926360 0.025076
F1    F     F_    0.351358 0.443161 0.790257 -0.595213
F2    F     F_    0.648642 0.556847 0.790255 -0.595215
F3    F     F_    0.351358 0.556841 0.209745 -0.595211
F4    F     F_    0.648642 0.443156 0.209745 -0.595213
O13   O     O_3   0.250581 0.445664 0.789649 -0.679009
H1    H     H_    0.272586 0.418222 0.880873 0.405095
O14   O     O_3   0.749419 0.554348 0.789646 -0.679008
H2    H     H_    0.727414 0.581782 0.880872 0.405095
O15   O     O_3   0.250580 0.554342 0.210356 -0.679004
H3    H     H_    0.272586 0.581747 0.119120 0.405103
O16   O     O_3   0.749420 0.445661 0.210354 -0.679004
H4    H     H_    0.727414 0.418254 0.119119 0.405102
F5    F     F_    0.123634 0.111171 0.617151 -0.511883
F6    F     F_    0.876365 0.888838 0.617147 -0.511883
F7    F     F_    0.123634 0.888839 0.382857 -0.511883
F8    F     F_    0.876366 0.111170 0.382855 -0.511883
F9    F     F_    0.972155 0.114259 0.381288 -0.500118
F10   F     F_    0.027845 0.885750 0.381288 -0.500118
F11   F     F_    0.972155 0.885750 0.618717 -0.500118
F12   F     F_    0.027845 0.114259 0.618718 -0.500118

loop_
_geom_bond_atom_site_label_1
_geom_bond_atom_site_label_2
_geom_bond_distance
_ccdc_geom_bond_type
O5    Zn1   2.015050 S    
C13   F3    1.359498 S    
C14   F4    1.359496 S    
C15   F1    1.359497 S    
C19   C23   1.409697 A    
O3    C2    1.262831 A    
Zn1   N4    1.970354 S    
C11   C17   1.401912 A    
C32   C38   1.410267 A    
Zn2   N3    1.970354 S    
C7    N1    1.366680 A    
O1    C1    1.262830 A    
C19   C21   1.409696 A    
C22   C26   1.404020 A    
C32   C36   1.412779 A    
O7    Zn1   2.015046 S    
C9    C13   1.402103 A    
C7    C23   1.400744 A    
C28   F8    1.357829 S    
C2    C42   1.374706 S    
C5    C21   1.400744 A    
C8    C24   1.400744 A    
C5    O9    1.349713 S    
C28   C37   1.390639 A    
C10   C18   1.401912 A    
N1    C17   1.430164 S    
N2    C18   1.430164 S    
C34   C36   1.412778 A    
O3    Zn1   1.966844 S    
O6    C4    1.280331 A    
C31   C37   1.410267 A    
C5    N1    1.366680 A    
C12   C18   1.401912 A    
N3    N4    1.191368 T    
C6    N2    1.366680 A    
C21   C25   1.404018 A    
C10   O16   1.382168 S    
O2    C2    1.262830 A    
O5    C3    1.280331 A    
C31   C34   1.414657 A    
C27   F7    1.357828 S    
C26   F6    1.357829 S    
C11   C15   1.402103 A    
O14   H2    0.989819 S    
C12   C16   1.402106 A    
C12   O14   1.382167 S    
C4    C30   1.469841 S    
O8    Zn2   2.015049 S    
C31   C35   1.412777 A    
C33   C35   1.412777 A    
C33   C39   1.410268 A    
C34   C40   1.410267 A    
C13   C29   1.408505 A    
C37   F9    1.352753 S    
C25   C40   1.390641 A    
C11   O13   1.382167 S    
C26   C39   1.390638 A    
C39   F11   1.352753 S    
C27   C38   1.390641 A    
C20   C24   1.409697 A    
C6    O10   1.349713 S    
C20   C35   1.410937 A    
C32   C33   1.414657 A    
C10   C14   1.402106 A    
C8    N2    1.366680 A    
C3    C29   1.469841 S    
O1    Zn1   1.966845 S    
O6    Zn2   2.015047 S    
C8    O12   1.349713 S    
C16   C30   1.408504 A    
C14   C30   1.408504 A    
O4    C1    1.262831 A    
C23   C27   1.404017 A    
C40   F12   1.352752 S    
C1    C41   1.374706 S    
C20   C22   1.409697 A    
C16   F2    1.359498 S    
O16   H4    0.989816 S    
C41   C42   1.170396 T    
O4    Zn2   1.966845 S    
O15   H3    0.989814 S    
O2    Zn2   1.966844 S    
O7    C4    1.280331 A    
C7    O11   1.349713 S    
O8    C3    1.280331 A    
C25   F5    1.357828 S    
C24   C28   1.404019 A    
C9    O15   1.382167 S    
O13   H1    0.989821 S    
C15   C29   1.408506 A    
C9    C17   1.401912 A    
C19   C36   1.410937 A    
C6    C22   1.400745 A    
C38   F10   1.352752 S    
