data_mof_unit_20312.cif
_audit_creation_date              2013-03-05T15:49:56-0500
_audit_creation_method            fapswitch 2.2
_symmetry_space_group_name_H-M    P1
_symmetry_Int_Tables_number       1
_space_group_crystal_system       triclinic
_cell_length_a                    27.647652
_cell_length_b                    12.975331
_cell_length_c                    11.834348
_cell_angle_alpha                 99.828464
_cell_angle_beta                  92.331814
_cell_angle_gamma                 95.838716
_cell_volume                      4154.10899536

loop_
_atom_site_label
_atom_site_type_symbol
_atom_site_description
_atom_site_fract_x
_atom_site_fract_y
_atom_site_fract_z
_atom_type_partial_charge
O1    O     O_R   0.502540 0.354460 0.582000 -0.533786
O2    O     O_R   0.497460 0.645540 0.418000 -0.536384
O3    O     O_R   0.496500 0.341410 0.386200 -0.570146
O4    O     O_R   0.503500 0.658590 0.613800 -0.561548
C1    C     C_R   0.499031 0.299148 0.477934 0.839365
C2    C     C_R   0.500447 0.700768 0.522150 0.845199
O5    O     O_R   0.433290 0.506540 0.597890 -0.532744
O6    O     O_R   0.566710 0.493460 0.402110 -0.495009
O7    O     O_R   0.427240 0.493490 0.402090 -0.551204
O8    O     O_R   0.572760 0.506510 0.597910 -0.602328
C3    C     C_R   0.407446 0.498232 0.500946 0.839955
C4    C     C_R   0.592429 0.496553 0.498842 0.857069
Cu1   Cu    Cu3+1 0.503580 0.507730 0.615930 1.019828
Cu2   Cu    Cu3+1 0.496420 0.492270 0.384070 1.049322
C5    C     C_R   0.173010 0.375587 0.512274 0.563944
C6    C     C_R   0.823448 0.527988 0.575755 0.556326
O9    O     O_2   0.195338 0.287599 0.510442 -0.521112
O10   O     O_2   0.802963 0.613983 0.623302 -0.527433
N1    N     N_R   0.200191 0.470694 0.516959 -0.456297
N2    N     N_R   0.794533 0.438089 0.527371 -0.457176
C7    C     C_R   0.178652 0.561577 0.520910 0.588017
C8    C     C_R   0.814118 0.348435 0.482209 0.589328
C9    C     C_R   0.282186 0.525247 0.609422 -0.085652
C10   C     C_R   0.710917 0.402655 0.585636 -0.087341
C11   C     C_R   0.332692 0.532621 0.604552 -0.238421
C12   C     C_R   0.661907 0.419116 0.577773 -0.294616
C13   C     C_R   0.323671 0.436606 0.408011 0.449700
C14   C     C_R   0.677291 0.520420 0.425084 0.465446
C15   C     C_R   0.273013 0.431224 0.413257 -0.175134
C16   C     C_R   0.726099 0.498106 0.430172 -0.220879
C17   C     C_R   0.252187 0.475026 0.513661 0.269622
C18   C     C_R   0.743160 0.443106 0.512429 0.297106
C19   C     C_R   0.099152 0.461760 0.511852 -0.049180
C20   C     C_R   0.895116 0.442100 0.522882 -0.049136
C21   C     C_R   0.121948 0.369231 0.509294 -0.018331
C22   C     C_R   0.874214 0.532023 0.573695 -0.016380
C23   C     C_R   0.093301 0.273156 0.505724 -0.120587
C24   C     C_R   0.904384 0.624083 0.619887 -0.120547
C25   C     C_R   0.127726 0.558879 0.519067 -0.102505
C26   C     C_R   0.864993 0.348579 0.479799 -0.104916
C27   C     C_R   0.353973 0.490097 0.503629 -0.132905
C28   C     C_R   0.644469 0.478225 0.498298 -0.128785
H1    H     H_    0.249788 0.392682 0.339005 0.171053
H2    H     H_    0.751810 0.527005 0.373261 0.147462
H3    H     H_    0.109851 0.201492 0.509087 0.202299
H4    H     H_    0.889505 0.692771 0.664435 0.199181
C29   C     C_R   0.967656 0.353531 0.473376 -0.085308
C30   C     C_R   0.025297 0.551499 0.522736 -0.085174
C31   C     C_R   0.975332 0.544309 0.546085 0.083741
C32   C     C_R   0.019101 0.357946 0.489958 0.083720
C33   C     C_R   0.946118 0.446415 0.514164 0.038497
C34   C     C_R   0.047763 0.457118 0.507739 0.039336
C35   C     C_R   0.936482 0.262019 0.419849 0.380825
C36   C     C_R   0.054224 0.647537 0.515558 0.374615
C37   C     C_R   0.885974 0.260000 0.427858 -0.159802
C38   C     C_R   0.104946 0.650244 0.518265 -0.159968
O11   O     O_2   0.784510 0.260618 0.437160 -0.518825
O12   O     O_2   0.206430 0.654049 0.524932 -0.518407
C39   C     C_R   0.042682 0.268035 0.497889 -0.093855
C40   C     C_R   0.954306 0.629555 0.607394 -0.097810
H5    H     H_    0.637527 0.386461 0.635243 0.180091
H6    H     H_    0.355151 0.572652 0.679454 0.186748
H7    H     H_    0.723954 0.360241 0.649906 0.160557
H8    H     H_    0.266291 0.559173 0.687415 0.165828
H9    H     H_    0.862732 0.189780 0.388196 0.233506
H10   H     H_    0.126646 0.724055 0.515451 0.233467
H11   H     H_    0.022260 0.193659 0.502038 0.203070
H12   H     H_    0.976413 0.700268 0.648499 0.197534
C41   C     C_R   0.501416 0.815069 0.536429 -0.174357
C42   C     C_R   0.497220 0.184761 0.463998 -0.156664
C43   C     C_R   0.477300 0.009233 0.352608 -0.228359
C44   C     C_R   0.520580 0.990604 0.648266 -0.232219
C45   C     C_R   0.481564 0.118266 0.358413 0.467670
C46   C     C_R   0.516565 0.881618 0.642315 0.481718
C47   C     C_R   0.510922 0.141375 0.559215 -0.238550
C48   C     C_R   0.487351 0.858375 0.441428 -0.248268
C49   C     C_R   0.507528 0.033127 0.552287 0.083879
C50   C     C_R   0.490505 0.966655 0.448470 0.086839
H13   H     H_    0.474132 0.807741 0.361254 0.207084
H14   H     H_    0.524165 0.191925 0.639452 0.199307
H15   H     H_    0.463479 0.958050 0.273243 0.162742
H16   H     H_    0.534145 0.041776 0.727848 0.161132
N3    N     N_R   0.508960 0.519350 0.790140 -0.245946
N4    N     N_R   0.491040 0.480650 0.209860 -0.246029
C51   C     C_R   0.460056 0.384055 0.027940 -0.219557
C52   C     C_R   0.538624 0.617413 0.971793 -0.215719
C53   C     C_R   0.462518 0.398738 0.147210 0.000730
C54   C     C_R   0.537140 0.601662 0.852736 -0.027380
C55   C     C_R   0.518593 0.552995 0.155087 0.570958
C56   C     C_R   0.480470 0.448076 0.844539 0.559451
C57   C     C_R   0.514184 0.543473 0.032221 -0.079283
C58   C     C_R   0.484812 0.457466 0.967429 -0.080025
H17   H     H_    0.557379 0.657850 0.809772 0.197392
H18   H     H_    0.442410 0.342502 0.190227 0.193977
H19   H     H_    0.438469 0.313084 0.986578 0.235137
H20   H     H_    0.559165 0.689772 0.012885 0.235641
O13   O     O_3   0.343123 0.391857 0.307918 -0.566985
C59   C     C_3   0.347141 0.285116 0.312404 -0.230507
H21   H     H_    0.310922 0.241069 0.318801 0.171142
H22   H     H_    0.372624 0.276910 0.384841 0.158386
H23   H     H_    0.362198 0.248504 0.231652 0.201677
O14   O     O_3   0.661211 0.582687 0.350100 -0.516320
C60   C     C_3   0.693786 0.675296 0.355206 -0.151045
H24   H     H_    0.723709 0.660144 0.296883 0.160515
H25   H     H_    0.708636 0.709068 0.444329 0.139195
H26   H     H_    0.674146 0.736495 0.324632 0.218536
O15   O     O_3   0.531456 0.840897 0.737030 -0.575643
C61   C     C_3   0.495916 0.853111 0.819172 -0.278276
H27   H     H_    0.459801 0.812105 0.783319 0.166213
H28   H     H_    0.492916 0.937506 0.852852 0.162566
H29   H     H_    0.507004 0.816917 0.893158 0.187714
O16   O     O_3   0.466363 0.159216 0.264097 -0.592193
C62   C     C_3   0.501115 0.145252 0.180248 -0.284211
H30   H     H_    0.503150 0.060537 0.146244 0.165032
H31   H     H_    0.537705 0.184710 0.214518 0.174222
H32   H     H_    0.489860 0.181933 0.106766 0.185598
S1    S     S_3+6 0.435130 0.343197 0.772443 0.005572
O17   O     O_2   0.453089 0.241098 0.789828 -0.358455
O18   O     O_2   0.388972 0.355251 0.834166 -0.302739
O19   O     O_3   0.417687 0.328002 0.632978 -0.516977
H33   H     H_    0.394611 0.262933 0.617003 0.361824
S2    S     S_3+6 0.562359 0.660510 0.226824 0.016362
O20   O     O_2   0.608479 0.652912 0.164255 -0.292945
O21   O     O_2   0.542297 0.760750 0.210152 -0.380064
O22   O     O_3   0.580107 0.674883 0.366047 -0.475254
H34   H     H_    0.591224 0.750761 0.390683 0.349107
S3    S     S_3+6 0.955842 0.158649 0.318902 0.014015
O23   O     O_2   0.002336 0.194252 0.268315 -0.263083
O24   O     O_2   0.962937 0.066136 0.376489 -0.276711
O25   O     O_3   0.912438 0.120584 0.211861 -0.506518
H35   H     H_    0.924308 0.060164 0.161937 0.392717
S4    S     S_3+6 0.030243 0.759341 0.476096 0.022579
O26   O     O_2   0.980393 0.730044 0.416791 -0.249517
O27   O     O_2   0.027957 0.841560 0.581330 -0.288653
O28   O     O_3   0.067478 0.810159 0.385723 -0.501339
H36   H     H_    0.053776 0.875015 0.372484 0.401039

loop_
_geom_bond_atom_site_label_1
_geom_bond_atom_site_label_2
_geom_bond_distance
_ccdc_geom_bond_type
C2    C41   1.461100 S    
C13   C15   1.399642 A    
N4    C53   1.346863 A    
Cu2   N4    2.039528 S    
N1    C17   1.435330 S    
C8    O11   1.349075 S    
S3    O24   1.503384 D    
O13   C59   1.410434 S    
O28   H36   0.990587 S    
C49   C50   1.408358 A    
C19   C34   1.414440 A    
C5    N1    1.369396 A    
C20   C33   1.414181 A    
C19   C25   1.405198 A    
C31   C40   1.406759 A    
O1    C1    1.309801 A    
C32   C39   1.407841 A    
C21   C23   1.400538 A    
C12   H5    1.083528 S    
C48   C50   1.386719 A    
C52   C57   1.424815 A    
S1    O18   1.504673 D    
C52   C54   1.387058 A    
C1    C42   1.460562 S    
C55   S2    1.816498 S    
C53   H18   1.080726 S    
C61   H27   1.113770 S    
C41   C48   1.398400 A    
C14   C28   1.413788 A    
O4    Cu1   1.962143 S    
C4    C28   1.482065 S    
C35   S3    1.778684 S    
C39   H11   1.077083 S    
C46   O15   1.383460 S    
C13   O13   1.382042 S    
S4    O26   1.503406 D    
C31   C33   1.418146 A    
C32   C34   1.419351 A    
O15   C61   1.411515 S    
C48   H13   1.084240 S    
C55   C57   1.437191 A    
C47   H14   1.084493 S    
C6    N2    1.368432 A    
C29   C35   1.429888 A    
C62   H32   1.108603 S    
C51   C53   1.389588 A    
N3    C54   1.345387 A    
Cu1   Cu2   2.714459 S    
C15   H1    1.083173 S    
C16   H2    1.081877 S    
O2    C2    1.310588 A    
C5    C21   1.404415 A    
O16   C62   1.411477 S    
C37   H9    1.083384 S    
C51   C58   1.424325 A    
O5    C3    1.309114 A    
C29   C32   1.421877 A    
C35   C37   1.401399 A    
C36   C38   1.398133 A    
C56   S1    1.822289 S    
C44   C46   1.396591 A    
S1    O19   1.673409 S    
C11   C27   1.405470 A    
C57   C58   1.402002 A    
C43   C45   1.397258 A    
C29   C33   1.418047 A    
C9    C17   1.399377 A    
C30   C36   1.427783 A    
O7    Cu2   1.934480 S    
C10   C18   1.394147 A    
C44   C49   1.394961 A    
O7    C3    1.306254 A    
C13   C27   1.414382 A    
C56   C58   1.437569 A    
C25   C38   1.399084 A    
C7    C25   1.404036 A    
C30   C34   1.416517 A    
O6    C4    1.315284 A    
C26   C37   1.399551 A    
C8    C26   1.407861 A    
C42   C45   1.416002 A    
C41   C46   1.416193 A    
C60   H25   1.115063 S    
C6    O10   1.350024 S    
C52   H20   1.074089 S    
C47   C49   1.386207 A    
C23   C39   1.392846 A    
O3    Cu2   1.962143 S    
O8    C4    1.304386 A    
C24   C40   1.390035 A    
O4    C2    1.299093 A    
C30   C31   1.416686 A    
N2    C8    1.368029 A    
C10   H7    1.082712 S    
C59   H22   1.113495 S    
O22   H34   0.990940 S    
C20   C26   1.405219 A    
O1    Cu1   1.957525 S    
N4    C55   1.408567 A    
C23   H3    1.083203 S    
S3    O23   1.503455 D    
C42   C47   1.398347 A    
O19   H33   0.990794 S    
C12   C28   1.410623 A    
C45   O16   1.383659 S    
C62   H30   1.112099 S    
N2    C18   1.433589 S    
C5    O9    1.349437 S    
N3    C56   1.409424 A    
C54   H17   1.081610 S    
C9    H8    1.082804 S    
O6    Cu2   1.944592 S    
N1    C7    1.368839 A    
C10   C12   1.394894 A    
O3    C1    1.299619 A    
O8    Cu1   1.934480 S    
C59   H23   1.108987 S    
C36   S4    1.778740 S    
Cu1   N3    2.039525 S    
C61   H29   1.108608 S    
S2    O22   1.673588 S    
C22   C24   1.399539 A    
O25   H35   0.990643 S    
S3    O25   1.682501 S    
C7    O12   1.349741 S    
C15   C17   1.399324 A    
S1    O17   1.504151 D    
C6    C22   1.400553 A    
C16   C18   1.395605 A    
C51   H19   1.074393 S    
S4    O28   1.682450 S    
C38   H10   1.083459 S    
C14   C16   1.409699 A    
C19   C21   1.408057 A    
C61   H28   1.112227 S    
C3    C27   1.473464 S    
C60   H26   1.107321 S    
C20   C22   1.408147 A    
C11   H6    1.083271 S    
C9    C11   1.394143 A    
O14   C60   1.417482 S    
O2    Cu2   1.957524 S    
C24   H4    1.083197 S    
C14   O14   1.386944 S    
O5    Cu1   1.944598 S    
C40   H12   1.077685 S    
S4    O27   1.503202 D    
C59   H21   1.113374 S    
C60   H24   1.110292 S    
C43   H15   1.084174 S    
S2    O20   1.503798 D    
S2    O21   1.504565 D    
C43   C50   1.395275 A    
C44   H16   1.084247 S    
C62   H31   1.113718 S    
