data_mof_unit_46469.cif
_audit_creation_date              2012-12-10T19:44:41-0500
_audit_creation_method            fapswitch 2.2
_symmetry_space_group_name_H-M    P1
_symmetry_Int_Tables_number       1
_space_group_crystal_system       triclinic
_cell_length_a                    8.579578
_cell_length_b                    14.947523
_cell_length_c                    14.172679
_cell_angle_alpha                 90.509027
_cell_angle_beta                  98.610996
_cell_angle_gamma                 89.739522
_cell_volume                      1796.98460686

loop_
_atom_site_label
_atom_site_type_symbol
_atom_type_description
_atom_site_fract_x
_atom_site_fract_y
_atom_site_fract_z
_atom_type_partial_charge
C1    C     C_R   0.501966 0.327900 0.499714 0.903732
C2    C     C_R   0.362580 0.481510 0.882679 -0.282230
C3    C     C_R   0.500451 0.500397 0.053386 0.138400
C4    C     C_R   0.500427 0.500389 0.946872 0.142558
C5    C     C_R   0.201011 0.500370 0.475084 0.965842
C6    C     C_R   0.798946 0.500948 0.524924 0.974795
C7    C     C_2   0.035948 0.501218 0.461610 -0.395241
C8    C     C_2   0.963973 0.501863 0.538393 -0.389081
C9    C     C_R   0.391124 0.095312 0.541444 -0.219415
C10   C     C_R   0.393207 0.905026 0.435492 -0.257512
C11   C     C_R   0.396235 0.187313 0.544181 -0.266162
C12   C     C_R   0.501815 0.672144 0.500738 0.910404
C13   C     C_R   0.396369 0.812950 0.435388 -0.251546
C14   C     C_R   0.506349 0.232066 0.498966 -0.096546
C15   C     C_R   0.503212 0.768065 0.502724 -0.089643
C16   C     C_R   0.614579 0.185350 0.450806 0.172986
C17   C     C_R   0.609324 0.814565 0.571320 0.114557
C18   C     C_R   0.610028 0.091702 0.448831 0.175888
C19   C     C_R   0.607489 0.908436 0.570730 0.209049
C20   C     C_R   0.498613 0.048003 0.495505 0.069240
C21   C     C_R   0.498679 0.952127 0.501856 0.057023
C22   C     C_3   0.859446 0.268418 0.463426 -0.769034
C23   C     C_R   0.371703 0.534497 0.093700 -0.282061
C24   C     C_3   0.681969 0.758586 0.732044 -0.731614
C25   C     C_3   0.871590 0.026275 0.450167 -0.785281
C26   C     C_3   0.653667 0.007695 0.710752 -0.777658
C27   C     C_R   0.638161 0.519001 0.907707 -0.284884
C28   C     C_R   0.374231 0.534098 0.193252 0.017303
C29   C     C_R   0.635219 0.518873 0.808094 0.008329
C30   C     C_R   0.625892 0.465925 0.215424 0.025039
C31   C     C_R   0.365126 0.481138 0.783616 0.015643
C32   C     C_R   0.628914 0.466014 0.116381 -0.284482
H1    H     H_    0.974106 0.500681 0.388746 0.171621
H2    H     H_    0.741822 0.534108 0.779426 0.128661
H3    H     H_    0.724683 0.438261 0.262669 0.129182
H4    H     H_    0.258486 0.465261 0.735784 0.122672
H5    H     H_    0.730138 0.437907 0.089287 0.135043
H6    H     H_    0.253784 0.465552 0.908775 0.132494
H7    H     H_    0.752181 0.200717 0.342714 0.244702
H8    H     H_    0.939195 0.213618 0.492943 0.232827
H9    H     H_    0.823901 0.308069 0.523275 0.231893
H10   H     H_    0.925215 0.312806 0.421020 0.236160
H11   H     H_    0.836578 0.783368 0.635267 0.205597
H12   H     H_    0.025694 0.502499 0.611234 0.167956
H13   H     H_    0.693066 0.824303 0.769209 0.231871
H14   H     H_    0.764482 0.710801 0.773285 0.220520
H15   H     H_    0.559948 0.733356 0.730108 0.260561
H16   H     H_    0.666294 0.987137 0.361071 0.228682
H17   H     H_    0.960179 0.050318 0.406786 0.243088
H18   H     H_    0.890318 0.953481 0.462786 0.228696
H19   H     H_    0.890845 0.061227 0.520500 0.250971
H20   H     H_    0.826637 0.931586 0.656516 0.217119
H21   H     H_    0.715541 0.986996 0.781726 0.220750
H22   H     H_    0.525499 0.995340 0.708793 0.240117
H23   H     H_    0.305699 0.060652 0.576831 0.153339
H24   H     H_    0.672881 0.080402 0.702524 0.257367
H25   H     H_    0.310592 0.939854 0.382855 0.158353
H26   H     H_    0.312505 0.223830 0.580180 0.162686
H27   H     H_    0.314676 0.776507 0.383251 0.161274
H28   H     H_    0.270534 0.562657 0.048779 0.131931
H29   H     H_    0.747157 0.534942 0.953630 0.131629
H30   H     H_    0.275163 0.561371 0.223137 0.122588
N1    N     N_R   0.500000 0.499980 0.252470 -0.091199
N2    N     N_R   0.500000 0.500020 0.747530 -0.089148
N3    N     N_2   0.723075 0.232608 0.402523 -0.292416
N4    N     N_2   0.720741 0.766149 0.636521 -0.306611
N5    N     N_2   0.714814 0.042096 0.398872 -0.321500
N6    N     N_2   0.716769 0.959187 0.635834 -0.310600
O1    O     O_R   0.500010 0.369070 0.579480 -0.624922
O2    O     O_R   0.499990 0.630930 0.420520 -0.628448
O3    O     O_R   0.500010 0.369060 0.420520 -0.595890
O4    O     O_R   0.499990 0.630940 0.579480 -0.599548
O5    O     O_R   0.271750 0.500000 0.560890 -0.627972
O6    O     O_R   0.728250 0.500000 0.439110 -0.618323
O7    O     O_R   0.271750 0.499990 0.401930 -0.639927
O8    O     O_R   0.728250 0.500010 0.598070 -0.636426
Zn1   Zn    Zn3+2 0.500000 0.500010 0.606140 0.939144
Zn2   Zn    Zn3+2 0.500000 0.499990 0.393860 0.945038

loop_
_geom_bond_atom_site_label_1
_geom_bond_atom_site_label_2
_ccdc_geom_bond_type
C27   C29   A    
H7    N3    S    
N2    Zn1   S    
C3    C23   A    
C25   N5    S    
C7    C8    D    
C17   N4    S    
C1    O3    A    
C30   H3    S    
C24   H13   S    
C19   C21   A    
C11   C14   A    
C22   H9    S    
O2    Zn2   S    
C25   H18   S    
C27   H29   S    
O1    Zn1   S    
C9    H23   S    
C11   H26   S    
H20   N6    S    
C24   N4    S    
C12   O4    A    
C29   N2    A    
C30   N1    A    
C7    H1    S    
C26   H22   S    
C6    O6    A    
C10   C21   A    
C23   H28   S    
C10   H25   S    
O8    Zn1   S    
C5    C7    S    
C6    C8    S    
C18   N5    S    
C23   C28   A    
C29   H2    S    
C1    O1    A    
C2    C31   A    
C5    O7    A    
C2    C4    A    
C25   H19   S    
C22   N3    S    
O4    Zn1   S    
C2    H6    S    
C9    C20   A    
C12   C15   S    
C22   H8    S    
C19   N6    S    
C32   H5    S    
C9    C11   A    
C13   C15   A    
C14   C16   A    
C3    C4    S    
C26   H21   S    
C4    C27   A    
C15   C17   A    
C12   O2    A    
C24   H15   S    
C31   N2    A    
C8    H12   S    
C10   C13   A    
C26   H24   S    
C6    O8    A    
C13   H27   S    
C1    C14   S    
C24   H14   S    
C26   N6    S    
C30   C32   A    
C22   H10   S    
H11   N4    S    
C17   C19   A    
C18   C20   A    
H16   N5    S    
C5    O5    A    
C3    C32   A    
O7    Zn2   S    
C25   H17   S    
C28   N1    A    
C20   C21   S    
C16   C18   A    
O6    Zn2   S    
O5    Zn1   S    
C31   H4    S    
C16   N3    S    
O3    Zn2   S    
N1    Zn2   S    
C28   H30   S    
