data_mof_unit_65768.cif
_audit_creation_date              2012-12-11T17:53:02-0500
_audit_creation_method            fapswitch 2.2
_symmetry_space_group_name_H-M    P1
_symmetry_Int_Tables_number       1
_space_group_crystal_system       triclinic
_cell_length_a                    8.284481
_cell_length_b                    12.877801
_cell_length_c                    16.381481
_cell_angle_alpha                 109.569168
_cell_angle_beta                  98.246201
_cell_angle_gamma                 81.266796
_cell_volume                      1619.57110441

loop_
_atom_site_label
_atom_site_type_symbol
_atom_type_description
_atom_site_fract_x
_atom_site_fract_y
_atom_site_fract_z
_atom_type_partial_charge
Ba1   Ba    Ba6+2 0.363950 0.459210 0.542370 1.665817
Ba2   Ba    Ba6+2 0.825880 0.540700 0.457630 1.671133
C1    C     C_3   0.194548 0.148885 0.788706 -0.409274
C2    C     C_R   0.893541 0.536591 0.750901 -0.294775
C3    C     C_2   0.488487 0.376898 0.137098 -0.133598
C4    C     C_3   0.702316 0.297222 0.779749 0.345942
C5    C     C_2   0.448022 0.393749 0.217644 -0.010240
C6    C     C_2   0.166683 0.467409 0.183615 0.033560
C7    C     C_3   0.219020 0.473664 0.100233 -0.037184
C8    C     C_3   0.358582 0.384801 0.064968 -0.002015
C9    C     C_2   0.084088 0.480713 0.029678 -0.049553
C10   C     C_2   0.113206 0.517153 0.965978 -0.068563
C11   C     C_R   0.829726 0.590410 0.923590 -0.008886
C12   C     C_3   0.206868 0.232515 0.743536 0.353386
C13   C     C_R   0.984032 0.537032 0.898973 -0.042808
C14   C     C_R   0.709719 0.618769 0.863135 -0.131403
C15   C     C_R   0.741981 0.592523 0.776542 0.074817
C16   C     C_3   0.713246 0.293681 0.872284 -0.375676
C17   C     C_R   0.016404 0.511516 0.811799 0.005549
C18   C     C_R   0.267099 0.818789 0.481435 -0.290702
C19   C     C_R   0.925799 0.191707 0.523957 -0.252896
C20   C     C_R   0.915296 0.027734 0.563021 -0.110853
C21   C     C_R   0.848619 0.133472 0.562611 -0.000805
C22   C     C_R   0.070597 0.145841 0.484226 -0.020706
C23   C     C_3   0.971571 0.799569 0.729713 0.743127
C24   C     C_R   0.143012 0.038105 0.486987 -0.066545
C25   C     C_R   0.060421 0.977353 0.524372 -0.052533
C26   C     C_R   0.123891 0.866525 0.520043 0.041642
C27   C     C_R   0.356081 0.879498 0.452292 0.030488
C28   C     C_3   0.553117 0.146035 0.245450 0.724006
C29   C     C_R   0.292975 0.987395 0.452716 -0.010806
C30   C     C_3   0.531844 0.132549 0.147786 -0.278566
C31   C     C_3   0.491634 0.815101 0.652506 0.321033
C32   C     C_3   0.497188 0.939140 0.673083 -0.304612
C33   C     C_3   0.078447 0.115589 0.264194 0.698084
C34   C     C_3   0.085892 0.762898 0.799393 -0.361851
C35   C     C_3   0.187325 0.034243 0.195750 0.346757
C36   C     C_3   0.971214 0.215265 0.167233 0.296139
C37   C     C_3   0.138960 0.916684 0.053290 0.176866
C38   C     C_3   0.885259 0.985148 0.808922 0.203037
C39   C     C_3   0.064987 0.843943 0.287643 0.112012
C40   C     C_3   0.670571 0.042945 0.336451 0.236489
C41   C     C_3   0.333285 0.770727 0.254438 0.791504
C42   C     C_3   0.319623 0.725501 0.155295 -0.288082
C43   C     C_3   0.766467 0.698013 0.190586 0.326510
C44   C     C_3   0.706199 0.757822 0.123707 -0.410644
C45   C     C_2   0.278661 0.433673 0.239366 -0.271066
H1    H     H_    0.285647 0.193150 0.689380 0.083071
H2    H     H_    0.039346 0.068137 0.301524 -0.044752
H3    H     H_    0.158939 0.070381 0.739724 0.082915
H4    H     H_    0.236241 0.081101 0.160836 -0.102634
H5    H     H_    0.080853 0.255209 0.716022 -0.054627
H6    H     H_    0.916972 0.724329 0.685472 -0.015090
H7    H     H_    0.173143 0.824531 0.834530 0.091229
H8    H     H_    0.013577 0.751482 0.847199 0.056771
H9    H     H_    0.157398 0.683050 0.768097 0.103705
H10   H     H_    0.314172 0.132001 0.824768 0.129055
H11   H     H_    0.729931 0.377283 0.919353 0.078128
H12   H     H_    0.640944 0.153455 0.127324 0.101441
H13   H     H_    0.310435 0.701964 0.277218 -0.122519
H14   H     H_    0.191916 0.708915 0.128677 0.108319
H15   H     H_    0.355569 0.785856 0.128756 0.106928
H16   H     H_    0.772201 0.759086 0.256779 0.074271
H17   H     H_    0.677769 0.639019 0.185185 0.084422
H18   H     H_    0.809098 0.786800 0.103674 0.158755
H19   H     H_    0.618533 0.831202 0.151430 0.150665
H20   H     H_    0.603742 0.363558 0.773318 0.106021
H21   H     H_    0.643745 0.701025 0.064869 0.094250
H22   H     H_    0.610990 0.343813 0.119838 0.087193
H23   H     H_    0.514316 0.045453 0.108034 0.104192
H24   H     H_    0.593298 0.662799 0.884328 0.092338
H25   H     H_    0.246887 0.439044 0.302850 0.082843
H26   H     H_    0.918555 0.516845 0.684016 0.074296
H27   H     H_    0.963657 0.458146 0.031066 0.090887
H28   H     H_    0.236676 0.534251 0.963732 0.094005
H29   H     H_    0.851682 0.985720 0.593555 0.090064
H30   H     H_    0.355967 0.026493 0.420008 0.087657
H31   H     H_    0.312767 0.733605 0.476028 0.049215
H32   H     H_    0.821585 0.317566 0.769108 -0.052175
H33   H     H_    0.870812 0.273426 0.523758 0.075403
H34   H     H_    0.419928 0.183381 0.131345 -0.018714
H35   H     H_    0.598760 0.267380 0.883254 0.148180
H36   H     H_    0.819215 0.234736 0.883932 0.076348
H37   H     H_    0.433703 0.173227 0.272546 -0.053703
H38   H     H_    0.009651 0.156745 0.104645 -0.036865
H39   H     H_    0.062753 0.274626 0.199325 0.014489
H40   H     H_    0.857904 0.261945 0.148579 0.063482
H41   H     H_    0.296766 0.998259 0.228403 0.076289
H42   H     H_    0.274085 0.907837 0.050622 0.004552
H43   H     H_    0.077745 0.976522 0.020057 0.038024
H44   H     H_    0.095405 0.834836 0.016633 0.061653
H45   H     H_    0.363016 0.797396 0.641033 0.001094
H46   H     H_    0.100815 0.182430 0.835811 0.099312
H47   H     H_    0.892250 0.025155 0.759326 0.072957
H48   H     H_    0.002034 0.987278 0.851969 0.004293
H49   H     H_    0.787655 0.034743 0.850199 0.057300
H50   H     H_    0.066116 0.773431 0.312219 0.045474
H51   H     H_    0.002860 0.916204 0.334815 0.030880
H52   H     H_    0.992807 0.834960 0.224403 0.137197
H53   H     H_    0.401626 0.647150 0.133413 0.026373
H54   H     H_    0.708880 0.957123 0.334783 0.090462
H55   H     H_    0.575235 0.081036 0.381918 0.033074
H56   H     H_    0.556073 0.770658 0.593379 0.038666
H57   H     H_    0.782593 0.085963 0.359359 0.026082
H58   H     H_    0.480438 0.983393 0.742608 0.132848
H59   H     H_    0.399017 0.973760 0.632980 0.045944
H60   H     H_    0.617373 0.954545 0.659734 0.132806
O1    O     O_2   0.429050 0.611890 0.712090 -0.469056
O2    O     O_2   0.694093 0.859323 0.428261 -0.521258
O3    O     O_3   0.492413 0.802012 0.285109 -0.643366
O4    O     O_3   0.649820 0.584130 0.603850 -0.504971
O5    O     O_3   0.066730 0.358340 0.455880 -0.444025
O6    O     O_2   0.852540 0.775600 0.541830 -0.475380
O7    O     O_3   0.062434 0.845324 0.686221 -0.689933
O8    O     O_2   0.836030 0.469506 0.188681 -0.530029
O9    O     O_3   0.925404 0.646430 0.175716 -0.651730
O10   O     O_3   0.201480 0.401240 0.659120 -0.485258
O11   O     O_2   0.353721 0.516098 0.810391 -0.502489
O12   O     O_3   0.167495 0.202373 0.319164 -0.683875
O13   O     O_3   0.564783 0.784808 0.724602 -0.594561
O14   O     O_3   0.278918 0.323622 0.804063 -0.598717
O15   O     O_2   0.337150 0.224350 0.458110 -0.467723
O16   O     O_3   0.611620 0.334620 0.615460 -0.486231
O17   O     O_2   0.511597 0.135780 0.565165 -0.501468
O18   O     O_3   0.935316 0.158819 0.222253 -0.617607
O19   O     O_3   0.095278 0.949184 0.139309 -0.638987
O20   O     O_3   0.840484 0.876685 0.768264 -0.654178
O21   O     O_3   0.221799 0.867054 0.281501 -0.695706
O22   O     O_3   0.611727 0.039320 0.250893 -0.678697
O23   O     O_3   0.665192 0.193993 0.720659 -0.617190
O24   O     O_2   0.760640 0.388070 0.287860 -0.421770
O25   O     O_3   0.539890 0.415780 0.396140 -0.478241
O26   O     O_3   0.988230 0.598670 0.340870 -0.473081
O27   O     O_3   0.665883 0.221576 0.293210 -0.596465
O28   O     O_3   0.122980 0.641570 0.544110 -0.476196
O29   O     O_3   0.578090 0.665290 0.384530 -0.477154
P1    P     P_3+3 0.593410 0.640600 0.698510 0.997358
P2    P     P_3+3 0.154920 0.233850 0.431950 0.997148
P3    P     P_3+3 0.659542 0.198038 0.614362 0.935577
P4    P     P_3+3 0.596300 0.359310 0.301480 1.006978
P5    P     P_3+3 0.533400 0.804819 0.393412 0.937565
P6    P     P_3+3 0.213851 0.441237 0.772303 0.943007
P7    P     P_3+3 0.040199 0.782776 0.572709 0.927922
P8    P     P_3+3 0.975964 0.543759 0.225534 0.921795

loop_
_geom_bond_atom_site_label_1
_geom_bond_atom_site_label_2
_ccdc_geom_bond_type
O17   P3    D    
C33   O12   S    
C20   H29   S    
C4    O23   S    
Ba1   O25   S    
C43   C44   S    
C13   C17   A    
C30   H34   S    
Ba2   O5    S    
C24   C25   A    
C36   H39   S    
C32   H60   S    
C21   P3    S    
C15   P1    S    
C33   C35   S    
C23   H6    S    
C44   H19   S    
Ba1   O5    S    
O27   P4    S    
C5    P4    S    
C35   H4    S    
Ba2   O6    S    
O16   P3    S    
Ba1   Ba2   S    
C33   O18   S    
Ba1   O15   S    
C3    H22   S    
O24   P4    D    
C35   H41   S    
C16   H36   S    
O9    P8    S    
C2    C17   A    
C16   H11   S    
C12   H5    S    
C6    C7    S    
C28   O27   S    
C33   H2    S    
Ba2   O25   S    
C39   H52   S    
C41   O3    S    
C7    C8    S    
C37   H43   S    
O28   P7    S    
C24   C29   A    
C37   O19   S    
O12   P2    S    
C39   O21   S    
C14   H24   S    
C38   H49   S    
O23   P3    S    
C40   H55   S    
C37   H44   S    
C1    H3    S    
C29   H30   S    
C18   C27   A    
C4    C16   S    
Ba2   O4    S    
Ba2   O26   S    
C36   H38   S    
C32   H59   S    
O5    P2    S    
O15   P2    D    
C44   H18   S    
C1    H46   S    
C31   H45   S    
C38   H47   S    
C3    C5    D    
C14   C15   A    
C12   H1    S    
C18   C26   A    
C22   P2    S    
C38   O20   S    
C43   H16   S    
Ba2   O29   S    
O6    P7    D    
C5    C45   S    
O3    P5    S    
C41   C42   S    
Ba1   O16   S    
C44   H21   S    
O29   P5    S    
C34   H9    S    
C10   C13   S    
C27   P5    S    
Ba2   O24   S    
C6    P8    S    
C26   P7    S    
Ba1   O10   S    
C7    C9    S    
C2    H26   S    
C1    C12   S    
C41   H13   S    
C2    C15   A    
C1    H10   S    
C4    H20   S    
C17   P6    S    
C20   C25   A    
C11   C13   A    
C39   H50   S    
C10   H28   S    
C19   C22   A    
C38   H48   S    
C40   H54   S    
C36   O18   S    
Ba1   P1    S    
O4    P1    S    
C35   O19   S    
O8    P8    D    
O26   P8    S    
C23   C34   S    
C31   H56   S    
C32   H58   S    
O14   P6    S    
C22   C24   A    
O11   P6    D    
C9    H27   S    
C40   H57   S    
C41   O21   S    
C30   H23   S    
C9    C10   D    
C42   H14   S    
O25   P4    S    
C28   O22   S    
C43   H17   S    
Ba2   O28   S    
C18   H31   S    
C36   H40   S    
C42   H15   S    
O7    P7    S    
C19   C21   A    
O10   P6    S    
C23   O20   S    
C6    C45   D    
Ba2   P4    S    
C3    C8    S    
C27   C29   A    
C34   H8    S    
C23   O7    S    
Ba1   O4    S    
C28   C30   S    
C42   H53   S    
C43   O9    S    
C4    H32   S    
O1    P1    D    
C19   H33   S    
C16   H35   S    
C31   C32   S    
C40   O22   S    
C28   H37   S    
C45   H25   S    
C34   H7    S    
Ba1   O1    S    
C31   O13   S    
C11   C14   A    
C25   C26   A    
C12   O14   S    
C20   C21   A    
O2    P5    D    
O13   P1    S    
C30   H12   S    
Ba1   O28   S    
C37   H42   S    
C39   H51   S    
Ba1   P2    S    
