data_mof_unit_49971.cif
_audit_creation_date              2012-12-10T20:25:47-0500
_audit_creation_method            fapswitch 2.2
_symmetry_space_group_name_H-M    P1
_symmetry_Int_Tables_number       1
_space_group_crystal_system       triclinic
_cell_length_a                    8.59782
_cell_length_b                    10.713524
_cell_length_c                    9.91982
_cell_angle_alpha                 88.860704
_cell_angle_beta                  98.173765
_cell_angle_gamma                 90.509549
_cell_volume                      904.265774705

loop_
_atom_site_label
_atom_site_type_symbol
_atom_type_description
_atom_site_fract_x
_atom_site_fract_y
_atom_site_fract_z
_atom_type_partial_charge
C1    C     C_R   0.507315 0.260434 0.501848 0.987875
C2    C     C_R   0.618561 0.938399 0.414568 0.385413
C3    C     C_R   0.535473 0.871605 0.505767 -0.221596
C4    C     C_R   0.482407 0.933971 0.611753 -0.069759
C5    C     C_3   0.327780 0.924161 0.663670 0.206125
C6    C     C_3   0.328308 0.065990 0.664962 0.324816
C7    C     C_R   0.417853 0.411269 0.063544 0.070105
C8    C     C_R   0.591123 0.581603 0.078499 0.438194
C9    C     C_R   0.589501 0.581453 0.935890 -0.158839
C10   C     C_R   0.415408 0.411966 0.920632 0.116141
C11   C     C_3   0.239616 0.397075 0.900200 0.290429
C12   C     C_R   0.201771 0.507083 0.464819 1.005694
C13   C     C_3   0.246192 0.389284 0.054278 0.136111
C14   C     C_R   0.510658 0.739620 0.500377 0.905407
C15   C     C_R   0.797604 0.514225 0.535284 0.736784
C16   C     C_2   0.036410 0.514416 0.447650 -0.481755
C17   C     C_2   0.962318 0.545429 0.552036 0.274783
C18   C     C_R   0.483675 0.061253 0.614225 -0.071991
C19   C     C_R   0.535530 0.129414 0.508913 -0.235461
C20   C     C_R   0.615347 0.068993 0.413709 0.357172
H1    H     H_    0.975562 0.483781 0.350620 0.152862
H2    H     H_    0.659048 0.649328 0.888210 0.163351
H3    H     H_    0.181815 0.482213 0.852355 0.092221
H4    H     H_    0.180035 0.464353 0.096779 0.085646
H5    H     H_    0.336156 0.879194 0.766570 0.086017
H6    H     H_    0.336400 0.105788 0.768099 0.141691
N1    N     N_R   0.498950 0.499140 0.142680 -0.196896
N2    N     N_R   0.498950 0.499180 0.857030 -0.170160
O1    O     O_R   0.500020 0.316790 0.614690 -0.604234
O2    O     O_R   0.500000 0.316760 0.385350 -0.580326
O3    O     O_R   0.271760 0.500010 0.587850 -0.543302
O4    O     O_R   0.271740 0.499970 0.358500 -0.653895
O5    O     O_R   0.500000 0.683240 0.614650 -0.644734
O6    O     O_R   0.499980 0.683210 0.385310 -0.593444
O7    O     O_R   0.728260 0.500030 0.641500 -0.652451
O8    O     O_R   0.728240 0.499990 0.412150 -0.663978
Zn1   Zn    Zn3+2 0.500010 0.500020 0.653130 0.955808
Zn2   Zn    Zn3+2 0.499990 0.499980 0.346870 0.954970
O9    O     O_3   0.189402 0.284411 0.835776 -0.557998
C21   C     C_3   0.023237 0.281820 0.803790 0.208047
H7    H     H_    0.991178 0.296999 0.692270 0.127086
H8    H     H_    0.961876 0.353926 0.856305 0.117514
C22   C     C_3   0.960291 0.154785 0.843162 -0.832200
H9    H     H_    0.831028 0.150736 0.812166 0.204086
H10   H     H_    0.986462 0.139316 0.954781 0.289742
H11   H     H_    0.015188 0.078477 0.793327 0.227710
O10   O     O_3   0.214598 0.268994 0.102057 -0.704317
H12   H     H_    0.245148 0.269839 0.202271 0.364376
O11   O     O_3   0.044257 0.607802 0.664292 -0.621575
C23   C     C_3   0.948149 0.663289 0.750701 0.105667
H13   H     H_    0.907852 0.590453 0.819326 0.160730
H14   H     H_    0.846992 0.713871 0.691936 0.136552
C24   C     C_3   0.042884 0.757663 0.841587 -0.872868
H15   H     H_    0.062749 0.843087 0.781580 0.260916
H16   H     H_    0.976249 0.784362 0.924552 0.226762
H17   H     H_    0.157346 0.717448 0.887550 0.256329
O12   O     O_3   0.667997 0.133681 0.306912 -0.546411
C25   C     C_3   0.815238 0.188504 0.352573 0.108803
H18   H     H_    0.903169 0.117026 0.392743 0.141905
H19   H     H_    0.807480 0.257327 0.433656 0.118390
C26   C     C_3   0.873144 0.254959 0.232593 -0.717801
H20   H     H_    0.795170 0.334598 0.196878 0.248164
H21   H     H_    0.994159 0.289705 0.263803 0.206733
H22   H     H_    0.873869 0.189136 0.147910 0.256723
O13   O     O_3   0.694967 0.878943 0.320840 -0.550856
C27   C     C_3   0.851469 0.853150 0.380286 0.111095
H23   H     H_    0.857195 0.756074 0.420264 0.134619
H24   H     H_    0.897273 0.914497 0.466889 0.125186
C28   C     C_3   0.960770 0.866603 0.272314 -0.672070
H25   H     H_    0.957157 0.963365 0.230160 0.248295
H26   H     H_    0.083167 0.844683 0.317485 0.240388
H27   H     H_    0.926079 0.801669 0.187697 0.264261
O14   O     O_3   0.209235 0.875707 0.566719 -0.763095
H28   H     H_    0.213224 0.783844 0.579379 0.371999
O15   O     O_3   0.214066 0.121174 0.567007 -0.723039
H29   H     H_    0.111088 0.102491 0.596506 0.334285
O16   O     O_3   0.685590 0.669005 0.148082 -0.757360
H30   H     H_    0.690268 0.649734 0.245109 0.398431

loop_
_geom_bond_atom_site_label_1
_geom_bond_atom_site_label_2
_ccdc_geom_bond_type
C7    C10   A    
C27   H24   S    
C16   H1    S    
C28   H27   S    
O14   H28   S    
C19   C20   A    
O15   H29   S    
C2    O13   S    
C14   O5    A    
C6    O15   S    
C24   H15   S    
O7    Zn1   S    
C5    C6    S    
C9    H2    S    
C27   C28   S    
N1    Zn2   S    
C25   H19   S    
C7    N1    A    
O2    Zn2   S    
C28   H26   S    
C18   C19   A    
C26   H21   S    
C21   C22   S    
C12   C16   S    
C8    C9    A    
C23   H14   S    
O4    Zn2   S    
C4    C18   A    
C25   C26   S    
C21   H8    S    
C27   H23   S    
C12   O4    A    
C28   H25   S    
C15   O7    A    
C24   H16   S    
C6    C18   S    
C1    C19   S    
C23   C24   S    
C2    C20   A    
C17   O11   S    
O9    C21   S    
C13   O10   S    
C16   C17   D    
C25   H18   S    
O16   H30   S    
O5    Zn1   S    
O3    Zn1   S    
C13   H4    S    
C26   H22   S    
C22   H9    S    
O10   H12   S    
C1    O1    A    
C23   H13   S    
C11   O9    S    
C22   H10   S    
C3    C14   S    
C5    H5    S    
C21   H7    S    
O11   C23   S    
C12   O3    A    
C8    O16   S    
C3    C4    A    
C15   O8    A    
C24   H17   S    
C10   N2    A    
C15   C17   S    
O6    Zn2   S    
C4    C5    S    
C14   O6    A    
O8    Zn2   S    
C2    C3    A    
C11   C13   S    
O12   C25   S    
C6    H6    S    
N2    Zn1   S    
C11   H3    S    
C1    O2    A    
C5    O14   S    
C26   H20   S    
C22   H11   S    
C10   C11   S    
C7    C13   S    
O13   C27   S    
O1    Zn1   S    
C8    N1    A    
C20   O12   S    
C9    N2    A    
