data_mof_unit_21941.cif
_audit_creation_date              2012-12-11T17:14:11-0500
_audit_creation_method            fapswitch 2.2
_symmetry_space_group_name_H-M    P1
_symmetry_Int_Tables_number       1
_space_group_crystal_system       triclinic
_cell_length_a                    18.225486
_cell_length_b                    7.092826
_cell_length_c                    13.005081
_cell_angle_alpha                 90.431403
_cell_angle_beta                  71.807151
_cell_angle_gamma                 89.808095
_cell_volume                      1597.05547739

loop_
_atom_site_label
_atom_site_type_symbol
_atom_type_description
_atom_site_fract_x
_atom_site_fract_y
_atom_site_fract_z
_atom_type_partial_charge
O1    O     O_R   0.453880 0.506200 0.150010 -0.538374
O2    O     O_R   0.546120 0.006200 0.849990 -0.538023
O3    O     O_R   0.604080 0.177770 0.007280 -0.539339
O4    O     O_R   0.395920 0.677770 0.992720 -0.539577
C1    C     C_R   0.636007 0.344331 0.001665 0.730101
C2    C     C_R   0.363995 0.844693 0.998327 0.730546
O5    O     O_R   0.458010 0.176640 0.159130 -0.540996
O6    O     O_R   0.541990 0.676640 0.840870 -0.541381
O7    O     O_R   0.399010 0.004010 0.002930 -0.535816
O8    O     O_R   0.600990 0.504010 0.997070 -0.536141
C3    C     C_R   0.442562 0.346287 0.201828 0.688948
C4    C     C_R   0.557381 0.844107 0.798061 0.688788
O9    O     O_3   0.480810 0.338440 0.948570 -0.373519
O10   O     O_3   0.519190 0.838440 0.051430 -0.374249
V1    V     V_3+5 0.503560 0.064490 0.009540 1.424233
V2    V     V_3+5 0.496440 0.564490 0.990460 1.421696
C5    C     C_R   0.585570 0.769806 0.502974 -0.165131
C6    C     C_R   0.413058 0.467195 0.492686 -0.164021
H1    H     H_    0.487763 0.774254 0.647024 0.099675
H2    H     H_    0.511028 0.452640 0.349065 0.101448
H3    H     H_    0.665986 0.736818 0.295317 0.123117
H4    H     H_    0.332144 0.521980 0.698679 0.122114
H5    H     H_    0.550587 0.738754 0.451294 0.115071
H6    H     H_    0.447594 0.510779 0.542823 0.115036
C7    C     C_R   0.593027 0.845233 0.680673 -0.024598
C8    C     C_R   0.406651 0.362230 0.318833 -0.025226
C9    C     C_R   0.951816 0.906136 0.385366 -0.230069
C10   C     C_R   0.049009 0.295942 0.616969 -0.229884
C11   C     C_R   0.922797 0.882449 0.496638 -0.122000
C12   C     C_R   0.077708 0.306789 0.504920 -0.121391
C13   C     C_R   0.846653 0.821168 0.545312 0.141861
C14   C     C_R   0.152887 0.372114 0.453687 0.141687
C15   C     C_R   0.794443 0.821917 0.482617 0.028016
C16   C     C_R   0.205037 0.388672 0.515976 0.029187
C17   C     C_R   0.826935 0.824380 0.367519 0.047549
C18   C     C_R   0.172572 0.399342 0.630947 0.047528
C19   C     C_R   0.711978 0.820921 0.527881 0.069257
C20   C     C_R   0.287393 0.394803 0.470444 0.068859
C21   C     C_R   0.666119 0.783267 0.459505 0.150737
C22   C     C_R   0.332707 0.449569 0.536883 0.149766
C23   C     C_R   0.700631 0.764152 0.348045 -0.207193
C24   C     C_R   0.297913 0.481351 0.647372 -0.205834
C25   C     C_R   0.779389 0.791000 0.302280 -0.185998
C26   C     C_R   0.219545 0.450300 0.694436 -0.185573
C27   C     C_R   0.672921 0.868686 0.637052 -0.241172
C28   C     C_R   0.327009 0.335522 0.363453 -0.240817
C29   C     C_R   0.549575 0.794000 0.613618 -0.167580
C30   C     C_R   0.449436 0.430127 0.383314 -0.168128
C31   C     C_R   0.906297 0.863630 0.319833 -0.069587
C32   C     C_R   0.093810 0.355890 0.680377 -0.071127
H7    H     H_    0.703511 0.922490 0.689911 0.106354
H8    H     H_    0.297029 0.269407 0.313157 0.106419
H9    H     H_    0.011638 0.946380 0.349528 0.117125
H10   H     H_    0.989763 0.252661 0.654573 0.119818
H11   H     H_    0.961740 0.900439 0.544013 0.129852
H12   H     H_    0.039054 0.276215 0.458507 0.128825
H13   H     H_    0.802572 0.786083 0.214874 0.126654
H14   H     H_    0.196218 0.465726 0.781483 0.126613
C33   C     C_1   0.216255 0.858407 0.000527 -0.191014
C34   C     C_1   0.783738 0.359038 0.999461 -0.190032
C35   C     C_1   0.283551 0.852764 0.999336 -0.188733
C36   C     C_1   0.716454 0.352387 0.000669 -0.188625
O11   O     O_R   0.899030 0.205490 0.002790 -0.534547
O12   O     O_R   0.100970 0.705490 0.997210 -0.536828
O13   O     O_R   0.042000 0.536370 0.840840 -0.541561
O14   O     O_R   0.958000 0.036370 0.159160 -0.540407
C37   C     C_R   0.057683 0.367177 0.798076 0.689579
C38   C     C_R   0.942176 0.869259 0.201995 0.690022
O15   O     O_R   0.895930 0.535070 0.992690 -0.539768
O16   O     O_R   0.104070 0.035070 0.007310 -0.537817
O17   O     O_R   0.953870 0.707520 0.150040 -0.539035
O18   O     O_R   0.046130 0.207520 0.849960 -0.537353
C39   C     C_R   0.864154 0.366938 0.998576 0.727025
C40   C     C_R   0.135843 0.866511 0.001427 0.726944
O19   O     O_3   0.019200 0.374340 0.051340 -0.372872
O20   O     O_3   0.980800 0.874340 0.948660 -0.373333
V3    V     V_3+5 0.996440 0.648350 0.990470 1.418137
V4    V     V_3+5 0.003560 0.148350 0.009530 1.426257
C41   C     C_3   0.827676 0.733174 0.657091 -0.384626
C42   C     C_3   0.886380 0.581970 0.662922 -0.738526
H15   H     H_    0.894253 0.477164 0.596343 0.230051
H16   H     H_    0.942948 0.645438 0.657895 0.227998
H17   H     H_    0.865138 0.507393 0.741411 0.206796
H18   H     H_    0.825386 0.844809 0.718446 0.175773
H19   H     H_    0.771649 0.658720 0.679078 0.191572
C43   C     C_3   0.170356 0.446978 0.339044 -0.387765
C44   C     C_3   0.110228 0.591377 0.329399 -0.733456
H20   H     H_    0.053659 0.523869 0.339029 0.228295
H21   H     H_    0.102894 0.704313 0.391533 0.227542
H22   H     H_    0.129859 0.656734 0.248047 0.208975
H23   H     H_    0.225847 0.523744 0.313216 0.191265
H24   H     H_    0.172886 0.327901 0.281995 0.175928

loop_
_geom_bond_atom_site_label_1
_geom_bond_atom_site_label_2
_ccdc_geom_bond_type
O14   C38   A    
C44   H20   S    
C31   C38   S    
C9    C11   A    
O12   V3    S    
O15   V3    S    
O1    C3    A    
O17   V3    S    
O2    C4    A    
C2    O7    A    
O3    V1    S    
C21   C23   A    
O5    C3    A    
C5    H5    S    
C6    H6    S    
C2    C35   S    
O20   V4    S    
C43   H23   S    
C41   H18   S    
H1    C29   S    
O16   V4    S    
C27   H7    S    
C28   H8    S    
C34   C39   S    
C34   C36   T    
C37   O18   A    
C5    C21   A    
C6    C22   A    
O18   V4    S    
C10   C32   A    
C26   H14   S    
O13   C37   A    
C17   C31   A    
C13   C15   A    
O15   C39   A    
C12   C14   A    
C17   C25   A    
C32   C37   S    
C7    C29   A    
C8    C30   A    
C22   C24   A    
O6    V2    S    
C23   C25   A    
C24   C26   A    
C42   H17   S    
O14   V4    S    
C33   C35   T    
O13   V3    S    
O20   V3    S    
C42   H16   S    
C10   H10   S    
C43   C44   S    
O11   C39   A    
C3    C8    S    
C12   H12   S    
C15   C19   A    
C14   C16   A    
O4    V2    S    
O16   C40   A    
O6    C4    A    
C14   C43   S    
C25   H13   S    
O1    V2    S    
O2    V1    S    
O19   V3    S    
C33   C40   S    
H2    C30   S    
H3    C23   S    
O4    C2    A    
C44   H21   S    
C18   C26   A    
C19   C27   A    
C7    C27   A    
C41   H19   S    
C18   C32   A    
C16   C20   A    
C5    C29   A    
C42   H15   S    
O3    C1    A    
C6    C30   A    
C9    H9    S    
O9    V2    S    
C13   C41   S    
C11   H11   S    
C4    C7    S    
C10   C12   A    
O7    V1    S    
C1    O8    A    
C11   C13   A    
O8    V2    S    
C20   C22   A    
H4    C24   S    
C38   O17   A    
O5    V1    S    
C15   C17   A    
C1    C36   S    
C16   C18   A    
O19   V4    S    
C20   C28   A    
C8    C28   A    
C41   C42   S    
C19   C21   A    
C44   H22   S    
O12   C40   A    
O10   V1    S    
C43   H24   S    
C9    C31   A    
O11   V4    S    
