data_mof_unit_26334.cif
_audit_creation_date              2012-12-11T14:24:46-0500
_audit_creation_method            fapswitch 2.2
_symmetry_space_group_name_H-M    P1
_symmetry_Int_Tables_number       1
_space_group_crystal_system       triclinic
_cell_length_a                    19.025157
_cell_length_b                    10.985855
_cell_length_c                    18.775694
_cell_angle_alpha                 90.351426
_cell_angle_beta                  90.639144
_cell_angle_gamma                 90.108994
_cell_volume                      3923.93745163

loop_
_atom_site_label
_atom_site_type_symbol
_atom_type_description
_atom_site_fract_x
_atom_site_fract_y
_atom_site_fract_z
_atom_type_partial_charge
C1    C     C_R   0.727865 0.370453 0.143515 0.557558
C2    C     C_R   0.284786 0.337282 0.861627 0.607081
C3    C     C_R   0.227865 0.870453 0.143515 0.557556
C4    C     C_R   0.784786 0.837283 0.861627 0.607085
C5    C     C_3   0.499031 0.050758 0.024000 -0.140841
C6    C     C_3   0.547910 0.062490 0.958598 -0.155397
C7    C     C_3   0.999030 0.550759 0.024000 -0.140846
C8    C     C_3   0.047910 0.562489 0.958598 -0.155392
C9    C     C_R   0.772490 0.858360 0.938763 0.057059
C10   C     C_R   0.239180 0.894006 0.066722 0.060126
C11   C     C_R   0.272490 0.358360 0.938763 0.057060
C12   C     C_R   0.739180 0.394006 0.066722 0.060126
C13   C     C_R   0.710016 0.821451 0.975171 -0.040262
C14   C     C_R   0.296890 0.843017 0.028603 -0.021643
C15   C     C_R   0.210016 0.321451 0.975171 -0.040258
C16   C     C_R   0.796890 0.343016 0.028603 -0.021648
C17   C     C_R   0.710141 0.823732 0.050798 0.029101
C18   C     C_R   0.293255 0.836734 0.953004 0.069875
C19   C     C_R   0.210141 0.323732 0.050798 0.029103
C20   C     C_R   0.793255 0.336733 0.953003 0.069872
C21   C     C_R   0.823099 0.924113 0.051915 -0.119233
C22   C     C_R   0.185445 0.952361 0.954354 -0.114392
C23   C     C_R   0.323099 0.424113 0.051915 -0.119232
C24   C     C_R   0.685445 0.452360 0.954354 -0.114391
C25   C     C_R   0.830446 0.902358 0.979356 0.265879
C26   C     C_R   0.181061 0.941278 0.027191 0.266490
C27   C     C_R   0.330446 0.402357 0.979357 0.265877
C28   C     C_R   0.681061 0.441278 0.027191 0.266492
C29   C     C_R   0.646672 0.785097 0.940655 -0.119666
C30   C     C_R   0.356652 0.793096 0.062621 -0.099060
C31   C     C_R   0.146672 0.285096 0.940655 -0.119665
C32   C     C_R   0.856652 0.293096 0.062621 -0.099063
C33   C     C_R   0.089967 0.242136 0.979364 -0.176426
C34   C     C_R   0.903714 0.221806 0.024794 -0.162743
C35   C     C_R   0.589966 0.742136 0.979364 -0.176426
C36   C     C_R   0.403714 0.721806 0.024795 -0.162743
C37   C     C_R   0.595743 0.727776 0.052507 -0.068613
C38   C     C_R   0.394965 0.703759 0.952068 -0.103379
C39   C     C_R   0.095743 0.227776 0.052507 -0.068613
C40   C     C_R   0.894965 0.203759 0.952068 -0.103379
C41   C     C_R   0.657221 0.761073 0.088243 0.167346
C42   C     C_R   0.339590 0.758906 0.915719 0.146219
C43   C     C_R   0.157221 0.261073 0.088243 0.167346
C44   C     C_R   0.839590 0.258906 0.915719 0.146219
C45   C     C_R   0.563210 0.150293 0.137345 0.577350
C46   C     C_R   0.468794 0.155429 0.854921 0.554210
C47   C     C_R   0.063210 0.650293 0.137345 0.577346
C48   C     C_R   0.968795 0.655428 0.854921 0.554216
C49   C     C_R   0.761222 0.893902 0.086715 -0.029398
C50   C     C_R   0.242659 0.907677 0.917370 0.008147
C51   C     C_R   0.261222 0.393902 0.086715 -0.029397
C52   C     C_R   0.742659 0.407677 0.917370 0.008146
C53   C     C_R   0.504919 0.166981 0.580370 0.007479
C54   C     C_R   0.541176 0.152848 0.436137 -0.003879
C55   C     C_R   0.004919 0.666981 0.580370 0.007478
C56   C     C_R   0.041176 0.652848 0.436137 -0.003879
C57   C     C_R   0.547810 0.070834 0.556986 0.028712
C58   C     C_R   0.557884 0.054558 0.483100 0.000853
C59   C     C_R   0.047810 0.570834 0.556986 0.028712
C60   C     C_R   0.057884 0.554558 0.483100 0.000853
C61   C     C_R   0.500756 0.249545 0.461274 -0.154125
C62   C     C_R   0.479014 0.251694 0.531340 -0.131301
C63   C     C_R   0.000756 0.749545 0.461274 -0.154126
C64   C     C_R   0.979015 0.751694 0.531340 -0.131303
C65   C     C_R   0.572364 0.981186 0.604892 -0.059337
C66   C     C_R   0.578181 0.936884 0.459803 -0.091083
C67   C     C_R   0.072364 0.481186 0.604892 -0.059336
C68   C     C_R   0.078181 0.436884 0.459803 -0.091082
C69   C     C_R   0.086686 0.364855 0.580479 -0.079831
C70   C     C_R   0.086494 0.342150 0.507934 -0.072994
C71   C     C_R   0.586686 0.864855 0.580479 -0.079831
C72   C     C_R   0.586494 0.842150 0.507935 -0.072995
C73   C     C_R   0.753783 0.907316 0.573156 -0.009207
C74   C     C_R   0.239511 0.934334 0.423437 0.034254
C75   C     C_R   0.253783 0.407315 0.573156 -0.009207
C76   C     C_R   0.739511 0.434334 0.423437 0.034254
C77   C     C_R   0.780660 0.016181 0.546258 0.035311
C78   C     C_R   0.179496 0.961031 0.467040 0.072902
C79   C     C_R   0.280660 0.516181 0.546257 0.035311
C80   C     C_R   0.679496 0.461031 0.467040 0.072902
C81   C     C_R   0.799096 0.016198 0.474682 -0.067086
C82   C     C_R   0.185474 0.931112 0.538825 -0.103702
C83   C     C_R   0.299096 0.516198 0.474681 -0.067086
C84   C     C_R   0.685474 0.431112 0.538825 -0.103702
C85   C     C_R   0.739676 0.821925 0.454363 0.185215
C86   C     C_R   0.313453 0.943721 0.525991 0.217244
C87   C     C_R   0.239676 0.321925 0.454363 0.185215
C88   C     C_R   0.813453 0.443721 0.525991 0.217244
C89   C     C_R   0.743937 0.963419 0.151548 0.556879
C90   C     C_R   0.256750 0.965680 0.849183 0.560150
C91   C     C_R   0.243937 0.463419 0.151548 0.556876
C92   C     C_R   0.756750 0.465680 0.849183 0.560152
C93   C     C_R   0.738469 0.808152 0.527457 -0.116668
C94   C     C_R   0.305849 0.930036 0.453063 -0.137636
C95   C     C_R   0.238468 0.308152 0.527457 -0.116667
C96   C     C_R   0.805849 0.430036 0.453063 -0.137636
C97   C     C_R   0.801366 0.114279 0.591260 0.216690
C98   C     C_R   0.115133 0.017000 0.443651 0.261106
C99   C     C_R   0.301366 0.614279 0.591260 0.216691
C100  C     C_R   0.615133 0.516999 0.443651 0.261106
C101  C     C_R   0.856913 0.188940 0.570353 -0.003769
C102  C     C_R   0.057541 0.021735 0.489825 -0.093953
C103  C     C_R   0.356913 0.688940 0.570353 -0.003770
C104  C     C_R   0.557541 0.521735 0.489825 -0.093953
C105  C     C_R   0.884641 0.178192 0.502455 0.228151
C106  C     C_R   0.062261 0.977891 0.558673 0.216700
C107  C     C_R   0.384641 0.678192 0.502454 0.228151
C108  C     C_R   0.562261 0.477891 0.558673 0.216699
C109  C     C_R   0.855418 0.093200 0.454527 -0.105792
C110  C     C_R   0.124621 0.922894 0.580974 -0.098807
C111  C     C_R   0.355418 0.593200 0.454527 -0.105792
C112  C     C_R   0.624621 0.422894 0.580974 -0.098807
C113  C     C_R   0.763631 0.932147 0.427680 0.000941
C114  C     C_R   0.253059 0.933526 0.569535 0.025331
C115  C     C_R   0.263631 0.432147 0.427680 0.000941
C116  C     C_R   0.753059 0.433526 0.569535 0.025331
C117  C     C_R   0.729429 0.382859 0.353240 0.550550
C118  C     C_R   0.269599 0.377005 0.645561 0.614065
C119  C     C_R   0.229429 0.882859 0.353240 0.550551
C120  C     C_R   0.769599 0.877005 0.645561 0.614065
C121  C     C_R   0.562003 0.152262 0.361039 0.550486
C122  C     C_R   0.469070 0.157759 0.648312 0.551601
C123  C     C_R   0.062003 0.652262 0.361039 0.550486
C124  C     C_R   0.969070 0.657759 0.648312 0.551600
C125  C     C_R   0.744367 0.971868 0.356243 0.533837
C126  C     C_R   0.258884 0.972841 0.642750 0.563176
C127  C     C_R   0.244367 0.471868 0.356243 0.533837
C128  C     C_R   0.758884 0.472841 0.642750 0.563175
C129  C     C_3   0.540312 0.263385 0.964730 -0.082579
C130  C     C_3   0.491218 0.251622 0.030488 -0.062264
C131  C     C_3   0.040313 0.763385 0.964730 -0.082580
C132  C     C_3   0.991218 0.751622 0.030487 -0.062264
C133  C     C_3   0.588427 0.164883 0.997232 0.216709
C134  C     C_3   0.451156 0.148610 0.992108 0.251135
C135  C     C_3   0.088427 0.664883 0.997232 0.216709
C136  C     C_3   0.951156 0.648611 0.992108 0.251135
C137  C     C_3   0.540550 0.154240 0.061846 0.018042
C138  C     C_3   0.498832 0.160744 0.927386 0.029250
C139  C     C_3   0.040550 0.654240 0.061846 0.018038
C140  C     C_3   0.998832 0.660744 0.927386 0.029254
Cr1   Cr    Cr6+3 0.772820 0.169820 0.252640 0.992010
Cr2   Cr    Cr6+3 0.227180 0.169820 0.747360 0.998220
Cr3   Cr    Cr6+3 0.272820 0.669820 0.252640 0.992009
Cr4   Cr    Cr6+3 0.727180 0.669820 0.747360 0.998220
Cr5   Cr    Cr6+3 0.615040 0.323610 0.249150 1.060370
Cr6   Cr    Cr6+3 0.384960 0.323610 0.750850 1.055675
Cr7   Cr    Cr6+3 0.115040 0.823610 0.249150 1.060370
Cr8   Cr    Cr6+3 0.884960 0.823610 0.750850 1.055675
Cr9   Cr    Cr6+3 0.616720 0.011130 0.250660 1.021468
Cr10  Cr    Cr6+3 0.383280 0.011130 0.749340 1.028931
Cr11  Cr    Cr6+3 0.116720 0.511130 0.250660 1.021467
Cr12  Cr    Cr6+3 0.883280 0.511130 0.749340 1.028932
H1    H     H_    0.482019 0.319870 0.425651 0.138642
H2    H     H_    0.440336 0.318797 0.546782 0.185573
H3    H     H_    0.982019 0.819871 0.425651 0.138643
H4    H     H_    0.940337 0.818797 0.546782 0.185573
H5    H     H_    0.574714 0.997313 0.661805 0.129897
H6    H     H_    0.583806 0.910674 0.405236 0.183695
H7    H     H_    0.074714 0.497313 0.661805 0.129897
H8    H     H_    0.083806 0.410674 0.405236 0.183695
H9    H     H_    0.098521 0.292553 0.617603 0.139232
H10   H     H_    0.097922 0.252139 0.488657 0.171555
H11   H     H_    0.598521 0.792553 0.617603 0.139232
H12   H     H_    0.597922 0.752139 0.488657 0.171555
H13   H     H_    0.724847 0.719587 0.548500 0.162493
H14   H     H_    0.351356 0.919515 0.419339 0.135184
H15   H     H_    0.224847 0.219587 0.548500 0.162493
H16   H     H_    0.851356 0.419515 0.419339 0.135184
H17   H     H_    0.878890 0.255258 0.607176 0.177231
H18   H     H_    0.008999 0.062455 0.472482 0.138404
H19   H     H_    0.378890 0.755258 0.607175 0.177231
H20   H     H_    0.508999 0.562454 0.472482 0.138404
H21   H     H_    0.881818 0.081811 0.404352 0.133789
H22   H     H_    0.127786 0.886106 0.634342 0.128573
H23   H     H_    0.381818 0.581811 0.404352 0.133789
H24   H     H_    0.627786 0.386106 0.634342 0.128573
H25   H     H_    0.555326 0.347136 0.936259 0.109664
H26   H     H_    0.468223 0.325291 0.063321 0.126186
H27   H     H_    0.055327 0.847135 0.936259 0.109664
H28   H     H_    0.968224 0.825291 0.063321 0.126187
H29   H     H_    0.480997 0.964362 0.048143 0.143569
H30   H     H_    0.571693 0.988812 0.926618 0.135286
H31   H     H_    0.980997 0.464363 0.048143 0.143567
H32   H     H_    0.071692 0.488812 0.926618 0.135287
H33   H     H_    0.865254 0.969856 0.080710 0.121190
H34   H     H_    0.143648 0.000043 0.926628 0.121531
H35   H     H_    0.365254 0.469856 0.080710 0.121189
H36   H     H_    0.643648 0.500042 0.926628 0.121531
H37   H     H_    0.636319 0.795692 0.884789 0.157351
H38   H     H_    0.368828 0.808529 0.118122 0.148751
H39   H     H_    0.136319 0.295692 0.884789 0.157351
H40   H     H_    0.868828 0.308529 0.118122 0.148751
H41   H     H_    0.042326 0.215661 0.951779 0.101326
H42   H     H_    0.945340 0.175978 0.052761 0.092179
H43   H     H_    0.542326 0.715661 0.951779 0.101327
H44   H     H_    0.445340 0.675978 0.052761 0.092179
H45   H     H_    0.054006 0.185286 0.081593 0.112921
H46   H     H_    0.930803 0.145692 0.923383 0.129126
H47   H     H_    0.554006 0.685286 0.081593 0.112921
H48   H     H_    0.430803 0.645692 0.923383 0.129126
O1    O     O_R   0.788190 0.043000 0.172520 -0.525320
O2    O     O_R   0.211810 0.043000 0.827480 -0.540643
O3    O     O_R   0.288190 0.543000 0.172520 -0.525321
O4    O     O_R   0.711810 0.543000 0.827480 -0.540643
O5    O     O_R   0.556550 0.253260 0.323480 -0.496518
O6    O     O_R   0.443450 0.253260 0.676520 -0.516353
O7    O     O_R   0.056550 0.753260 0.323480 -0.496517
O8    O     O_R   0.943450 0.753260 0.676520 -0.516353
O9    O     O_R   0.545830 0.051610 0.330160 -0.529825
O10   O     O_R   0.454170 0.051610 0.669840 -0.478019
O11   O     O_R   0.045830 0.551610 0.330160 -0.529825
O12   O     O_R   0.954170 0.551610 0.669840 -0.478019
O13   O     O_R   0.681920 0.959720 0.327070 -0.514251
O14   O     O_R   0.318080 0.959720 0.672930 -0.460363
O15   O     O_R   0.181920 0.459720 0.327070 -0.514251
O16   O     O_R   0.818080 0.459720 0.672930 -0.460363
O17   O     O_3   0.668190 0.168190 0.250820 -0.297074
O18   O     O_3   0.331810 0.168190 0.749180 -0.276031
O19   O     O_3   0.168190 0.668190 0.250820 -0.297074
O20   O     O_3   0.831810 0.668190 0.749180 -0.276031
O21   O     O_R   0.766240 0.292300 0.176860 -0.526632
O22   O     O_R   0.233760 0.292300 0.823140 -0.536875
O23   O     O_R   0.266240 0.792300 0.176860 -0.526633
O24   O     O_R   0.733760 0.792300 0.823140 -0.536875
O25   O     O_R   0.670310 0.409160 0.168720 -0.453222
O26   O     O_R   0.329690 0.409160 0.831280 -0.467627
O27   O     O_R   0.170310 0.909160 0.168720 -0.453222
O28   O     O_R   0.829690 0.909160 0.831280 -0.467628
O29   O     O_R   0.556160 0.251900 0.173380 -0.479105
O30   O     O_R   0.443840 0.251900 0.826620 -0.479870
O31   O     O_R   0.056160 0.751900 0.173380 -0.479104
O32   O     O_R   0.943840 0.751900 0.826620 -0.479870
O33   O     O_R   0.545410 0.050140 0.168240 -0.518744
O34   O     O_R   0.454590 0.050140 0.831760 -0.541304
O35   O     O_R   0.045410 0.550140 0.168240 -0.518743
O36   O     O_R   0.954590 0.550140 0.831760 -0.541303
O37   O     O_R   0.681530 0.958350 0.176970 -0.478441
O38   O     O_R   0.318470 0.958350 0.823030 -0.489584
O39   O     O_R   0.181530 0.458350 0.176970 -0.478442
O40   O     O_R   0.818470 0.458350 0.823030 -0.489582
O41   O     O_R   0.788610 0.044480 0.334450 -0.535957
O42   O     O_R   0.211390 0.044480 0.665550 -0.538862
O43   O     O_R   0.288610 0.544480 0.334450 -0.535957
O44   O     O_R   0.711390 0.544480 0.665550 -0.538862
O45   O     O_R   0.766630 0.293670 0.326970 -0.517605
O46   O     O_R   0.233370 0.293670 0.673030 -0.529798
O47   O     O_R   0.266630 0.793670 0.326970 -0.517605
O48   O     O_R   0.733370 0.793670 0.673030 -0.529799
O49   O     O_R   0.670730 0.410640 0.330640 -0.459363
O50   O     O_R   0.329270 0.410640 0.669360 -0.467177
O51   O     O_R   0.170730 0.910640 0.330640 -0.459363
O52   O     O_R   0.829270 0.910640 0.669360 -0.467177
O53   O     O_3   0.661688 0.170983 0.000542 -0.702794
H49   H     H_    0.676937 0.095235 0.024459 0.317221
O54   O     O_3   0.377872 0.140057 0.989153 -0.698670
H50   H     H_    0.367520 0.066158 0.960440 0.322886
O55   O     O_3   0.161688 0.670982 0.000541 -0.702795
H51   H     H_    0.176936 0.595240 0.024466 0.317221
O56   O     O_3   0.877872 0.640059 0.989152 -0.698674
H52   H     H_    0.867519 0.566154 0.960447 0.322888
O57   O     O_3   0.720842 0.724895 0.411487 -0.673188
H53   H     H_    0.734438 0.741613 0.361723 0.343772
O58   O     O_3   0.378911 0.967808 0.555195 -0.651401
H54   H     H_    0.413085 0.980699 0.516489 0.352016
O59   O     O_3   0.220842 0.224895 0.411487 -0.673188
H55   H     H_    0.234438 0.241613 0.361723 0.343772
O60   O     O_3   0.878911 0.467808 0.555195 -0.651400
H56   H     H_    0.913084 0.480702 0.516489 0.352015
O61   O     O_3   0.769140 0.131075 0.656255 -0.704104
H57   H     H_    0.790391 0.202595 0.680792 0.323601
O62   O     O_3   0.111907 0.082056 0.380787 -0.636309
H58   H     H_    0.064105 0.116175 0.373799 0.291175
O63   O     O_3   0.269140 0.631075 0.656255 -0.704104
H59   H     H_    0.290391 0.702595 0.680791 0.323601
O64   O     O_3   0.611907 0.582055 0.380787 -0.636308
H60   H     H_    0.564105 0.616175 0.373799 0.291175
O65   O     O_3   0.939119 0.253987 0.483831 -0.714817
H61   H     H_    0.949145 0.242680 0.432496 0.296925
O66   O     O_3   0.006160 0.994450 0.603642 -0.701710
H62   H     H_    0.018867 0.962551 0.651354 0.326289
O67   O     O_3   0.439119 0.753987 0.483831 -0.714820
H63   H     H_    0.449146 0.742680 0.432496 0.296925
O68   O     O_3   0.506160 0.494450 0.603642 -0.701710
H64   H     H_    0.518868 0.462551 0.651354 0.326289
O69   O     O_3   0.894023 0.924769 0.946929 -0.682733
H65   H     H_    0.927692 0.960312 0.981885 0.289077
O70   O     O_3   0.118669 0.972309 0.059814 -0.686658
H66   H     H_    0.081551 0.989281 0.023825 0.294334
O71   O     O_3   0.394024 0.424769 0.946929 -0.682735
H67   H     H_    0.427692 0.460312 0.981885 0.289077
O72   O     O_3   0.618669 0.472309 0.059814 -0.686657
H68   H     H_    0.581551 0.489281 0.023825 0.294334
N1    N     N_3   0.668450 0.724353 0.160977 -0.577665
H69   H     H_    0.710157 0.662536 0.161504 0.240159
H70   H     H_    0.624608 0.677975 0.180252 0.241312
N2    N     N_3   0.325891 0.724756 0.843043 -0.598565
H71   H     H_    0.312542 0.632674 0.841899 0.273192
H72   H     H_    0.372165 0.735612 0.814160 0.223056
N3    N     N_3   0.168450 0.224353 0.160977 -0.577664
H73   H     H_    0.210157 0.162536 0.161504 0.240160
H74   H     H_    0.124608 0.177975 0.180253 0.241312
N4    N     N_3   0.825891 0.224755 0.843043 -0.598566
H75   H     H_    0.812542 0.132674 0.841899 0.273191
H76   H     H_    0.872165 0.235612 0.814160 0.223057

loop_
_geom_bond_atom_site_label_1
_geom_bond_atom_site_label_2
_ccdc_geom_bond_type
C99   C103  A    
C133  C137  S    
C55   C59   A    
C122  O6    A    
O72   H68   S    
C73   C93   A    
C136  C140  S    
C75   C95   A    
C135  C139  S    
C84   C112  A    
C71   H11   S    
C37   C41   A    
C79   C99   A    
C5    C6    S    
C109  H21   S    
O62   H58   S    
C100  C104  A    
C1    O21   A    
C9    C13   A    
C131  C140  S    
Cr4   O4    S    
Cr7   O31   S    
C50   C90   S    
C66   C72   A    
C12   C16   A    
Cr2   O46   S    
Cr9   O37   S    
C96   H16   S    
C87   C115  A    
C34   H42   S    
C59   C60   A    
Cr11  O15   S    
C124  O8    A    
C8    C135  S    
C130  C134  S    
C70   H10   S    
C47   O35   A    
Cr8   O52   S    
C90   O38   A    
C100  O64   S    
C56   C123  S    
C118  O50   A    
C133  O53   S    
C98   C102  A    
Cr5   O25   S    
C32   C34   A    
C78   C82   A    
C11   C27   A    
C16   C20   A    
Cr9   O17   S    
C129  C133  S    
C47   O31   A    
N2    H71   S    
C42   N2    S    
C128  O44   A    
Cr11  O19   S    
C2    O26   A    
C120  O52   A    
Cr9   O9    S    
C118  O46   A    
C5    C137  S    
Cr12  O36   S    
C54   C61   A    
C30   C36   A    
C98   O62   S    
C29   C35   A    
C7    H31   S    
C8    C140  S    
C26   O70   S    
C65   C71   A    
C76   C96   A    
C127  O15   A    
Cr4   O44   S    
C69   C70   A    
Cr9   O13   S    
Cr6   O18   S    
C73   C77   A    
C103  C107  A    
C68   H8    S    
C75   C79   A    
Cr1   O21   S    
C57   C65   A    
C41   N1    S    
C102  H18   S    
Cr3   O3    S    
C6    C138  S    
Cr8   O28   S    
C29   H37   S    
C21   C49   A    
C7    C8    S    
C132  C139  S    
Cr12  O16   S    
C6    H30   S    
Cr10  O10   S    
Cr5   O49   S    
C134  O54   S    
Cr4   O20   S    
C53   C122  S    
C18   C42   A    
O53   H49   S    
C114  C126  S    
O55   H51   S    
C119  O47   A    
Cr2   O18   S    
C59   C67   A    
C85   C93   A    
C87   C95   A    
C126  O42   A    
Cr1   O45   S    
C122  O10   A    
C77   C97   A    
C126  O14   A    
C51   C91   S    
Cr6   O26   S    
C84   C116  A    
O65   H61   S    
C103  H19   S    
C1    C12   S    
C125  O13   A    
C2    C11   S    
C20   C44   A    
C110  H22   S    
N4    H76   S    
C48   C140  S    
C83   C115  A    
C127  O43   A    
C10   C14   A    
C17   C49   A    
Cr7   O27   S    
Cr2   O42   S    
Cr9   O33   S    
C22   H34   S    
C36   H44   S    
N1    H69   S    
C119  O51   A    
C132  C136  S    
Cr11  O35   S    
O71   H67   S    
C128  O16   A    
C112  H24   S    
C54   C121  S    
C132  H28   S    
C46   O34   A    
C74   C78   A    
Cr3   O43   S    
C81   C113  A    
C129  C130  S    
C105  C109  A    
C92   O40   A    
C3    O23   A    
C107  C111  A    
C24   C28   A    
C95   H15   S    
C67   H7    S    
O60   H56   S    
C15   C31   A    
C16   C32   A    
C22   C50   A    
C85   C113  A    
C7    C136  S    
C23   H35   S    
C97   O61   S    
C57   C58   A    
C40   H46   S    
C44   N4    S    
C30   H38   S    
C39   H45   S    
C61   C62   A    
Cr3   O19   S    
C63   C64   A    
C40   C44   A    
O68   H64   S    
C106  O66   S    
C120  O48   A    
C90   O2    A    
C4    C9    S    
O56   H52   S    
C24   C52   A    
C88   C96   A    
C74   C94   A    
O64   H60   S    
C121  O5    A    
C80   C84   A    
C94   H14   S    
C9    C25   A    
O58   H54   S    
C15   C19   A    
Cr7   O51   S    
C12   C28   A    
Cr2   O2    S    
C13   C29   A    
C45   O33   A    
C6    C133  S    
C54   C58   A    
C31   H39   S    
C2    O22   A    
C32   H40   S    
C21   C25   A    
C130  H26   S    
Cr1   O17   S    
O66   H62   S    
C101  H17   S    
Cr8   O32   S    
C92   O4    A    
C35   H43   S    
C104  H20   S    
C11   C15   A    
N2    H72   S    
Cr12  O12   S    
C33   H41   S    
C73   C120  S    
O61   H57   S    
C46   O30   A    
C75   C118  S    
C5    H29   S    
C19   C43   A    
C135  O55   S    
C89   O37   A    
C65   H5    S    
C85   O57   S    
C117  O49   A    
C124  O12   A    
C129  H25   S    
Cr1   O41   S    
Cr5   O5    S    
C108  C112  A    
N3    H73   S    
O69   H65   S    
O70   H66   S    
C77   C81   A    
C136  O56   S    
C72   H12   S    
C27   O71   S    
Cr8   O20   S    
C108  O68   S    
C87   O59   S    
C81   C109  A    
C111  H23   S    
C52   C92   S    
C131  C132  S    
C3    O27   A    
C86   O58   S    
C104  C108  A    
C18   C50   A    
C1    O25   A    
C55   C124  S    
C53   C57   A    
C28   O72   S    
C69   H9    S    
C88   O60   S    
C21   H33   S    
C117  O45   A    
Cr11  O39   S    
C76   C117  S    
C24   H36   S    
C38   H48   S    
C36   C38   A    
Cr10  O34   S    
C79   C83   A    
O57   H53   S    
Cr3   O47   S    
C4    O28   A    
Cr8   O8    S    
C13   C17   A    
C56   C60   A    
C71   C72   A    
Cr5   O17   S    
C60   C68   A    
C20   C52   A    
C22   C26   A    
C47   C139  S    
C130  C137  S    
C91   O3    A    
C89   O1    A    
C105  O65   S    
C14   C18   A    
Cr6   O6    S    
C99   O63   S    
C74   C119  S    
C33   C39   A    
Cr11  O11   S    
Cr6   O50   S    
C34   C40   A    
C82   C110  A    
C35   C37   A    
Cr1   O1    S    
C38   C42   A    
C131  C135  S    
Cr3   O23   S    
C113  C125  S    
C115  C127  S    
C86   C94   A    
C58   C66   A    
C129  C138  S    
Cr10  O38   S    
C123  O11   A    
C78   C98   A    
C31   C33   A    
C125  O41   A    
C121  O9    A    
O59   H55   S    
C46   C138  S    
C8    H32   S    
Cr10  O14   S    
C93   H13   S    
C80   C100  A    
C25   O69   S    
C107  O67   S    
C45   O29   A    
C14   C30   A    
C101  C105  A    
C5    C134  S    
C82   C114  A    
C131  H27   S    
C39   C43   A    
O67   H63   S    
C4    O24   A    
C62   H2    S    
C67   C69   A    
C88   C116  A    
C53   C62   A    
C23   C51   A    
Cr12  O40   S    
C55   C64   A    
C45   C137  S    
O63   H59   S    
Cr10  O18   S    
C56   C63   A    
C123  O7    A    
Cr7   O7    S    
N3    H74   S    
C48   O36   A    
C68   C70   A    
C23   C27   A    
Cr4   O48   S    
C76   C80   A    
O54   H50   S    
C66   H6    S    
Cr6   O30   S    
C43   N3    S    
N4    H75   S    
C49   C89   S    
C61   H1    S    
C134  C138  S    
C64   H4    S    
C86   C114  A    
C63   H3    S    
N1    H70   S    
C3    C10   S    
C7    C139  S    
C10   C26   A    
Cr12  O20   S    
C102  C106  A    
C83   C111  A    
C37   H47   S    
C17   C41   A    
Cr4   O24   S    
Cr7   O19   S    
C48   O32   A    
C19   C51   A    
C106  C110  A    
C116  C128  S    
C91   O39   A    
Cr5   O29   S    
Cr2   O22   S    
C97   C101  A    
