data_mof_unit_28233.cif
_audit_creation_date              2012-12-11T14:56:24-0500
_audit_creation_method            fapswitch 2.2
_symmetry_space_group_name_H-M    P1
_symmetry_Int_Tables_number       1
_space_group_crystal_system       triclinic
_cell_length_a                    10.567158
_cell_length_b                    10.692523
_cell_length_c                    17.16908
_cell_angle_alpha                 80.17023
_cell_angle_beta                  89.710652
_cell_angle_gamma                 119.312784
_cell_volume                      1657.81369435

loop_
_atom_site_label
_atom_site_type_symbol
_atom_type_description
_atom_site_fract_x
_atom_site_fract_y
_atom_site_fract_z
_atom_type_partial_charge
C1    C     C_R   0.222372 0.853989 0.128723 0.571054
C2    C     C_1   0.651841 0.347132 0.707783 -0.012560
C3    C     C_R   0.626118 0.714523 0.804143 0.224927
C4    C     C_R   0.634967 0.278940 0.086955 0.551659
C5    C     C_R   0.607790 0.701273 0.725657 -0.165637
C6    C     C_R   0.669100 0.825259 0.664626 0.009997
C7    C     C_R   0.758086 0.964864 0.680959 0.227815
C8    C     C_R   0.773390 0.981428 0.760509 -0.063073
C9    C     C_R   0.696310 0.855004 0.822162 -0.002388
C10   C     C_R   0.217813 0.967630 0.756844 -0.034085
C11   C     C_R   0.222729 0.958457 0.678142 -0.176608
C12   C     C_R   0.790941 0.422555 0.263899 -0.077993
C13   C     C_R   0.180714 0.825404 0.656223 -0.080878
C14   C     C_R   0.169940 0.706858 0.712640 0.035763
C15   C     C_R   0.161818 0.711817 0.793966 0.240116
C16   C     C_R   0.640242 0.858307 0.125463 0.548882
C17   C     C_R   0.188105 0.843575 0.816813 -0.009214
C18   C     C_R   0.686879 0.809898 0.357063 0.549774
C19   C     C_R   0.687356 0.393032 0.395938 0.527897
C20   C     C_R   0.103534 0.810327 0.359054 0.531226
C21   C     C_R   0.677380 0.800318 0.585301 0.581783
C22   C     C_R   0.679010 0.383166 0.624706 0.562589
C23   C     C_R   0.782794 0.418490 0.184468 0.185967
C24   C     C_R   0.105706 0.804022 0.583970 0.524660
C25   C     C_R   0.225816 0.865706 0.897619 0.529643
C26   C     C_R   0.637644 0.285155 0.860991 0.555004
C27   C     C_R   0.648167 0.867832 0.898889 0.570627
C28   C     C_R   0.515541 0.287701 0.209397 0.219395
C29   C     C_R   0.525653 0.299661 0.289813 -0.028129
C30   C     C_R   0.664521 0.360711 0.317107 -0.084298
C31   C     C_2   0.175232 0.583562 0.686105 0.324503
C32   C     C_2   0.393415 0.247981 0.345338 0.259612
C33   C     C_2   0.865618 0.129876 0.778141 0.308225
C34   C     C_R   0.645093 0.339576 0.158128 0.029261
C35   C     C_2   0.239738 0.110009 0.770523 0.274897
C36   C     C_1   0.668740 0.848323 0.205436 -0.010162
C37   C     C_1   0.680784 0.839155 0.274687 -0.013341
C38   C     C_1   0.180039 0.825181 0.211228 -0.011000
C39   C     C_1   0.150783 0.819635 0.279662 -0.047549
C40   C     C_1   0.644587 0.325201 0.778279 -0.010004
Cr1   Cr    Cr6+3 0.402240 0.783890 0.019450 1.123976
Cr2   Cr    Cr6+3 0.382360 0.097900 0.991800 1.117740
Cr3   Cr    Cr6+3 0.715380 0.118170 0.988700 1.077946
Cr4   Cr    Cr6+3 0.936650 0.882420 0.465510 1.089801
Cr5   Cr    Cr6+3 0.605770 0.565620 0.493360 1.037284
Cr6   Cr    Cr6+3 0.921340 0.550490 0.496380 1.067800
H1    H     H_    0.242049 0.052916 0.633547 0.143832
H2    H     H_    0.929790 0.145651 0.630894 0.356475
H3    H     H_    0.927784 0.144305 0.829093 0.197394
H4    H     H_    0.329197 0.211355 0.736996 0.095776
H5    H     H_    0.898650 0.481367 0.283288 0.185822
H6    H     H_    0.550893 0.592585 0.712117 0.140455
H7    H     H_    0.309511 0.140361 0.222397 0.350162
H8    H     H_    0.199153 0.589473 0.623688 0.101765
H9    H     H_    0.072886 0.586006 0.897017 0.327632
H10   H     H_    0.388161 0.198834 0.406927 0.104305
H11   H     H_    0.890285 0.512359 0.080033 0.332638
H12   H     H_    0.520527 0.502571 0.841856 0.333533
O1    O     O_R   0.521780 0.757110 0.108900 -0.487203
O2    O     O_R   0.805020 0.410040 0.421340 -0.502982
O3    O     O_R   0.049240 0.685450 0.403290 -0.503836
O4    O     O_R   0.275160 0.783810 0.101120 -0.475773
O5    O     O_R   0.077520 0.903010 0.551800 -0.508640
O6    O     O_R   0.802980 0.872780 0.546830 -0.449974
O7    O     O_R   0.578090 0.681300 0.569920 -0.539678
O8    O     O_R   0.608530 0.436370 0.586530 -0.529653
O9    O     O_R   0.798770 0.401880 0.597100 -0.439200
O10   O     O_R   0.043450 0.677890 0.566230 -0.519387
O11   O     O_3   0.821250 0.666180 0.485090 -0.275569
O12   O     O_R   0.513330 0.228330 0.898660 -0.510837
O13   O     O_R   0.237900 0.972600 0.090980 -0.482949
O14   O     O_R   0.511190 0.220540 0.061620 -0.437322
O15   O     O_R   0.736920 0.257720 0.063840 -0.499551
O16   O     O_R   0.710450 0.984050 0.081720 -0.492537
O17   O     O_R   0.524090 0.765520 0.933110 -0.424631
O18   O     O_R   0.277300 0.791600 0.938160 -0.488382
O19   O     O_R   0.240210 0.981010 0.915190 -0.463896
O20   O     O_3   0.381102 0.220918 0.180382 -0.618728
O21   O     O_2   0.160640 0.477144 0.733404 -0.406539
O22   O     O_3   0.127656 0.587221 0.849594 -0.599641
O23   O     O_R   0.739230 0.266130 0.888050 -0.473295
O24   O     O_2   0.291907 0.264879 0.323715 -0.456580
O25   O     O_3   0.911654 0.489131 0.135066 -0.670377
O26   O     O_3   0.570430 0.592048 0.864690 -0.652159
O27   O     O_3   0.829671 0.081895 0.617957 -0.644224
O28   O     O_2   0.871619 0.237640 0.736641 -0.448443
O29   O     O_2   0.151538 0.115498 0.813868 -0.488513
O30   O     O_R   0.712580 0.991850 0.918770 -0.543579
O31   O     O_3   0.499990 0.999980 0.999980 -0.301191
O32   O     O_R   0.083770 0.911170 0.376030 -0.488689
O33   O     O_R   0.808770 0.880340 0.383890 -0.482833
O34   O     O_R   0.584340 0.689460 0.394160 -0.497590
O35   O     O_R   0.614320 0.443940 0.423590 -0.498311

loop_
_geom_bond_atom_site_label_1
_geom_bond_atom_site_label_2
_ccdc_geom_bond_type
Cr3   O15   S    
Cr1   O31   S    
C11   H1    S    
C14   C31   S    
Cr5   O35   S    
C1    O4    A    
C7    C8    A    
C7    O27   S    
Cr4   O6    S    
C12   C23   A    
C1    O13   A    
C23   O25   S    
C16   O16   A    
Cr3   O30   S    
C36   C37   T    
C18   C37   S    
C29   C32   S    
C5    C6    A    
C10   C17   A    
C33   H3    S    
Cr2   O12   S    
C20   O3    A    
Cr5   O34   S    
C22   O8    A    
Cr6   O11   S    
C21   O7    A    
C8    C9    A    
C21   O6    A    
C2    C22   S    
H11   O25   S    
C5    H6    S    
C10   C35   S    
C28   O20   S    
C19   O35   A    
Cr6   O2    S    
Cr3   O16   S    
C28   C34   A    
C13   C14   A    
C35   O29   D    
Cr1   O4    S    
C27   O17   A    
Cr4   O5    S    
C4    C34   S    
Cr6   O3    S    
Cr5   O11   S    
Cr1   O1    S    
C20   C39   S    
C6    C21   S    
C20   O32   A    
C13   C24   S    
Cr5   O8    S    
C16   O1    A    
C33   O28   D    
Cr6   O10   S    
C29   C30   A    
C3    C9    A    
H12   O26   S    
Cr1   O17   S    
C15   O22   S    
C23   C34   A    
C35   H4    S    
Cr2   O14   S    
Cr4   O11   S    
Cr3   O31   S    
C4    O15   A    
Cr4   O33   S    
C1    C38   S    
C26   O23   A    
Cr5   O7    S    
C26   O12   A    
C25   O19   A    
C18   O33   A    
C4    O14   A    
C12   H5    S    
Cr4   O32   S    
C9    C27   S    
C15   C17   A    
C28   C29   A    
C12   C30   A    
C14   C15   A    
C3    C5    A    
C31   O21   D    
C6    C7    A    
C19   O2    A    
C24   O5    A    
C32   O24   D    
Cr2   O31   S    
C17   C25   S    
C25   O18   A    
H7    O20   S    
C18   O34   A    
Cr6   O9    S    
C16   C36   S    
Cr1   O18   S    
H9    O22   S    
C11   C13   A    
C26   C40   S    
C38   C39   T    
Cr3   O23   S    
Cr2   O13   S    
C8    C33   S    
C31   H8    S    
C27   O30   A    
C22   O9    A    
C10   C11   A    
C24   O10   A    
C2    C40   T    
Cr2   O19   S    
C3    O26   S    
H2    O27   S    
C19   C30   S    
C32   H10   S    
