data_mof_unit_17902.cif
_audit_creation_date              2012-12-10T17:10:57-0500
_audit_creation_method            fapswitch 2.2
_symmetry_space_group_name_H-M    P1
_symmetry_Int_Tables_number       1
_space_group_crystal_system       triclinic
_cell_length_a                    11.743748
_cell_length_b                    13.045359
_cell_length_c                    13.375078
_cell_angle_alpha                 94.798696
_cell_angle_beta                  76.958487
_cell_angle_gamma                 99.985998
_cell_volume                      1963.86787252

loop_
_atom_site_label
_atom_site_type_symbol
_atom_type_description
_atom_site_fract_x
_atom_site_fract_y
_atom_site_fract_z
_atom_type_partial_charge
C1    C     C_R   0.522075 0.700576 0.498795 0.853310
C2    C     C_R   0.399380 0.449243 0.803824 -0.227920
C3    C     C_R   0.461268 0.185347 0.515439 -0.273612
C4    C     C_R   0.436302 0.483367 0.694986 0.882092
C5    C     C_R   0.536790 0.813763 0.494709 -0.116461
C6    C     C_R   0.658007 0.983260 0.501819 0.268424
C7    C     C_R   0.645454 0.875204 0.499066 -0.202690
C8    C     C_R   0.442334 0.860445 0.484235 -0.107898
C9    C     C_R   0.450983 0.968852 0.489211 -0.059281
C10   C     C_R   0.557274 0.031746 0.505998 -0.031817
C11   C     C_R   0.557771 0.139338 0.527359 0.318569
C12   C     C_R   0.453772 0.423264 0.965889 -0.008405
C13   C     C_R   0.353710 0.120935 0.507112 0.145446
C14   C     C_R   0.351953 0.014348 0.485356 0.349196
C15   C     C_R   0.953009 0.618788 0.577701 0.162872
C16   C     C_R   0.476119 0.299468 0.506984 0.869232
C17   C     C_R   0.830333 0.597545 0.580887 0.274311
C18   C     C_R   0.855864 0.454999 0.460466 0.149558
C19   C     C_R   0.977203 0.464767 0.464989 -0.170325
C20   C     C_R   0.026266 0.545550 0.527591 -0.157880
C21   C     C_R   0.145432 0.548124 0.538495 0.511992
C22   C     C_R   0.170302 0.408016 0.414703 0.459925
C23   C     C_R   0.486294 0.435329 0.859132 -0.048654
C24   C     C_R   0.050923 0.396952 0.407007 0.278345
C25   C     C_R   0.563794 0.503969 0.303075 0.848216
C26   C     C_R   0.752751 0.502378 0.028569 0.359400
C27   C     C_R   0.602082 0.497208 0.188923 -0.194757
C28   C     C_R   0.278022 0.428169 0.854789 0.294107
C29   C     C_R   0.246595 0.390482 0.954366 0.162250
C30   C     C_R   0.334674 0.383421 0.007509 0.249279
C31   C     C_R   0.543443 0.446367 0.024569 0.056556
C32   C     C_R   0.664601 0.459292 0.973177 -0.049527
C33   C     C_R   0.690939 0.430941 0.867046 0.218398
C34   C     C_R   0.602729 0.421793 0.811482 -0.130357
C35   C     C_R   0.514705 0.466232 0.131431 -0.166015
C36   C     C_R   0.722291 0.519811 0.136270 0.124283
Cl1   Cl    Cl    0.227011 0.940223 0.446249 -0.493078
Cl2   Cl    Cl    0.199685 0.625572 0.636974 -0.447547
Cl3   Cl    Cl    0.259776 0.323911 0.339178 -0.419673
Cl4   Cl    Cl    0.996060 0.298401 0.322781 -0.445213
Cl5   Cl    Cl    0.897027 0.555007 0.963223 -0.436752
Cl6   Cl    Cl    0.161749 0.435191 0.793410 -0.428628
Cl7   Cl    Cl    0.302431 0.290259 0.101718 -0.435403
Cl8   Cl    Cl    0.656343 0.209394 0.601048 -0.566218
Cu1   Cu    Cu3+1 0.386470 0.492430 0.492410 1.093078
Cu2   Cu    Cu3+1 0.613530 0.507570 0.507590 1.020126
H1    H     H_    0.721941 0.839114 0.498757 0.193454
H2    H     H_    0.360043 0.811348 0.477169 0.222747
H3    H     H_    0.817092 0.395597 0.411339 0.196315
H4    H     H_    0.422935 0.461130 0.170566 0.226289
H5    H     H_    0.625189 0.395379 0.732128 0.217401
I1    I     I_    0.861164 0.590663 0.213136 -0.147233
I2    I     I_    0.185199 0.172898 0.557618 -0.018065
I3    I     I_    0.838042 0.058157 0.478424 -0.019714
I4    I     I_    0.021233 0.776110 0.622581 -0.046589
I5    I     I_    0.720613 0.687669 0.692449 -0.192697
I6    I     I_    0.849248 0.378600 0.783803 -0.051127
I7    I     I_    0.064886 0.340316 0.025473 0.047207
N1    N     N_R   0.215880 0.481050 0.481000 -0.283418
N2    N     N_R   0.784100 0.518950 0.519000 -0.237774
O1    O     O_R   0.419710 0.645650 0.494620 -0.559104
O2    O     O_R   0.611450 0.658430 0.507430 -0.575935
O3    O     O_R   0.357340 0.490460 0.641450 -0.486546
O4    O     O_R   0.549080 0.503250 0.654260 -0.594192
O5    O     O_R   0.388550 0.341570 0.492570 -0.532570
O6    O     O_R   0.580290 0.354350 0.505380 -0.558261
O7    O     O_R   0.450920 0.496750 0.345740 -0.558324
O8    O     O_R   0.642660 0.509540 0.358550 -0.572716

loop_
_geom_bond_atom_site_label_1
_geom_bond_atom_site_label_2
_ccdc_geom_bond_type
C6    C10   A    
C5    C8    A    
C2    C4    S    
C9    C14   A    
C8    H2    S    
Cu1   O7    S    
C6    C7    A    
C33   I6    S    
C27   C36   A    
C25   C27   S    
C7    H1    S    
C9    C10   A    
C4    O4    A    
C19   C20   A    
C3    C13   A    
C23   C34   A    
Cu2   N2    S    
C32   C33   A    
Cu1   O1    S    
C35   H4    S    
C19   C24   A    
C8    C9    A    
C11   Cl8   S    
C21   N1    A    
Cu2   O4    S    
C13   C14   A    
C1    O2    A    
C14   Cl1   S    
Cu2   O8    S    
C17   I5    S    
C34   H5    S    
C29   C30   A    
C25   O8    A    
C6    I3    S    
C1    C5    S    
C22   Cl3   S    
C22   C24   A    
C4    O3    A    
C28   C29   A    
C24   Cl4   S    
Cu2   O2    S    
Cu2   O6    S    
C13   I2    S    
C2    C23   A    
C12   C31   A    
Cu1   O5    S    
C15   C20   A    
C31   C35   A    
C30   Cl7   S    
C3    C11   A    
C10   C11   A    
C3    C16   S    
C17   N2    A    
C1    O1    A    
C22   N1    A    
C33   C34   A    
C29   I7    S    
C18   H3    S    
C18   N2    A    
C5    C7    A    
C18   C19   A    
C26   C36   A    
C12   C23   A    
C15   C17   A    
C26   C32   A    
Cu1   N1    S    
C16   O6    A    
C2    C28   A    
C16   O5    A    
C28   Cl6   S    
C27   C35   A    
C20   C21   A    
Cu1   Cu2   S    
C12   C30   A    
Cu1   O3    S    
C21   Cl2   S    
C31   C32   A    
C26   Cl5   S    
C15   I4    S    
C25   O7    A    
C36   I1    S    
