data_mof_unit_52519.cif
_audit_creation_date              2013-03-05T15:43:49-0500
_audit_creation_method            fapswitch 2.2
_symmetry_space_group_name_H-M    P1
_symmetry_Int_Tables_number       1
_space_group_crystal_system       triclinic
_cell_length_a                    10.049952
_cell_length_b                    10.748623
_cell_length_c                    15.360381
_cell_angle_alpha                 90.066278
_cell_angle_beta                  67.42166
_cell_angle_gamma                 90.031426
_cell_volume                      1532.10108498

loop_
_atom_site_label
_atom_site_type_symbol
_atom_site_description
_atom_site_fract_x
_atom_site_fract_y
_atom_site_fract_z
_atom_type_partial_charge
O1    O     O_R   0.386950 0.680940 0.500010 -0.607346
O2    O     O_R   0.613110 0.680900 0.499990 -0.612632
C1    C     C_R   0.501210 0.737259 0.498268 0.934979
O3    O     O_R   0.322330 0.500030 0.632270 -0.568655
O4    O     O_R   0.548480 0.499990 0.632240 -0.608349
C2    C     C_R   0.409559 0.497862 0.676382 0.863061
Zn1   Zn    Zn3+2 0.349000 0.500030 0.500020 0.973555
Zn2   Zn    Zn3+2 0.651000 0.499970 0.499980 0.952289
O5    O     O_R   0.386890 0.319100 0.500010 -0.620000
O6    O     O_R   0.613050 0.319060 0.499990 -0.613560
O7    O     O_R   0.451520 0.500010 0.367760 -0.609022
O8    O     O_R   0.677670 0.499970 0.367730 -0.609468
C3    C     C_R   0.498661 0.262771 0.502341 0.919471
C4    C     C_R   0.590818 0.500537 0.323495 0.865550
C5    C     C_R   0.355746 0.471987 0.777068 -0.035072
C6    C     C_R   0.651169 0.503365 0.220535 -0.100814
C7    C     C_R   0.229219 0.332621 0.905870 -0.172932
C8    C     C_R   0.247652 0.383257 0.818307 -0.113743
C9    C     C_R   0.441668 0.510727 0.824384 -0.249593
C10   C     C_R   0.443607 0.443863 0.901692 0.086778
C11   C     C_R   0.328108 0.361310 0.947345 0.213688
C12   C     C_R   0.555040 0.460248 0.936178 -0.056701
C13   C     C_R   0.526805 0.423639 0.029411 0.090751
C14   C     C_R   0.410349 0.340817 0.074471 -0.209589
C15   C     C_R   0.314985 0.307688 0.032569 -0.197550
C16   C     C_R   0.693646 0.508246 0.880250 -0.082255
C17   C     C_R   0.786833 0.549752 0.923963 -0.078533
C18   C     C_R   0.748099 0.532385 0.022804 -0.032119
C19   C     C_R   0.615644 0.469489 0.074690 0.098977
C20   C     C_R   0.837014 0.569404 0.072810 -0.013271
C21   C     C_R   0.787662 0.551652 0.170417 -0.185961
C22   C     C_R   0.567634 0.461849 0.172957 -0.241215
H1    H     H_    0.853110 0.582621 0.208383 0.176502
H2    H     H_    0.143141 0.266357 0.938503 0.134698
H3    H     H_    0.182055 0.349644 0.781395 0.173809
H4    H     H_    0.394267 0.295978 0.140613 0.136462
C23   C     C_2   0.612058 0.066975 0.500542 -0.158222
C24   C     C_2   0.492941 0.131330 0.511978 -0.334526
H5    H     H_    0.714499 0.112553 0.487474 0.170508
C25   C     C_2   0.608392 0.933086 0.506118 -0.155863
C26   C     C_2   0.506181 0.868859 0.490272 -0.331048
H6    H     H_    0.692703 0.887285 0.522107 0.177799
C27   C     C_2   0.103178 0.421723 0.451594 -0.122907
N1    N     N_2   0.148330 0.498670 0.499030 -0.181655
H7    H     H_    0.178905 0.354435 0.406481 0.155191
H8    H     H_    0.075233 0.557725 0.545790 0.206631
C28   C     C_2   0.950492 0.416829 0.456532 -0.133366
N2    N     N_2   0.852680 0.498640 0.499000 -0.181414
H9    H     H_    0.922342 0.340616 0.420484 0.155523
H10   H     H_    0.881289 0.574905 0.528124 0.199982
H11   H     H_    0.228699 0.242720 0.068186 0.140516
C29   C     C_2   0.980230 0.629153 0.029710 0.407158
H12   H     H_    0.993496 0.715687 0.991310 0.031745
O9    O     O_2   0.084086 0.584758 0.041246 -0.552004
H13   H     H_    0.387756 0.088742 0.531032 0.152627
H14   H     H_    0.425980 0.911611 0.468790 0.150958
H15   H     H_    0.460865 0.428613 0.214995 0.154688
C30   C     C_2   0.919934 0.615568 0.864880 0.492139
H16   H     H_    0.923939 0.716352 0.866868 0.030547
O10   O     O_2   0.023706 0.557892 0.811595 -0.556752
H17   H     H_    0.514841 0.587581 0.795406 0.166557
C31   C     C_2   0.749349 0.495388 0.775369 0.426527
H18   H     H_    0.720208 0.414079 0.744561 0.075829
O11   O     O_2   0.821349 0.576794 0.722977 -0.589358

loop_
_geom_bond_atom_site_label_1
_geom_bond_atom_site_label_2
_geom_bond_distance
_ccdc_geom_bond_type
C3    C24   1.419541 S    
O4    Zn2   1.892482 S    
Zn1   O7    1.892481 S    
C27   N1    1.293429 D    
C21   H1    1.085076 S    
C26   H14   1.083829 S    
C23   C24   1.334758 D    
C6    C22   1.381310 A    
C8    H3    1.083003 S    
C5    C8    1.401008 A    
C31   O11   1.220918 D    
C28   N2    1.293180 D    
Zn2   O8    1.944314 S    
C13   C14   1.421120 A    
C18   C20   1.439728 A    
O2    C1    1.286850 A    
C16   C31   1.494956 S    
C14   C15   1.390096 A    
C28   H9    1.084749 S    
C14   H4    1.079613 S    
Zn1   N1    2.022657 S    
C29   H12   1.082385 S    
C6    C21   1.390305 A    
C5    C9    1.388574 A    
C27   H7    1.084879 S    
C16   C17   1.417264 A    
C31   H18   1.085678 S    
C22   H15   1.078895 S    
C9    H17   1.081729 S    
O3    Zn1   1.944318 S    
O4    C2    1.297136 A    
C13   C19   1.413962 A    
N2    H10   1.025880 S    
C25   C26   1.334854 D    
C29   O9    1.221185 D    
C7    C8    1.396367 A    
C19   C22   1.399605 A    
C20   C21   1.399921 A    
O7    C4    1.300479 A    
C4    C6    1.460626 S    
C15   H11   1.083907 S    
C30   H16   1.084853 S    
O3    C2    1.297825 A    
C7    H2    1.083557 S    
C10   C12   1.421582 A    
C30   O10   1.218991 D    
C23   C25   1.441378 S    
O8    C4    1.295775 A    
O5    C3    1.288924 A    
C10   C11   1.414824 A    
C23   H5    1.086835 S    
C12   C16   1.423337 A    
O2    Zn2   1.981871 S    
C17   C18   1.427649 A    
Zn1   O5    1.981872 S    
C11   C15   1.390090 A    
C12   C13   1.405482 A    
C18   C19   1.431717 A    
C20   C29   1.480065 S    
O1    C1    1.288977 A    
C2    C5    1.456119 S    
O1    Zn1   1.981367 S    
C27   C28   1.507882 S    
O6    C3    1.287001 A    
Zn2   O6    1.981367 S    
C1    C26   1.419180 S    
C24   H13   1.083924 S    
C9    C10   1.395266 A    
N1    H8    1.026040 S    
C25   H6    1.086815 S    
Zn2   N2    2.021201 S    
C17   C30   1.477039 S    
C7    C11   1.405005 A    
