data_mof_unit_18972.cif
_audit_creation_date              2012-10-26T20:07:45-0400
_audit_creation_method            fapswitch 2.2
_symmetry_space_group_name_H-M    P1
_symmetry_Int_Tables_number       1
_space_group_crystal_system       triclinic
_cell_length_a                    9.595978
_cell_length_b                    10.864894
_cell_length_c                    17.049912
_cell_angle_alpha                 85.007796
_cell_angle_beta                  96.000854
_cell_angle_gamma                 88.930148
_cell_volume                      1760.47267132

loop_
_atom_site_label
_atom_site_type_symbol
_atom_type_description
_atom_site_fract_x
_atom_site_fract_y
_atom_site_fract_z
_atom_type_partial_charge
C1    C     C_R   0.498993 0.263706 0.491635 0.562915
C2    C     C_R   0.063423 0.581534 0.449442 0.223668
C3    C     C_R   0.519295 0.507860 0.650743 0.565776
C4    C     C_R   0.480669 0.492407 0.349172 0.554181
C5    C     C_R   0.531113 0.526869 0.736874 -0.025903
C6    C     C_R   0.470467 0.484209 0.262061 -0.037586
C7    C     C_R   0.421511 0.588775 0.768307 0.056825
C8    C     C_R   0.592142 0.449980 0.228094 0.067796
C9    C     C_R   0.421739 0.588703 0.851572 0.113212
C10   C     C_R   0.604896 0.490503 0.148090 0.108318
C11   C     C_R   0.529290 0.522443 0.901917 0.210893
C12   C     C_R   0.500421 0.737282 0.506710 0.550718
C13   C     C_R   0.491000 0.555145 0.101746 0.197398
C14   C     C_R   0.644933 0.474464 0.870112 0.221109
C15   C     C_R   0.363690 0.570296 0.133421 0.248607
C16   C     C_R   0.651366 0.486814 0.788061 0.085819
C17   C     C_R   0.348453 0.521602 0.210871 0.103690
C18   C     C_R   0.368212 0.067155 0.478829 0.129442
C19   C     C_R   0.628548 0.936662 0.513843 0.129080
C20   C     C_3   0.821269 0.372664 0.297090 -0.252979
C21   C     C_3   0.180430 0.646435 0.709077 -0.253151
C22   C     C_3   0.818248 0.571243 0.102023 -0.224173
C23   C     C_R   0.372892 0.940904 0.505599 0.193673
C24   C     C_3   0.334162 0.782520 0.890329 -0.243478
C25   C     C_3   0.845506 0.586713 0.733126 -0.280511
C26   C     C_3   0.161929 0.379219 0.188776 -0.288944
C27   C     C_3   0.133002 0.064097 0.402069 -0.285608
C28   C     C_3   0.859572 0.951531 0.591885 -0.280878
C29   C     C_3   0.222726 0.300629 0.661479 -0.248540
C30   C     C_3   0.784932 0.705036 0.338094 -0.256232
C31   C     C_3   0.884833 0.275934 0.659309 -0.281571
C32   C     C_3   0.145735 0.763312 0.374114 -0.249547
C33   C     C_R   0.622764 0.061944 0.485986 0.212868
C34   C     C_R   0.500887 0.872738 0.512562 -0.036818
C35   C     C_R   0.496320 0.129933 0.481553 -0.025280
C36   C     C_R   0.084706 0.408920 0.544098 0.208787
C37   C     C_R   0.916000 0.589315 0.455083 0.201831
C38   C     C_R   0.935022 0.407167 0.541805 0.216317
Cl1   Cl    Cl    0.785292 0.403557 0.934754 -0.617158
Cl2   Cl    Cl    0.217838 0.641096 0.073527 -0.612229
Cl3   Cl    Cl    0.235241 0.882230 0.557596 -0.715858
Cl4   Cl    Cl    0.755730 0.119596 0.430120 -0.693217
Cu1   Cu    Cu3+1 0.640660 0.500020 0.500000 1.010221
Cu2   Cu    Cu3+1 0.359340 0.499980 0.500000 1.004642
H1    H     H_    0.669523 0.270912 0.237505 0.266799
H2    H     H_    0.852381 0.607760 0.159581 0.118956
H3    H     H_    0.761285 0.645770 0.061871 0.182837
H4    H     H_    0.912650 0.543195 0.074753 0.225454
H5    H     H_    0.213352 0.630239 0.865780 0.268302
H6    H     H_    0.319126 0.833248 0.830638 0.119867
H7    H     H_    0.440753 0.799307 0.918871 0.171169
H8    H     H_    0.256108 0.819304 0.926594 0.192293
H9    H     H_    0.852247 0.410392 0.790749 0.286140
H10   H     H_    0.910105 0.571119 0.684573 0.136000
H11   H     H_    0.911901 0.619627 0.784032 0.144014
H12   H     H_    0.887437 0.287872 0.296642 0.142035
H13   H     H_    0.765692 0.660102 0.710162 0.146481
H14   H     H_    0.199843 0.469446 0.287762 0.275691
H15   H     H_    0.053889 0.359180 0.202283 0.121110
H16   H     H_    0.230147 0.296294 0.209090 0.135645
H17   H     H_    0.159223 0.397325 0.123580 0.219055
H18   H     H_    0.254924 0.211715 0.411726 0.265583
H19   H     H_    0.054942 0.130439 0.368004 0.153704
H20   H     H_    0.073658 0.006236 0.442612 0.222915
H21   H     H_    0.180844 0.010091 0.359015 0.127564
H22   H     H_    0.745461 0.797164 0.584116 0.259421
H23   H     H_    0.826124 0.395303 0.359239 0.213815
H24   H     H_    0.936781 0.890238 0.630911 0.149426
H25   H     H_    0.806366 0.011836 0.629621 0.134625
H26   H     H_    0.920242 0.006531 0.550464 0.220307
H27   H     H_    0.129129 0.219169 0.563859 0.272265
H28   H     H_    0.176199 0.225275 0.697507 0.109866
H29   H     H_    0.202827 0.389068 0.686302 0.144451
H30   H     H_    0.337247 0.280671 0.666472 0.171904
H31   H     H_    0.880069 0.778675 0.438039 0.274708
H32   H     H_    0.671942 0.732026 0.331676 0.171755
H33   H     H_    0.797268 0.616508 0.312457 0.138436
H34   H     H_    0.866719 0.447733 0.260810 0.107201
H35   H     H_    0.840470 0.776627 0.303859 0.118829
H36   H     H_    0.891235 0.223696 0.546496 0.273759
H37   H     H_    0.950353 0.345186 0.688296 0.145462
H38   H     H_    0.935405 0.183528 0.676908 0.103642
H39   H     H_    0.779133 0.274921 0.680068 0.191261
H40   H     H_    0.058309 0.609556 0.328818 0.228095
H41   H     H_    0.084622 0.812281 0.321246 0.108720
H42   H     H_    0.258552 0.775421 0.367620 0.179085
H43   H     H_    0.117835 0.805423 0.426841 0.192690
H44   H     H_    0.356610 0.760047 0.709738 0.281851
H45   H     H_    0.123518 0.724962 0.730220 0.128524
H46   H     H_    0.157082 0.559884 0.744131 0.111739
H47   H     H_    0.142260 0.638878 0.646020 0.196996
H48   H     H_    0.785270 0.385751 0.135298 0.269631
N1    N     N_2   0.521694 0.496312 0.984246 -0.129887
N2    N     N_2   0.212474 0.484637 0.228968 -0.486962
N3    N     N_2   0.239436 0.131066 0.445732 -0.481094
N4    N     N_2   0.758360 0.877456 0.549274 -0.481359
N5    N     N_2   0.165888 0.303153 0.579293 -0.450414
N6    N     N_2   0.838252 0.697300 0.420997 -0.447869
N7    N     N_2   0.870326 0.300873 0.574303 -0.444693
N8    N     N_2   0.115912 0.633664 0.379365 -0.473220
N9    N     N_2   0.495597 0.588063 0.019796 -0.167222
N10   N     N_R   0.852070 0.500030 0.499980 -0.225826
N11   N     N_R   0.147930 0.499970 0.500020 -0.213529
N12   N     N_2   0.678003 0.349456 0.267412 -0.466006
N13   N     N_2   0.328787 0.668850 0.715530 -0.466963
N14   N     N_2   0.730142 0.465721 0.113286 -0.450564
N15   N     N_2   0.314300 0.651599 0.885345 -0.439459
N16   N     N_2   0.781823 0.471748 0.757522 -0.495625
O1    O     O_R   0.618740 0.319660 0.500000 -0.427644
O2    O     O_R   0.381260 0.680340 0.500000 -0.439853
O3    O     O_R   0.381170 0.319630 0.500010 -0.487535
O4    O     O_R   0.618830 0.680370 0.499990 -0.484589
O5    O     O_R   0.631780 0.498870 0.613920 -0.473449
O6    O     O_R   0.368220 0.501130 0.386080 -0.503543
O7    O     O_R   0.394210 0.498840 0.613930 -0.473610
O8    O     O_R   0.605790 0.501160 0.386070 -0.477284

loop_
_geom_bond_atom_site_label_1
_geom_bond_atom_site_label_2
_ccdc_geom_bond_type
C26   N2    S    
C22   H4    S    
C24   H8    S    
C20   H23   S    
C27   N3    S    
C28   H25   S    
C2    C37   A    
C20   H12   S    
C12   O2    A    
H5    N15   S    
C21   H45   S    
H27   N5    S    
C31   H38   S    
C36   N11   A    
C33   Cl4   S    
C4    O6    A    
C28   H24   S    
C26   H17   S    
C37   N10   A    
C11   C14   A    
C29   H29   S    
C31   H39   S    
C7    C9    A    
C5    C16   A    
C1    O1    A    
C14   Cl1   S    
C30   H33   S    
Cu2   O7    S    
C7    N13   S    
C36   N5    S    
C31   N7    S    
C18   C35   A    
C29   H28   S    
C11   N1    S    
C24   H7    S    
C22   H3    S    
C2    N8    S    
H18   N3    S    
C18   N3    S    
C25   H13   S    
C37   N6    S    
Cu2   N11   S    
C21   H46   S    
C24   H6    S    
C18   C23   A    
H40   N8    S    
C25   H10   S    
C4    C6    S    
C3    O5    A    
N1    N9    D    
C5    C7    A    
C6    C8    A    
C29   H30   S    
C22   N14   S    
C32   H43   S    
C10   C13   A    
H31   N6    S    
C32   N8    S    
Cu1   Cu2   S    
C27   H21   S    
H1    N12   S    
Cu1   O8    S    
C30   H32   S    
C23   C34   A    
C32   H42   S    
C24   N15   S    
C12   C34   S    
C8    N12   S    
C27   H19   S    
C30   H35   S    
H48   N14   S    
C22   H2    S    
C9    C11   A    
H36   N7    S    
C19   C33   A    
C14   C16   A    
C10   N14   S    
Cu1   O4    S    
C13   N9    S    
C12   O4    A    
C1    C35   S    
H22   N4    S    
C21   H47   S    
C15   C17   A    
C6    C17   A    
C4    O8    A    
C28   H26   S    
C25   H11   S    
C38   N7    S    
C3    C5    S    
C19   C34   A    
C23   Cl3   S    
C20   N12   S    
C20   H34   S    
C9    N15   S    
C30   N6    S    
C31   H37   S    
C29   N5    S    
C28   N4    S    
C13   C15   A    
H14   N2    S    
Cu1   N10   S    
C38   N10   A    
C3    O7    A    
Cu1   O5    S    
H44   N13   S    
H9    N16   S    
C2    N11   A    
C32   H41   S    
C36   C38   A    
C33   C35   A    
C21   N13   S    
C15   Cl2   S    
C27   H20   S    
C16   N16   S    
Cu2   O6    S    
Cu2   O3    S    
C8    C10   A    
C26   H15   S    
C17   N2    S    
Cu1   O1    S    
C26   H16   S    
C1    O3    A    
C19   N4    S    
C25   N16   S    
Cu2   O2    S    
