data_mof_unit_36308.cif
_audit_creation_date              2012-10-26T19:57:55-0400
_audit_creation_method            fapswitch 2.2
_symmetry_space_group_name_H-M    P1
_symmetry_Int_Tables_number       1
_space_group_crystal_system       triclinic
_cell_length_a                    7.484905
_cell_length_b                    8.676399
_cell_length_c                    13.043247
_cell_angle_alpha                 87.813695
_cell_angle_beta                  79.981874
_cell_angle_gamma                 102.949869
_cell_volume                      810.29469114

loop_
_atom_site_label
_atom_site_type_symbol
_atom_type_description
_atom_site_fract_x
_atom_site_fract_y
_atom_site_fract_z
_atom_type_partial_charge
C1    C     C_R   0.452738 0.199790 0.503188 0.533047
C2    C     C_R   0.720077 0.494280 0.122758 0.198689
C3    C     C_R   0.612428 0.546492 0.858855 0.217073
C4    C     C_R   0.395484 0.505949 0.137839 0.212636
C5    C     C_R   0.593855 0.525819 0.967585 -0.037074
C6    C     C_R   0.414274 0.493126 0.030361 -0.051291
C7    C     C_2   0.426372 0.031700 0.504704 -0.165278
C8    C     C_2   0.573671 0.968346 0.494829 -0.159502
C9    C     C_3   0.222312 0.681405 0.189041 -0.064320
C10   C     C_3   0.913384 0.584713 0.765307 -0.050587
C11   C     C_3   0.819421 0.286778 0.183700 -0.084733
C12   C     C_R   0.547281 0.800225 0.496636 0.543457
C13   C     C_3   0.107455 0.186760 0.848973 -0.118701
C14   C     C_R   0.468266 0.496831 0.701011 0.584000
C15   C     C_R   0.531885 0.501796 0.298949 0.557344
C16   C     C_R   0.548773 0.501236 0.185516 -0.001696
C17   C     C_R   0.452984 0.490600 0.814300 0.023138
C18   C     C_R   0.257794 0.442942 0.985524 -0.122500
C19   C     C_R   0.747574 0.527249 0.015251 -0.113181
C20   C     C_R   0.278630 0.424979 0.879408 0.185321
Cu1   Cu    Cu3+1 0.686350 0.517570 0.488220 0.967020
Cu2   Cu    Cu3+1 0.313650 0.482430 0.511780 0.966313
H1    H     H_    0.121060 0.404682 0.033184 0.198856
H2    H     H_    0.973578 0.632541 0.683638 0.174586
H3    H     H_    0.871822 0.452818 0.766747 0.148836
H4    H     H_    0.026947 0.622335 0.809775 0.146200
H5    H     H_    0.808879 0.227621 0.109956 0.083698
H6    H     H_    0.688979 0.241543 0.242342 0.114705
H7    H     H_    0.934508 0.253095 0.215697 0.170548
H8    H     H_    0.233753 0.154138 0.805513 0.121042
H9    H     H_    0.986904 0.128284 0.814283 0.152121
H10   H     H_    0.079390 0.140469 0.932419 0.106190
H11   H     H_    0.884509 0.534757 0.970162 0.156659
H12   H     H_    0.934684 0.372108 0.579692 0.232252
H13   H     H_    0.065508 0.627895 0.420545 0.241866
H14   H     H_    0.284571 0.959751 0.514060 0.131775
H15   H     H_    0.715472 0.040302 0.485436 0.134857
H16   H     H_    0.337592 0.755670 0.221675 0.080229
H17   H     H_    0.088896 0.694733 0.235881 0.167417
H18   H     H_    0.227176 0.725971 0.107178 0.114943
N1    N     N_2   0.033570 0.455950 0.529530 -0.274094
N2    N     N_2   0.966430 0.544050 0.470470 -0.253497
O1    O     O_R   0.621060 0.286250 0.492350 -0.512109
O2    O     O_3   0.765026 0.656007 0.801553 -0.580549
O3    O     O_3   0.861135 0.453775 0.165236 -0.532613
O4    O     O_3   0.124808 0.352040 0.839376 -0.594943
O5    O     O_R   0.378940 0.713750 0.507650 -0.523480
O6    O     O_R   0.306310 0.256580 0.512240 -0.498755
O7    O     O_R   0.693690 0.743420 0.487760 -0.503555
O8    O     O_R   0.631800 0.512400 0.642670 -0.501722
O9    O     O_R   0.368200 0.487600 0.357330 -0.462335
O10   O     O_R   0.317060 0.482730 0.662570 -0.474465
O11   O     O_R   0.682940 0.517270 0.337430 -0.463348
O12   O     O_3   0.227433 0.519623 0.195730 -0.520493

loop_
_geom_bond_atom_site_label_1
_geom_bond_atom_site_label_2
_ccdc_geom_bond_type
C4    C16   A    
Cu2   O6    S    
N1    N2    D    
C1    O6    A    
C3    C17   A    
C5    C19   A    
C15   O9    A    
C2    C16   A    
C7    H14   S    
C13   H10   S    
C11   H5    S    
C8    C12   S    
C4    O12   S    
C10   H4    S    
Cu1   O7    S    
C12   O7    A    
C7    C8    D    
Cu1   O1    S    
Cu1   Cu2   S    
Cu1   O11   S    
C14   C17   S    
C14   O8    A    
H12   N1    S    
C11   H6    S    
C12   O5    A    
C15   O11   A    
C10   H3    S    
Cu2   O10   S    
Cu1   O8    S    
C1    O1    A    
Cu2   O5    S    
C18   C20   A    
C2    O3    S    
C5    C6    A    
C6    C18   A    
C20   O4    S    
C3    O2    S    
C11   O3    S    
Cu2   N1    S    
Cu1   N2    S    
C8    H15   S    
C10   O2    S    
C18   H1    S    
C13   H8    S    
C9    H17   S    
C17   C20   A    
C11   H7    S    
C4    C6    A    
C19   H11   S    
H13   N2    S    
C13   O4    S    
C9    H16   S    
C9    O12   S    
C10   H2    S    
C2    C19   A    
C1    C7    S    
C13   H9    S    
C9    H18   S    
C14   O10   A    
C15   C16   S    
Cu2   O9    S    
C3    C5    A    
