data_mof_unit_31930.cif
_audit_creation_date              2012-12-11T16:49:27-0500
_audit_creation_method            fapswitch 2.2
_symmetry_space_group_name_H-M    P1
_symmetry_Int_Tables_number       1
_space_group_crystal_system       triclinic
_cell_length_a                    6.951183
_cell_length_b                    25.902764
_cell_length_c                    28.960705
_cell_angle_alpha                 89.915262
_cell_angle_beta                  89.903195
_cell_angle_gamma                 89.671514
_cell_volume                      5214.4167056

loop_
_atom_site_label
_atom_site_type_symbol
_atom_type_description
_atom_site_fract_x
_atom_site_fract_y
_atom_site_fract_z
_atom_type_partial_charge
O1    O     O_R   0.601010 0.796750 0.202520 -0.537611
O2    O     O_R   0.398990 0.203250 0.797480 -0.537368
O3    O     O_R   0.271260 0.802890 0.297300 -0.542978
O4    O     O_R   0.728740 0.197110 0.702700 -0.546898
O5    O     O_R   0.100940 0.703200 0.297630 -0.533807
O6    O     O_R   0.899060 0.296800 0.702370 -0.534805
C1    C     C_R   0.439057 0.814148 0.314061 0.695737
C2    C     C_R   0.560695 0.183908 0.687123 0.689514
O7    O     O_R   0.271300 0.802890 0.202860 -0.540065
O8    O     O_R   0.728700 0.197110 0.797140 -0.542289
O9    O     O_R   0.100980 0.703210 0.202520 -0.537642
O10   O     O_R   0.899020 0.296790 0.797480 -0.537081
C3    C     C_R   0.440121 0.815549 0.186899 0.695375
C4    C     C_R   0.559865 0.184406 0.813053 0.689936
O11   O     O_R   0.600970 0.796740 0.297640 -0.533940
O12   O     O_R   0.399030 0.203260 0.702360 -0.536082
O13   O     O_3   0.434500 0.717270 0.250080 -0.370979
O14   O     O_3   0.565500 0.282730 0.749920 -0.366148
V1    V     V_3+5 0.159650 0.756040 0.250080 1.387293
V2    V     V_3+5 0.840350 0.243960 0.749920 1.377306
O15   O     O_R   0.771260 0.697060 0.202850 -0.542313
O16   O     O_R   0.228740 0.302940 0.797150 -0.540418
C5    C     C_R   0.940680 0.684372 0.186957 0.689295
C6    C     C_R   0.059336 0.315534 0.813114 0.695371
O17   O     O_R   0.771230 0.697050 0.297300 -0.542336
O18   O     O_R   0.228770 0.302950 0.702700 -0.542311
C7    C     C_R   0.942361 0.683490 0.313001 0.680468
C8    C     C_R   0.059446 0.314095 0.685628 0.699285
V3    V     V_3+5 0.659640 0.743910 0.250080 1.378210
V4    V     V_3+5 0.340360 0.256090 0.749920 1.386788
O19   O     O_3   0.934660 0.782680 0.250080 -0.363539
O20   O     O_3   0.065340 0.217320 0.749920 -0.370443
C9    C     C_R   0.136492 0.633216 0.374962 0.132458
C10   C     C_R   0.902642 0.346694 0.610951 0.140380
C11   C     C_R   0.137536 0.600883 0.414288 -0.165621
C12   C     C_R   0.891522 0.384788 0.576190 -0.165491
H1    H     H_    0.271476 0.593874 0.432392 0.133615
H2    H     H_    0.781660 0.381791 0.549863 0.138023
C13   C     C_R   0.973418 0.573486 0.427666 -0.000874
C14   C     C_R   0.022227 0.425856 0.574141 -0.011779
C15   C     C_R   0.808053 0.578614 0.400386 -0.137103
C16   C     C_R   0.168005 0.428263 0.607583 -0.134003
H3    H     H_    0.681699 0.555619 0.407410 0.143698
H4    H     H_    0.272269 0.459150 0.606884 0.146509
C17   C     C_R   0.805534 0.612608 0.362692 -0.223938
C18   C     C_R   0.179642 0.391367 0.642898 -0.208129
H5    H     H_    0.687635 0.611948 0.339802 0.147073
H6    H     H_    0.291718 0.395183 0.668593 0.130808
C19   C     C_R   0.961191 0.643847 0.351352 -0.068501
C20   C     C_R   0.046505 0.350782 0.645890 -0.063440
N1    N     N_R   0.838672 0.501814 0.474453 -0.282864
N2    N     N_R   0.150239 0.500015 0.529450 -0.282286
N3    N     N_R   0.850949 0.467200 0.508504 -0.285873
N4    N     N_R   0.138249 0.534514 0.495311 -0.287160
C21   C     C_R   0.007272 0.465354 0.536692 0.525962
C22   C     C_R   0.982500 0.536153 0.466939 0.522532
C23   C     C_R   0.132511 0.628346 0.132470 -0.169883
C24   C     C_R   0.867578 0.373098 0.866277 -0.160949
H7    H     H_    0.264755 0.642047 0.147747 0.122502
H8    H     H_    0.735909 0.360944 0.849708 0.122235
C25   C     C_R   0.144392 0.592923 0.096074 -0.137811
C26   C     C_R   0.855192 0.408392 0.902755 -0.145395
H9    H     H_    0.284469 0.579807 0.084548 0.113067
H10   H     H_    0.715346 0.423016 0.913083 0.097628
C27   C     C_R   0.977028 0.574510 0.074785 0.096680
C28   C     C_R   0.021670 0.424800 0.925654 0.117005
C29   C     C_R   0.797258 0.590811 0.091707 -0.147343
C30   C     C_R   0.201578 0.406712 0.910311 -0.156431
H11   H     H_    0.666259 0.576421 0.076382 0.101748
H12   H     H_    0.332047 0.419378 0.927154 0.107245
C31   C     C_R   0.784955 0.626166 0.128211 -0.162778
C32   C     C_R   0.214406 0.371570 0.873643 -0.166915
H13   H     H_    0.643991 0.638368 0.139995 0.118678
H14   H     H_    0.355180 0.357861 0.863098 0.119723
C33   C     C_R   0.952575 0.645749 0.148896 -0.055764
C34   C     C_R   0.047329 0.353975 0.851312 -0.054581
C35   C     C_R   0.907503 0.488099 0.041738 -0.219473
C36   C     C_R   0.089947 0.511245 0.958502 -0.209351
H15   H     H_    0.838977 0.478974 0.074378 0.126075
H16   H     H_    0.157479 0.520543 0.925778 0.131869
C37   C     C_R   0.917501 0.450245 0.006961 0.156710
C38   C     C_R   0.081560 0.548947 0.993400 0.161616
C39   C     C_R   0.009045 0.462199 0.964524 0.018370
C40   C     C_R   0.989247 0.537127 0.035812 0.008965
C41   C     C_R   0.391933 0.147170 0.618979 -0.175892
C42   C     C_R   0.565974 0.895679 0.346842 -0.196706
H17   H     H_    0.278547 0.175428 0.624225 0.126355
H18   H     H_    0.651290 0.900408 0.315791 0.123417
C43   C     C_R   0.376345 0.113629 0.581522 -0.155479
C44   C     C_R   0.574806 0.933604 0.381095 -0.145393
H19   H     H_    0.252200 0.117026 0.559165 0.116659
H20   H     H_    0.666393 0.966709 0.375540 0.116507
C45   C     C_R   0.520165 0.076898 0.572488 0.046303
C46   C     C_R   0.464906 0.929265 0.421656 0.054343
C47   C     C_R   0.679736 0.074226 0.602097 -0.129651
C48   C     C_R   0.346884 0.885828 0.427210 -0.159853
H21   H     H_    0.787234 0.045005 0.595201 0.119962
H22   H     H_    0.267445 0.880886 0.459119 0.111679
C49   C     C_R   0.699383 0.107789 0.640309 0.118107
C50   C     C_R   0.336375 0.847272 0.393089 0.147072
C51   C     C_R   0.552195 0.145447 0.648645 -0.113084
C52   C     C_R   0.446398 0.852525 0.351970 -0.065404
C53   C     C_R   0.667721 0.026936 0.506532 -0.155418
C54   C     C_R   0.312846 0.983561 0.484264 -0.153577
H23   H     H_    0.806642 0.043549 0.514186 0.103730
H24   H     H_    0.173452 0.967574 0.476052 0.104678
C55   C     C_R   0.654608 0.991408 0.470322 -0.148779
C56   C     C_R   0.326058 0.018979 0.520602 -0.146614
H25   H     H_    0.784532 0.980731 0.451912 0.105841
H26   H     H_    0.197312 0.028399 0.540014 0.099779
C57   C     C_R   0.477297 0.968902 0.458913 0.095014
C58   C     C_R   0.504055 0.040802 0.532513 0.095057
C59   C     C_R   0.369115 0.126980 0.865990 -0.161668
C60   C     C_R   0.630956 0.870901 0.132174 -0.169488
H27   H     H_    0.237318 0.139482 0.849411 0.122300
H28   H     H_    0.763363 0.856815 0.147416 0.123368
C61   C     C_R   0.356918 0.091628 0.902435 -0.147112
C62   C     C_R   0.642644 0.906212 0.095680 -0.138227
H29   H     H_    0.217164 0.077331 0.912764 0.097786
H30   H     H_    0.782653 0.918896 0.084075 0.112976
C63   C     C_R   0.523438 0.074805 0.925363 0.117654
C64   C     C_R   0.475207 0.925092 0.074407 0.097005
C65   C     C_R   0.703326 0.092461 0.910073 -0.156358
C66   C     C_R   0.295445 0.909371 0.091398 -0.148129
H31   H     H_    0.833792 0.079410 0.926960 0.107349
H32   H     H_    0.164426 0.924159 0.076033 0.101970
C67   C     C_R   0.715981 0.127714 0.873427 -0.168785
C68   C     C_R   0.283323 0.874094 0.128034 -0.162772
H33   H     H_    0.856604 0.141151 0.862897 0.119467
H34   H     H_    0.142498 0.862311 0.139925 0.118862
C69   C     C_R   0.548732 0.145779 0.851119 -0.053897
C70   C     C_R   0.451126 0.854080 0.148728 -0.056440
C71   C     C_R   0.589609 0.987987 0.958157 -0.209782
C72   C     C_R   0.407781 0.011856 0.041393 -0.219430
H35   H     H_    0.656741 0.978441 0.925420 0.131449
H36   H     H_    0.339648 0.021240 0.074045 0.125880
C73   C     C_R   0.579721 0.950211 0.993016 0.161433
C74   C     C_R   0.419231 0.049765 0.006652 0.156594
C75   C     C_R   0.487724 0.962414 0.035405 0.008915
C76   C     C_R   0.510498 0.037442 0.964243 0.018421
C77   C     C_3   0.328019 0.645289 0.353718 -0.337791
C78   C     C_3   0.353967 0.612611 0.309592 -0.669654
H37   H     H_    0.388784 0.572065 0.319130 0.198635
H38   H     H_    0.222940 0.611906 0.287816 0.210878
H39   H     H_    0.470801 0.628209 0.287693 0.216529
H40   H     H_    0.346900 0.687008 0.347147 0.198039
H41   H     H_    0.442467 0.636186 0.378896 0.153551
C79   C     C_3   0.763597 0.301711 0.607913 -0.354588
C80   C     C_3   0.867355 0.251192 0.596173 -0.741457
H42   H     H_    0.952941 0.255778 0.564016 0.225067
H43   H     H_    0.964230 0.238872 0.624548 0.209751
H44   H     H_    0.759921 0.220298 0.590581 0.217280
H45   H     H_    0.678371 0.297671 0.640063 0.196089
H46   H     H_    0.655281 0.308701 0.580358 0.172362
C81   C     C_3   0.835515 0.397307 0.017005 -0.359303
C82   C     C_3   0.994816 0.357598 0.025470 -0.736711
H47   H     H_    0.084036 0.352027 0.994071 0.232288
H48   H     H_    0.088307 0.370282 0.054337 0.224570
H49   H     H_    0.929816 0.319932 0.034802 0.213893
H50   H     H_    0.742755 0.398544 0.048307 0.173446
H51   H     H_    0.741536 0.384366 0.988458 0.175832
C83   C     C_3   0.163580 0.601755 0.982889 -0.366960
C84   C     C_3   0.382799 0.599846 0.979166 -0.756115
H52   H     H_    0.446497 0.583675 0.011177 0.220276
H53   H     H_    0.428351 0.575670 0.949422 0.224322
H54   H     H_    0.438928 0.639469 0.973922 0.218483
H55   H     H_    0.103044 0.615950 0.949683 0.176888
H56   H     H_    0.122438 0.630732 0.009302 0.188533
C85   C     C_3   0.873568 0.103462 0.672224 -0.323217
C86   C     C_3   0.003720 0.056181 0.665518 -0.790248
H57   H     H_    0.919616 0.020065 0.669150 0.229570
H58   H     H_    0.075441 0.057413 0.631260 0.228177
H59   H     H_    0.117849 0.056154 0.692313 0.226308
H60   H     H_    0.964458 0.138223 0.667559 0.195667
H61   H     H_    0.821780 0.102219 0.708546 0.179063
C87   C     C_3   0.221834 0.799218 0.404069 -0.385548
C88   C     C_3   0.350628 0.758352 0.426350 -0.767100
H62   H     H_    0.471693 0.748055 0.402977 0.213103
H63   H     H_    0.409975 0.773016 0.459387 0.237371
H64   H     H_    0.265439 0.723157 0.433704 0.222915
H65   H     H_    0.102877 0.808684 0.428403 0.180926
H66   H     H_    0.151820 0.783018 0.373058 0.189577
C89   C     C_3   0.659736 0.896967 0.982510 -0.366479
C90   C     C_3   0.879008 0.897596 0.978799 -0.756368
H67   H     H_    0.925577 0.921735 0.949148 0.224031
H68   H     H_    0.943371 0.913103 0.010877 0.220358
H69   H     H_    0.933538 0.857684 0.973399 0.218325
H70   H     H_    0.617456 0.868150 0.008928 0.188600
H71   H     H_    0.598692 0.883244 0.949299 0.176480
C91   C     C_3   0.338956 0.103112 0.016672 -0.359379
C92   C     C_3   0.499531 0.141901 0.025220 -0.737256
H72   H     H_    0.592307 0.128598 0.054134 0.224285
H73   H     H_    0.589205 0.147068 0.993863 0.232365
H74   H     H_    0.435751 0.179892 0.034515 0.213977
H75   H     H_    0.245697 0.116673 0.988075 0.176295
H76   H     H_    0.245907 0.102271 0.047931 0.173113

loop_
_geom_bond_atom_site_label_1
_geom_bond_atom_site_label_2
_ccdc_geom_bond_type
C24   C26   A    
C28   C30   A    
C92   H73   S    
C71   C73   A    
C91   C92   S    
C55   H25   S    
C85   C86   S    
C84   H52   S    
O4    C2    A    
V1    O19   S    
C54   H24   S    
C24   C34   A    
C13   C15   A    
C81   H51   S    
C87   H66   S    
C73   C75   A    
O9    V1    S    
C79   H46   S    
C63   C76   S    
C82   H47   S    
C11   H1    S    
C64   C75   S    
O3    C1    A    
C61   H29   S    
C62   C64   A    
C42   H18   S    
C23   H7    S    
C60   C70   A    
C86   H57   S    
C47   C49   A    
C24   H8    S    
C68   C70   A    
C46   C57   S    
O13   V3    S    
C90   H67   S    
N1    C22   A    
C16   C18   A    
C25   H9    S    
O7    C3    A    
C46   C48   A    
C26   H10   S    
C9    C11   A    
C28   C39   S    
O5    C7    A    
C8    C20   S    
C36   C39   A    
O7    V1    S    
O6    C8    A    
O8    V2    S    
C88   H63   S    
C1    C52   S    
C48   H22   S    
C50   C87   S    
C10   C79   S    
C85   H60   S    
C44   C46   A    
O14   V4    S    
C17   C19   A    
C43   H19   S    
C59   C69   A    
C2    C51   S    
O14   V2    S    
N2    C21   A    
C91   H76   S    
C66   C68   A    
C88   H64   S    
O16   C6    A    
C17   H5    S    
C45   C47   A    
C15   H3    S    
C78   H39   S    
C74   C91   S    
C16   H4    S    
C89   H71   S    
C50   C52   A    
C37   C39   A    
N2    N4    A    
O11   V3    S    
C62   H30   S    
C4    C69   S    
N3    C21   A    
O17   V3    S    
C87   H65   S    
N4    C22   A    
C10   C20   A    
C26   C28   A    
C41   H17   S    
C92   H72   S    
V4    O20   S    
C12   C14   A    
C84   H54   S    
C79   C80   S    
C32   H14   S    
C42   C44   A    
C80   H44   S    
C72   C75   A    
C31   H13   S    
C41   C43   A    
C6    C34   S    
C27   C40   S    
C72   H36   S    
C1    O11   A    
C38   C83   S    
C35   C40   A    
C27   C29   A    
O15   V3    S    
C56   C58   A    
C53   C58   A    
C29   H11   S    
C11   C13   A    
C89   C90   S    
C67   H33   S    
C89   H70   S    
C49   C85   S    
C36   C38   A    
C44   H20   S    
C13   C22   S    
C82   H48   S    
C35   C37   A    
C30   C32   A    
C14   C21   S    
O10   V2    S    
O1    V3    S    
C85   H61   S    
C35   H15   S    
C32   C34   A    
C53   H23   S    
O3    V1    S    
C36   H16   S    
C60   C62   A    
C74   C76   A    
C77   H40   S    
C59   C61   A    
C91   H75   S    
C30   H12   S    
C87   C88   S    
C49   C51   A    
O18   V4    S    
C38   C40   A    
O15   C5    A    
O8    C4    A    
C83   H56   S    
O1    C3    A    
C79   H45   S    
O12   V4    S    
C64   C66   A    
C12   H2    S    
C42   C52   A    
C65   C67   A    
C54   C56   A    
C78   H38   S    
C41   C51   A    
C66   H32   S    
C83   C84   S    
V2    O20   S    
C18   C20   A    
O16   V4    S    
C84   H53   S    
C81   H50   S    
C55   C57   A    
C82   H49   S    
C5    C33   S    
C14   C16   A    
C68   H34   S    
C72   C74   A    
C54   C57   A    
C60   H28   S    
C47   H21   S    
C23   C25   A    
O5    V1    S    
C61   C63   A    
O17   C7    A    
O6    V2    S    
O10   C6    A    
O18   C8    A    
C37   C81   S    
C90   H69   S    
O2    V4    S    
C9    C77   S    
C23   C33   A    
C80   H43   S    
C92   H74   S    
V3    O19   S    
C80   H42   S    
C31   C33   A    
C73   C89   S    
C56   H26   S    
C86   H58   S    
C48   C50   A    
O9    C5    A    
O13   V1    S    
C3    C70   S    
C90   H68   S    
C29   C31   A    
C43   C45   A    
O2    C4    A    
C67   C69   A    
C63   C65   A    
C65   H31   S    
C77   H41   S    
C45   C58   S    
C83   H55   S    
O4    V2    S    
C18   H6    S    
C25   C27   A    
C10   C12   A    
C71   C76   A    
C2    O12   A    
C88   H62   S    
C81   C82   S    
C71   H35   S    
C15   C17   A    
C78   H37   S    
C53   C55   A    
N1    N3    A    
C77   C78   S    
C9    C19   A    
C7    C19   S    
C59   H27   S    
C86   H59   S    
