data_mof_unit_21610.cif
_audit_creation_date              2012-12-11T15:41:20-0500
_audit_creation_method            fapswitch 2.2
_symmetry_space_group_name_H-M    P1
_symmetry_Int_Tables_number       1
_space_group_crystal_system       triclinic
_cell_length_a                    15.122501
_cell_length_b                    15.035771
_cell_length_c                    15.018416
_cell_angle_alpha                 108.72313
_cell_angle_beta                  109.804398
_cell_angle_gamma                 109.687468
_cell_volume                      2634.97769791

loop_
_atom_site_label
_atom_site_type_symbol
_atom_type_description
_atom_site_fract_x
_atom_site_fract_y
_atom_site_fract_z
_atom_type_partial_charge
C1    C     C_R   0.244634 0.059238 0.964266 -0.123453
C2    C     C_R   0.802136 0.002772 0.093759 -0.153869
C3    C     C_R   0.787965 0.319254 0.328184 0.046196
C4    C     C_R   0.140491 0.697587 0.695008 0.097330
C5    C     C_R   0.503434 0.944153 0.305493 0.029550
C6    C     C_R   0.494930 0.950896 0.674540 0.026595
C7    C     C_R   0.499834 0.299666 0.930773 0.059175
C8    C     C_R   0.507693 0.679945 0.952453 0.031054
C9    C     C_R   0.229165 0.098101 0.588977 -0.126592
C10   C     C_R   0.829438 0.828839 0.256904 -0.152324
C11   C     C_R   0.323384 0.195967 0.672060 -0.148148
C12   C     C_R   0.731476 0.733878 0.175176 -0.153087
C13   C     C_R   0.316469 0.280072 0.739812 0.117905
C14   C     C_R   0.716514 0.679326 0.071173 0.118059
C15   C     C_R   0.213627 0.265121 0.721415 -0.176121
C16   C     C_R   0.801252 0.719606 0.050593 -0.187497
C17   C     C_R   0.119667 0.167417 0.637722 -0.094944
C18   C     C_R   0.898485 0.815130 0.132271 -0.118641
C19   C     C_R   0.127441 0.083876 0.571757 -0.077196
C20   C     C_R   0.912997 0.869325 0.235496 -0.129377
C21   C     C_R   0.422578 0.481521 0.839258 -0.239856
C22   C     C_R   0.605304 0.484739 0.971419 -0.236667
C23   C     C_R   0.755675 0.217697 0.314588 -0.097354
C24   C     C_R   0.200293 0.790928 0.698342 -0.127614
C25   C     C_R   0.516165 0.581115 0.921775 0.067535
C26   C     C_R   0.506461 0.387129 0.904490 0.050187
C27   C     C_R   0.611507 0.581522 0.983158 0.026451
C28   C     C_R   0.416401 0.383345 0.829120 0.035263
C29   C     C_R   0.980710 0.440149 0.441827 0.165836
C30   C     C_R   0.944940 0.575684 0.588828 0.172820
C31   C     C_R   0.066145 0.541142 0.524484 -0.106693
C32   C     C_R   0.856976 0.477433 0.500173 -0.089575
C33   C     C_R   0.047669 0.606159 0.598780 -0.064161
C34   C     C_R   0.876519 0.412159 0.427259 -0.039334
C35   C     C_R   0.550083 0.894895 0.539610 -0.196045
C36   C     C_R   0.449539 0.987807 0.437815 -0.174789
C37   C     C_R   0.554234 0.895088 0.448769 -0.188513
C38   C     C_R   0.442922 0.985225 0.525355 -0.191946
C39   C     C_R   0.502371 0.940604 0.398229 0.152467
C40   C     C_R   0.492618 0.938479 0.575793 0.151063
C41   C     C_R   0.024680 0.955866 0.983273 -0.144552
C42   C     C_R   0.055312 0.154823 0.118640 -0.132103
C43   C     C_R   0.940248 0.959687 0.995240 -0.225801
C44   C     C_R   0.141704 0.150386 0.108787 -0.202515
C45   C     C_R   0.412248 0.908066 0.211574 -0.150736
C46   C     C_R   0.587275 0.023788 0.774572 -0.131961
C47   C     C_R   0.956005 0.058743 0.062862 0.131847
C48   C     C_R   0.125320 0.050393 0.041733 0.146738
C49   C     C_R   0.589122 0.295394 0.990102 -0.134303
C50   C     C_R   0.414238 0.686818 0.936313 -0.129918
C51   C     C_R   0.592723 0.002246 0.302768 -0.139185
C52   C     C_R   0.406019 0.935622 0.686679 -0.118588
C53   C     C_R   0.409409 0.209786 0.905989 -0.139150
C54   C     C_R   0.593475 0.783284 0.020999 -0.122234
C55   C     C_R   0.757782 0.313727 0.227611 0.048389
C56   C     C_R   0.198673 0.697940 0.788644 0.009184
C57   C     C_R   0.241602 0.967823 0.056024 0.035217
C58   C     C_R   0.801787 0.091302 0.000302 0.026995
C59   C     C_R   0.212729 0.039811 0.034385 -0.026736
C60   C     C_R   0.862060 0.059640 0.060374 0.029648
H1    H     H_    0.226285 0.103951 0.924025 0.108870
H2    H     H_    0.830625 0.977069 0.151558 0.139129
H3    H     H_    0.234940 0.033102 0.538134 0.092867
H4    H     H_    0.840430 0.871084 0.336653 0.111740
H5    H     H_    0.401647 0.205865 0.684241 0.112294
H6    H     H_    0.666667 0.703718 0.192050 0.113190
H7    H     H_    0.206315 0.328405 0.772869 0.118440
H8    H     H_    0.790879 0.678726 0.970809 0.133369
H9    H     H_    0.040833 0.156270 0.624435 0.099712
H10   H     H_    0.962264 0.847887 0.115261 0.160213
H11   H     H_    0.352512 0.480246 0.785407 0.123068
H12   H     H_    0.677390 0.489784 0.026051 0.145628
H13   H     H_    0.591371 0.862051 0.581660 0.120001
H14   H     H_    0.416322 0.029470 0.402645 0.121744
H15   H     H_    0.597232 0.860787 0.418349 0.117135
H16   H     H_    0.403396 0.024235 0.556822 0.112364
H17   H     H_    0.012329 0.879094 0.929767 0.162118
H18   H     H_    0.064971 0.231865 0.167567 0.160958
H19   H     H_    0.775728 0.194996 0.376827 0.103491
H20   H     H_    0.173577 0.818647 0.641673 0.104321
H21   H     H_    0.861791 0.886252 0.949485 0.142284
H22   H     H_    0.220207 0.223277 0.152917 0.127355
H23   H     H_    0.331935 0.846943 0.184533 0.128947
H24   H     H_    0.667733 0.055097 0.787054 0.135245
H25   H     H_    0.670076 0.341117 0.006144 0.099680
H26   H     H_    0.333690 0.619120 0.883654 0.120851
H27   H     H_    0.676294 0.031732 0.359298 0.093539
H28   H     H_    0.322063 0.890048 0.623096 0.097284
H29   H     H_    0.325490 0.181184 0.852367 0.115053
H30   H     H_    0.675755 0.811351 0.040398 0.130412
H31   H     H_    0.054666 0.008033 0.507470 0.092951
H32   H     H_    0.988567 0.943151 0.298428 0.124828
N1    N     N_R   0.293810 0.002730 0.945950 -0.043980
N2    N     N_R   0.706190 0.997270 0.054050 -0.049937
N3    N     N_R   0.706160 0.152130 0.208910 -0.041526
N4    N     N_R   0.293840 0.847870 0.791090 -0.048173
N5    N     N_R   0.443140 0.945920 0.152090 -0.047139
N6    N     N_R   0.556860 0.054080 0.847910 -0.044973
N7    N     N_R   0.556830 0.208940 0.002760 -0.049527
N8    N     N_R   0.443170 0.791060 0.997240 -0.045762
N9    N     N_R   0.556790 0.002750 0.208910 -0.037435
N10   N     N_R   0.443210 0.997250 0.791090 -0.039883
N11   N     N_R   0.443180 0.152110 0.945950 -0.041490
N12   N     N_R   0.556820 0.847890 0.054050 -0.040964
N13   N     N_R   0.706170 0.208950 0.152090 -0.066632
N14   N     N_R   0.293830 0.791050 0.847910 -0.064965
N15   N     N_R   0.293800 0.945910 0.002760 -0.063860
N16   N     N_R   0.706200 0.054090 0.997240 -0.060554
Ni1   Ni    Ni4+2 0.369690 0.999990 0.869700 0.213466
Ni2   Ni    Ni4+2 0.630310 0.000010 0.130300 0.217755
Ni3   Ni    Ni4+2 0.369670 0.869670 0.000000 0.208401
Ni4   Ni    Ni4+2 0.630330 0.130330 0.000000 0.209161
I1    I     I_    0.012215 0.327470 0.345642 -0.526912
I2    I     I_    0.925426 0.675617 0.710387 -0.527191
C61   C     C_R   0.175405 0.577233 0.535466 0.206320
C62   C     C_R   0.253661 0.566431 0.607587 -0.115002
C63   C     C_R   0.357227 0.603708 0.619469 -0.101610
C64   C     C_R   0.382840 0.650848 0.558714 -0.077433
C65   C     C_R   0.304927 0.660843 0.486047 -0.125135
C66   C     C_R   0.201581 0.624555 0.474655 -0.140423
H33   H     H_    0.234749 0.529715 0.654736 0.099977
H34   H     H_    0.417559 0.595953 0.675698 0.116081
H35   H     H_    0.462991 0.679515 0.567858 0.102054
H36   H     H_    0.324740 0.697207 0.438928 0.122822
H37   H     H_    0.142152 0.633690 0.418997 0.118692
C67   C     C_R   0.746199 0.440475 0.485313 0.187419
C68   C     C_R   0.695298 0.348898 0.494037 -0.122303
C69   C     C_R   0.589517 0.311441 0.476308 -0.112835
C70   C     C_R   0.534078 0.365420 0.450369 -0.090606
C71   C     C_R   0.584480 0.457109 0.442427 -0.110170
C72   C     C_R   0.690183 0.494638 0.459810 -0.129268
H38   H     H_    0.737510 0.306559 0.514402 0.103812
H39   H     H_    0.550542 0.240567 0.482629 0.110036
H40   H     H_    0.452144 0.336282 0.436549 0.110221
H41   H     H_    0.541523 0.498943 0.422508 0.110185
H42   H     H_    0.728190 0.565428 0.452901 0.121806
C73   C     C_R   0.794454 0.410107 0.214860 0.103980
C74   C     C_R   0.759361 0.483279 0.248156 -0.157602
C75   C     C_R   0.812163 0.587783 0.264704 -0.104892
C76   C     C_R   0.897643 0.618790 0.243826 -0.088102
C77   C     C_R   0.931960 0.545825 0.208637 -0.149706
C78   C     C_R   0.882406 0.442721 0.196973 -0.150029
H43   H     H_    0.694114 0.460694 0.265895 0.115117
H44   H     H_    0.788187 0.645129 0.296355 0.116094
H45   H     H_    0.938654 0.699970 0.257254 0.128091
H46   H     H_    0.999799 0.570534 0.194806 0.113368
H47   H     H_    0.916184 0.390878 0.179337 0.152799
C79   C     C_R   0.160514 0.618880 0.825583 0.113416
C80   C     C_R   0.199578 0.655139 0.936982 -0.159383
C81   C     C_R   0.177891 0.582172 0.975749 -0.110788
C82   C     C_R   0.117004 0.471116 0.903517 -0.105500
C83   C     C_R   0.075391 0.433082 0.792241 -0.139435
C84   C     C_R   0.096814 0.506133 0.753316 -0.140329
H48   H     H_    0.250737 0.740099 0.994762 0.122389
H49   H     H_    0.210422 0.611903 0.062127 0.112687
H50   H     H_    0.103036 0.414714 0.934056 0.118613
H51   H     H_    0.028467 0.346695 0.736129 0.104041
H52   H     H_    0.067902 0.472795 0.667585 0.123503
C85   C     C_R   0.202470 0.912756 0.111417 0.101347
C86   C     C_R   0.233280 0.974070 0.220391 -0.136431
C87   C     C_R   0.196740 0.922776 0.273813 -0.128818
C88   C     C_R   0.129322 0.810439 0.218836 -0.103635
C89   C     C_R   0.091471 0.750186 0.108081 -0.123083
C90   C     C_R   0.125482 0.801941 0.053802 -0.197943
H53   H     H_    0.287551 0.060999 0.264504 0.108902
H54   H     H_    0.222323 0.969891 0.358374 0.105566
H55   H     H_    0.104362 0.770880 0.261541 0.097901
H56   H     H_    0.034842 0.663870 0.064104 0.127437
H57   H     H_    0.091615 0.756070 0.967062 0.159560
C91   C     C_R   0.839284 0.165618 0.959384 0.092981
C92   C     C_R   0.808318 0.244388 0.966413 -0.162859
C93   C     C_R   0.828033 0.304670 0.914514 -0.113189
C94   C     C_R   0.877978 0.285615 0.853379 -0.096511
C95   C     C_R   0.911131 0.208598 0.846840 -0.130826
C96   C     C_R   0.891975 0.148706 0.899511 -0.156941
H58   H     H_    0.764812 0.255533 0.008530 0.117085
H59   H     H_    0.802018 0.364067 0.919414 0.114992
H60   H     H_    0.889826 0.329812 0.810234 0.121552
H61   H     H_    0.949399 0.193511 0.798853 0.106122
H62   H     H_    0.912719 0.085355 0.887910 0.132931

loop_
_geom_bond_atom_site_label_1
_geom_bond_atom_site_label_2
_ccdc_geom_bond_type
C93   H59   S    
C18   H10   S    
N7    N11   A    
C92   C93   A    
C17   H9    S    
C67   C68   A    
C3    C23   A    
C89   C90   A    
C73   C78   A    
C69   C70   A    
C82   H50   S    
C87   C88   A    
C38   H16   S    
C94   C95   A    
C20   H32   S    
N2    N16   A    
C7    C26   S    
C55   N13   A    
C94   H60   S    
C54   N12   A    
C35   C37   A    
C54   H30   S    
C44   H22   S    
C74   H43   S    
C24   N4    A    
C41   H17   S    
N5    Ni3   S    
C2    C60   A    
C57   C59   A    
C91   C92   A    
C58   C60   A    
C61   C62   A    
N8    N12   A    
C62   C63   A    
C22   H12   S    
C84   H52   S    
C64   C65   A    
N4    N14   A    
N3    N13   A    
C47   C60   S    
C68   H38   S    
C3    C55   A    
C24   H20   S    
C35   H13   S    
C71   H41   S    
C10   C20   A    
C82   C83   A    
C31   C33   A    
C13   C28   S    
C16   H8    S    
C14   C27   S    
C30   C32   A    
C18   C20   A    
C87   H54   S    
N14   Ni3   S    
N11   Ni1   S    
C46   N6    A    
C73   C74   A    
C80   H48   S    
C4    C56   A    
C29   C31   A    
C8    C25   S    
C41   C43   A    
C90   H57   S    
C45   H23   S    
C77   C78   A    
C42   C44   A    
C31   C61   S    
C9    C19   A    
C91   C96   A    
N6    Ni4   S    
C62   H33   S    
C35   C40   A    
C49   H25   S    
C52   H28   S    
C6    C40   S    
C76   C77   A    
C7    C49   A    
C72   H42   S    
C8    C54   A    
C66   H37   S    
C32   C67   S    
C3    C34   S    
N9    Ni2   S    
C65   H36   S    
C5    C45   A    
C29   C34   A    
N2    Ni2   S    
C88   H55   S    
N16   Ni4   S    
C32   C34   A    
C56   C79   S    
C63   H34   S    
C69   H39   S    
C49   N7    A    
C75   H44   S    
C85   C86   A    
C85   C90   A    
C2    N2    A    
C65   C66   A    
C15   H7    S    
C86   H53   S    
C79   C80   A    
C64   H35   S    
C9    C11   A    
C56   N14   A    
N4    Ni1   S    
C10   C12   A    
C77   H46   S    
C46   H24   S    
C16   C18   A    
C57   N15   A    
C21   C28   A    
C21   H11   S    
C42   H18   S    
C81   H49   S    
C13   C15   A    
C53   H29   S    
C43   H21   S    
C14   C16   A    
C51   N9    A    
C79   C84   A    
C7    C53   A    
C51   H27   S    
C68   C69   A    
C8    C50   A    
C93   C94   A    
N12   Ni2   S    
C48   C59   S    
C88   C89   A    
C30   I2    S    
C15   C17   A    
C21   C25   A    
C4    C33   S    
C36   H14   S    
C6    C46   A    
C30   C33   A    
C58   C91   S    
C9    H3    S    
N15   Ni3   S    
C78   H47   S    
N13   Ni4   S    
C36   C39   A    
C10   H4    S    
C12   C14   A    
N3    Ni2   S    
C1    H1    S    
C76   H45   S    
C75   C76   A    
C96   H62   S    
C11   H5    S    
C25   C27   A    
C92   H58   S    
C26   C28   A    
C55   C73   S    
C52   N10   A    
C22   C27   A    
C6    C52   A    
C86   C87   A    
C5    C39   S    
C71   C72   A    
C70   C71   A    
C89   H56   S    
C37   C39   A    
N6    N10   A    
C80   C81   A    
N1    N15   A    
C38   C40   A    
C11   C13   A    
C12   H6    S    
C67   C72   A    
C53   N11   A    
C4    C24   A    
N7    Ni4   S    
C36   C38   A    
C17   C19   A    
C41   C48   A    
C23   N3    A    
C83   H51   S    
C58   N16   A    
C42   C47   A    
C37   H15   S    
C50   N8    A    
C19   H31   S    
C74   C75   A    
C50   H26   S    
C70   H40   S    
C2    H2    S    
C83   C84   A    
N8    Ni3   S    
C1    N1    A    
C61   C66   A    
C22   C26   A    
C29   I1    S    
C81   C82   A    
C5    C51   A    
N10   Ni1   S    
C45   N5    A    
C57   C85   S    
C23   H19   S    
C63   C64   A    
C43   C47   A    
C95   H61   S    
N5    N9    A    
C44   C48   A    
N1    Ni1   S    
C1    C59   A    
C95   C96   A    
