data_mof_unit_32309.cif
_audit_creation_date              2012-12-10T16:48:45-0500
_audit_creation_method            fapswitch 2.2
_symmetry_space_group_name_H-M    P1
_symmetry_Int_Tables_number       1
_space_group_crystal_system       triclinic
_cell_length_a                    7.859634
_cell_length_b                    8.50641
_cell_length_c                    10.747797
_cell_angle_alpha                 88.999697
_cell_angle_beta                  99.941501
_cell_angle_gamma                 92.919133
_cell_volume                      706.832883547

loop_
_atom_site_label
_atom_site_type_symbol
_atom_type_description
_atom_site_fract_x
_atom_site_fract_y
_atom_site_fract_z
_atom_type_partial_charge
C1    C     C_R   0.549471 0.793091 0.514003 0.923625
C2    C     C_2   0.453260 0.045885 0.561975 -0.076780
C3    C     C_3   0.632893 0.682939 0.095338 -0.864705
C4    C     C_3   0.369952 0.315205 0.905637 -0.882114
C5    C     C_3   0.188763 0.508316 0.070874 -0.901125
C6    C     C_3   0.811796 0.489239 0.928800 -0.899739
C7    C     C_3   0.775420 0.010998 0.583489 -0.784709
C8    C     C_3   0.289496 0.988107 0.609722 -0.768681
C9    C     C_R   0.462658 0.206815 0.519997 0.926410
C10   C     C_R   0.573623 0.488464 0.735864 0.871012
C11   C     C_R   0.426483 0.511852 0.264171 0.920852
C12   C     C_2   0.623507 0.479452 0.871976 -0.006550
C13   C     C_2   0.376904 0.520810 0.127974 -0.016707
C14   C     C_2   0.499712 0.452888 0.942025 0.221435
C15   C     C_2   0.501071 0.546921 0.058069 0.204545
C16   C     C_2   0.586491 0.953978 0.553225 -0.047980
Cl1   Cl    Cl    0.992157 0.344547 0.349469 -0.536625
Cl2   Cl    Cl    0.011641 0.642103 0.658699 -0.591646
H1    H     H_    0.651088 0.754282 0.010761 0.239274
H2    H     H_    0.883378 0.410437 0.877133 0.269288
H3    H     H_    0.864682 0.611970 0.922050 0.270782
H4    H     H_    0.832058 0.446783 0.028152 0.271271
H5    H     H_    0.851181 0.921205 0.640998 0.266580
H6    H     H_    0.828554 0.032485 0.495105 0.274265
H7    H     H_    0.794663 0.117757 0.643282 0.243832
H8    H     H_    0.241297 0.081921 0.663199 0.228179
H9    H     H_    0.186179 0.954187 0.529214 0.276049
H10   H     H_    0.315150 0.888555 0.677515 0.268927
H11   H     H_    0.587624 0.764415 0.161178 0.227060
H12   H     H_    0.758305 0.639829 0.143501 0.266194
H13   H     H_    0.351181 0.245227 0.990741 0.244637
H14   H     H_    0.244474 0.356283 0.855707 0.266731
H15   H     H_    0.418058 0.232994 0.841808 0.220160
H16   H     H_    0.115949 0.587114 0.121582 0.268696
H17   H     H_    0.168312 0.549054 0.971077 0.273891
H18   H     H_    0.137297 0.385302 0.078825 0.271128
N1    N     N_2   0.940600 0.458860 0.467170 0.143370
N2    N     N_2   0.059400 0.541140 0.532830 0.142078
O1    O     O_R   0.391630 0.738350 0.508060 -0.616894
O2    O     O_R   0.608370 0.261650 0.491940 -0.607145
O3    O     O_R   0.674540 0.711990 0.487010 -0.583807
O4    O     O_R   0.325460 0.288010 0.512990 -0.574884
O5    O     O_R   0.411370 0.508250 0.688780 -0.605422
O6    O     O_R   0.588630 0.491750 0.311220 -0.592445
O7    O     O_R   0.694270 0.481880 0.667740 -0.578412
O8    O     O_R   0.305730 0.518120 0.332260 -0.564569
Zn1   Zn    Zn3+2 0.311100 0.517600 0.514050 1.049080
Zn2   Zn    Zn3+2 0.688900 0.482400 0.485950 1.051590

loop_
_geom_bond_atom_site_label_1
_geom_bond_atom_site_label_2
_ccdc_geom_bond_type
C2    C9    S    
C3    H12   S    
C3    H1    S    
N1    N2    D    
C2    C16   D    
C8    H8    S    
C5    C13   S    
C7    H7    S    
C5    H16   S    
C10   O7    A    
N2    Zn1   S    
Cl2   N2    S    
C3    C15   S    
C11   O6    A    
C1    C16   S    
Cl1   N1    S    
N1    Zn2   S    
C4    C14   S    
C11   C13   S    
C9    O4    A    
C4    H14   S    
C10   C12   S    
C7    H5    S    
C5    H17   S    
C1    O3    A    
C7    C16   S    
O3    Zn2   S    
C12   C14   D    
O4    Zn1   S    
C13   C15   D    
C6    C12   S    
C14   C15   S    
C8    H10   S    
C4    H13   S    
C1    O1    A    
C7    H6    S    
C6    H4    S    
C5    H18   S    
C6    H2    S    
O1    Zn1   S    
O7    Zn2   S    
C3    H11   S    
C8    H9    S    
O2    Zn2   S    
O8    Zn1   S    
C11   O8    A    
C10   O5    A    
C4    H15   S    
C6    H3    S    
O5    Zn1   S    
C9    O2    A    
C2    C8    S    
O6    Zn2   S    
