data_mof_unit_45209.cif
_audit_creation_date              2013-03-05T15:39:51-0500
_audit_creation_method            fapswitch 2.2
_symmetry_space_group_name_H-M    P1
_symmetry_Int_Tables_number       1
_space_group_crystal_system       triclinic
_cell_length_a                    26.605227
_cell_length_b                    26.742487
_cell_length_c                    26.552452
_cell_angle_alpha                 89.986299
_cell_angle_beta                  90.000549
_cell_angle_gamma                 89.977128
_cell_volume                      18891.8003592

loop_
_atom_site_label
_atom_site_type_symbol
_atom_site_description
_atom_site_fract_x
_atom_site_fract_y
_atom_site_fract_z
_atom_type_partial_charge
O1    O     O_R   0.947350 0.816370 0.242430 -0.541392
O2    O     O_R   0.052650 0.183630 0.757570 -0.540919
O3    O     O_R   0.242430 0.816370 0.052650 -0.537906
O4    O     O_R   0.757570 0.183630 0.947350 -0.536065
O5    O     O_R   0.052650 0.816370 0.757570 -0.540333
O6    O     O_R   0.947350 0.183630 0.242430 -0.540382
O7    O     O_R   0.757570 0.816370 0.947350 -0.535309
O8    O     O_R   0.242430 0.183630 0.052650 -0.536336
O9    O     O_R   0.947350 0.183630 0.757570 -0.540608
O10   O     O_R   0.052650 0.816370 0.242430 -0.542990
O11   O     O_R   0.242430 0.183630 0.947350 -0.536692
O12   O     O_R   0.757570 0.816370 0.052650 -0.535994
O13   O     O_R   0.052650 0.183630 0.242430 -0.540822
O14   O     O_R   0.947350 0.816370 0.757570 -0.540526
O15   O     O_R   0.757570 0.183630 0.052650 -0.535443
O16   O     O_R   0.242430 0.816370 0.947350 -0.535779
O17   O     O_R   0.183630 0.242430 0.052650 -0.539862
O18   O     O_R   0.816370 0.757570 0.947350 -0.536920
O19   O     O_R   0.183630 0.052650 0.757570 -0.541060
O20   O     O_R   0.816370 0.947350 0.242430 -0.541123
O21   O     O_R   0.183630 0.757570 0.947350 -0.537429
O22   O     O_R   0.816370 0.242430 0.052650 -0.537089
O23   O     O_R   0.183630 0.947350 0.242430 -0.541035
O24   O     O_R   0.816370 0.052650 0.757570 -0.540009
O25   O     O_R   0.816370 0.757570 0.052650 -0.536253
O26   O     O_R   0.183630 0.242430 0.947350 -0.539850
O27   O     O_R   0.816370 0.947350 0.757570 -0.541373
O28   O     O_R   0.183630 0.052650 0.242430 -0.542009
O29   O     O_R   0.816370 0.242430 0.947350 -0.536994
O30   O     O_R   0.183630 0.757570 0.052650 -0.537226
O31   O     O_R   0.816370 0.052650 0.242430 -0.542861
O32   O     O_R   0.183630 0.947350 0.757570 -0.541267
O33   O     O_R   0.757570 0.052650 0.816370 -0.542696
O34   O     O_R   0.242430 0.947350 0.183630 -0.546342
O35   O     O_R   0.947350 0.757570 0.816370 -0.535818
O36   O     O_R   0.052650 0.242430 0.183630 -0.535501
O37   O     O_R   0.242430 0.947350 0.816370 -0.541820
O38   O     O_R   0.757570 0.052650 0.183630 -0.542522
O39   O     O_R   0.052650 0.242430 0.816370 -0.538796
O40   O     O_R   0.947350 0.757570 0.183630 -0.536008
O41   O     O_R   0.242430 0.052650 0.183630 -0.543966
O42   O     O_R   0.757570 0.947350 0.816370 -0.540103
O43   O     O_R   0.052650 0.757570 0.183630 -0.536279
O44   O     O_R   0.947350 0.242430 0.816370 -0.537366
O45   O     O_R   0.757570 0.947350 0.183630 -0.542513
O46   O     O_R   0.242430 0.052650 0.816370 -0.545398
O47   O     O_R   0.947350 0.242430 0.183630 -0.536461
O48   O     O_R   0.052650 0.757570 0.816370 -0.535961
O49   O     O_R   0.447350 0.316370 0.242430 -0.545632
O50   O     O_R   0.552650 0.683630 0.757570 -0.539093
O51   O     O_R   0.242430 0.316370 0.552650 -0.537277
O52   O     O_R   0.757570 0.683630 0.447350 -0.546829
O53   O     O_R   0.552650 0.316370 0.757570 -0.539795
O54   O     O_R   0.447350 0.683630 0.242430 -0.538542
O55   O     O_R   0.757570 0.316370 0.447350 -0.546060
O56   O     O_R   0.242430 0.683630 0.552650 -0.537405
O57   O     O_R   0.447350 0.683630 0.757570 -0.546220
O58   O     O_R   0.552650 0.316370 0.242430 -0.536262
O59   O     O_R   0.242430 0.683630 0.447350 -0.542535
O60   O     O_R   0.757570 0.316370 0.552650 -0.537907
O61   O     O_R   0.552650 0.683630 0.242430 -0.536048
O62   O     O_R   0.447350 0.316370 0.757570 -0.544206
O63   O     O_R   0.757570 0.683630 0.552650 -0.538058
O64   O     O_R   0.242430 0.316370 0.447350 -0.547185
O65   O     O_R   0.683630 0.242430 0.552650 -0.538346
O66   O     O_R   0.316370 0.757570 0.447350 -0.547321
O67   O     O_R   0.683630 0.552650 0.757570 -0.543669
O68   O     O_R   0.316370 0.447350 0.242430 -0.539503
O69   O     O_R   0.683630 0.757570 0.447350 -0.547240
O70   O     O_R   0.316370 0.242430 0.552650 -0.538577
O71   O     O_R   0.683630 0.447350 0.242430 -0.541782
O72   O     O_R   0.316370 0.552650 0.757570 -0.543896
O73   O     O_R   0.316370 0.757570 0.552650 -0.538846
O74   O     O_R   0.683630 0.242430 0.447350 -0.543487
O75   O     O_R   0.316370 0.447350 0.757570 -0.540574
O76   O     O_R   0.683630 0.552650 0.242430 -0.543068
O77   O     O_R   0.316370 0.242430 0.447350 -0.548874
O78   O     O_R   0.683630 0.757570 0.552650 -0.539094
O79   O     O_R   0.316370 0.552650 0.242430 -0.540474
O80   O     O_R   0.683630 0.447350 0.757570 -0.546770
O81   O     O_R   0.757570 0.552650 0.316370 -0.545765
O82   O     O_R   0.242430 0.447350 0.683630 -0.537451
O83   O     O_R   0.447350 0.757570 0.316370 -0.541311
O84   O     O_R   0.552650 0.242430 0.683630 -0.542968
O85   O     O_R   0.242430 0.447350 0.316370 -0.542990
O86   O     O_R   0.757570 0.552650 0.683630 -0.544743
O87   O     O_R   0.552650 0.242430 0.316370 -0.542575
O88   O     O_R   0.447350 0.757570 0.683630 -0.548584
O89   O     O_R   0.242430 0.552650 0.683630 -0.541806
O90   O     O_R   0.757570 0.447350 0.316370 -0.545311
O91   O     O_R   0.552650 0.757570 0.683630 -0.546895
O92   O     O_R   0.447350 0.242430 0.316370 -0.543255
O93   O     O_R   0.757570 0.447350 0.683630 -0.546385
O94   O     O_R   0.242430 0.552650 0.316370 -0.541899
O95   O     O_R   0.447350 0.242430 0.683630 -0.540836
O96   O     O_R   0.552650 0.757570 0.316370 -0.543145
O97   O     O_R   0.447350 0.816370 0.742430 -0.537341
O98   O     O_R   0.552650 0.183630 0.257570 -0.540183
O99   O     O_R   0.742430 0.816370 0.552650 -0.540265
O100  O     O_R   0.257570 0.183630 0.447350 -0.541736
O101  O     O_R   0.552650 0.816370 0.257570 -0.539915
O102  O     O_R   0.447350 0.183630 0.742430 -0.539943
O103  O     O_R   0.257570 0.816370 0.447350 -0.539775
O104  O     O_R   0.742430 0.183630 0.552650 -0.542839
O105  O     O_R   0.447350 0.183630 0.257570 -0.532581
O106  O     O_R   0.552650 0.816370 0.742430 -0.536700
O107  O     O_R   0.742430 0.183630 0.447350 -0.538703
O108  O     O_R   0.257570 0.816370 0.552650 -0.540440
O109  O     O_R   0.552650 0.183630 0.742430 -0.545180
O110  O     O_R   0.447350 0.816370 0.257570 -0.533037
O111  O     O_R   0.257570 0.183630 0.552650 -0.539037
O112  O     O_R   0.742430 0.816370 0.447350 -0.541455
O113  O     O_R   0.183630 0.742430 0.552650 -0.544783
O114  O     O_R   0.816370 0.257570 0.447350 -0.541149
O115  O     O_R   0.183630 0.552650 0.257570 -0.535008
O116  O     O_R   0.816370 0.447350 0.742430 -0.546410
O117  O     O_R   0.183630 0.257570 0.447350 -0.543263
O118  O     O_R   0.816370 0.742430 0.552650 -0.540694
O119  O     O_R   0.183630 0.447350 0.742430 -0.537940
O120  O     O_R   0.816370 0.552650 0.257570 -0.537912
O121  O     O_R   0.816370 0.257570 0.552650 -0.540888
O122  O     O_R   0.183630 0.742430 0.447350 -0.540929
O123  O     O_R   0.816370 0.447350 0.257570 -0.539675
O124  O     O_R   0.183630 0.552650 0.742430 -0.545586
O125  O     O_R   0.816370 0.742430 0.447350 -0.543945
O126  O     O_R   0.183630 0.257570 0.552650 -0.540459
O127  O     O_R   0.816370 0.552650 0.742430 -0.544628
O128  O     O_R   0.183630 0.447350 0.257570 -0.533165
O129  O     O_R   0.257570 0.552650 0.816370 -0.542640
O130  O     O_R   0.742430 0.447350 0.183630 -0.544764
O131  O     O_R   0.447350 0.257570 0.816370 -0.542067
O132  O     O_R   0.552650 0.742430 0.183630 -0.544308
O133  O     O_R   0.742430 0.447350 0.816370 -0.545553
O134  O     O_R   0.257570 0.552650 0.183630 -0.540556
O135  O     O_R   0.552650 0.742430 0.816370 -0.541640
O136  O     O_R   0.447350 0.257570 0.183630 -0.540410
O137  O     O_R   0.742430 0.552650 0.183630 -0.541284
O138  O     O_R   0.257570 0.447350 0.816370 -0.533308
O139  O     O_R   0.552650 0.257570 0.183630 -0.540922
O140  O     O_R   0.447350 0.742430 0.816370 -0.543589
O141  O     O_R   0.257570 0.447350 0.183630 -0.533633
O142  O     O_R   0.742430 0.552650 0.816370 -0.544202
O143  O     O_R   0.447350 0.742430 0.183630 -0.538116
O144  O     O_R   0.552650 0.257570 0.816370 -0.543564
O145  O     O_R   0.947350 0.316370 0.742430 -0.534490
O146  O     O_R   0.052650 0.683630 0.257570 -0.541473
O147  O     O_R   0.742430 0.316370 0.052650 -0.535729
O148  O     O_R   0.257570 0.683630 0.947350 -0.537285
O149  O     O_R   0.052650 0.316370 0.257570 -0.537587
O150  O     O_R   0.947350 0.683630 0.742430 -0.538204
O151  O     O_R   0.257570 0.316370 0.947350 -0.534172
O152  O     O_R   0.742430 0.683630 0.052650 -0.534015
O153  O     O_R   0.947350 0.683630 0.257570 -0.539988
O154  O     O_R   0.052650 0.316370 0.742430 -0.542270
O155  O     O_R   0.742430 0.683630 0.947350 -0.535877
O156  O     O_R   0.257570 0.316370 0.052650 -0.534526
O157  O     O_R   0.052650 0.683630 0.742430 -0.536814
O158  O     O_R   0.947350 0.316370 0.257570 -0.538610
O159  O     O_R   0.257570 0.683630 0.052650 -0.538948
O160  O     O_R   0.742430 0.316370 0.947350 -0.535676
O161  O     O_R   0.683630 0.742430 0.052650 -0.537026
O162  O     O_R   0.316370 0.257570 0.947350 -0.541031
O163  O     O_R   0.683630 0.052650 0.257570 -0.543068
O164  O     O_R   0.316370 0.947350 0.742430 -0.534615
O165  O     O_R   0.683630 0.257570 0.947350 -0.537596
O166  O     O_R   0.316370 0.742430 0.052650 -0.538487
O167  O     O_R   0.683630 0.947350 0.742430 -0.539091
O168  O     O_R   0.316370 0.052650 0.257570 -0.538187
O169  O     O_R   0.316370 0.257570 0.052650 -0.540905
O170  O     O_R   0.683630 0.742430 0.947350 -0.536346
O171  O     O_R   0.316370 0.947350 0.257570 -0.544009
O172  O     O_R   0.683630 0.052650 0.742430 -0.539555
O173  O     O_R   0.316370 0.742430 0.947350 -0.530913
O174  O     O_R   0.683630 0.257570 0.052650 -0.536610
O175  O     O_R   0.316370 0.052650 0.742430 -0.545593
O176  O     O_R   0.683630 0.947350 0.257570 -0.541600
O177  O     O_R   0.257570 0.052650 0.316370 -0.544592
O178  O     O_R   0.742430 0.947350 0.683630 -0.541242
O179  O     O_R   0.947350 0.257570 0.316370 -0.537425
O180  O     O_R   0.052650 0.742430 0.683630 -0.537152
O181  O     O_R   0.742430 0.947350 0.316370 -0.534516
O182  O     O_R   0.257570 0.052650 0.683630 -0.544384
O183  O     O_R   0.052650 0.742430 0.316370 -0.541155
O184  O     O_R   0.947350 0.257570 0.683630 -0.540077
O185  O     O_R   0.742430 0.052650 0.683630 -0.539340
O186  O     O_R   0.257570 0.947350 0.316370 -0.543686
O187  O     O_R   0.052650 0.257570 0.683630 -0.542148
O188  O     O_R   0.947350 0.742430 0.316370 -0.533231
O189  O     O_R   0.257570 0.947350 0.683630 -0.543476
O190  O     O_R   0.742430 0.052650 0.316370 -0.542853
O191  O     O_R   0.947350 0.742430 0.683630 -0.537865
O192  O     O_R   0.052650 0.257570 0.316370 -0.537797
Cu1   Cu    Cu3+1 1.000000 0.784800 0.284800 1.230549
Cu2   Cu    Cu3+1 1.000000 0.215200 0.715200 1.229782
Cu3   Cu    Cu3+1 0.284800 0.784800 0.000000 1.230695
Cu4   Cu    Cu3+1 0.715200 0.215200 0.000000 1.228381
Cu5   Cu    Cu3+1 1.000000 0.784800 0.715200 1.228853
Cu6   Cu    Cu3+1 0.000000 0.215200 0.284800 1.229660
Cu7   Cu    Cu3+1 0.715200 0.784800 0.000000 1.229649
Cu8   Cu    Cu3+1 0.284800 0.215200 0.000000 1.230044
Cu9   Cu    Cu3+1 0.215200 0.284800 0.000000 1.232398
Cu10  Cu    Cu3+1 0.784800 0.715200 0.000000 1.230663
Cu11  Cu    Cu3+1 0.215200 1.000000 0.715200 1.230272
Cu12  Cu    Cu3+1 0.784800 0.000000 0.284800 1.231192
Cu13  Cu    Cu3+1 0.215200 0.715200 0.000000 1.228595
Cu14  Cu    Cu3+1 0.784800 0.284800 0.000000 1.229105
Cu15  Cu    Cu3+1 0.215200 0.000000 0.284800 1.230563
Cu16  Cu    Cu3+1 0.784800 1.000000 0.715200 1.229661
Cu17  Cu    Cu3+1 0.715200 0.000000 0.784800 1.230639
Cu18  Cu    Cu3+1 0.284800 1.000000 0.215200 1.229181
Cu19  Cu    Cu3+1 1.000000 0.715200 0.784800 1.230973
Cu20  Cu    Cu3+1 0.000000 0.284800 0.215200 1.232187
Cu21  Cu    Cu3+1 0.284800 0.000000 0.784800 1.231290
Cu22  Cu    Cu3+1 0.715200 1.000000 0.215200 1.228472
Cu23  Cu    Cu3+1 0.000000 0.284800 0.784800 1.231261
Cu24  Cu    Cu3+1 0.000000 0.715200 0.215200 1.232500
Cu25  Cu    Cu3+1 0.500000 0.284800 0.284800 1.226515
Cu26  Cu    Cu3+1 0.500000 0.715200 0.715200 1.227215
Cu27  Cu    Cu3+1 0.284800 0.284800 0.500000 1.228945
Cu28  Cu    Cu3+1 0.715200 0.715200 0.500000 1.228655
Cu29  Cu    Cu3+1 0.500000 0.284800 0.715200 1.231489
Cu30  Cu    Cu3+1 0.500000 0.715200 0.284800 1.227548
Cu31  Cu    Cu3+1 0.715200 0.284800 0.500000 1.229552
Cu32  Cu    Cu3+1 0.284800 0.715200 0.500000 1.229036
Cu33  Cu    Cu3+1 0.715200 0.500000 0.715200 1.229085
Cu34  Cu    Cu3+1 0.284800 0.500000 0.284800 1.225973
Cu35  Cu    Cu3+1 0.715200 0.500000 0.284800 1.227264
Cu36  Cu    Cu3+1 0.284800 0.500000 0.715200 1.229846
Cu37  Cu    Cu3+1 0.500000 0.784800 0.784800 1.239587
Cu38  Cu    Cu3+1 0.500000 0.215200 0.215200 1.232227
Cu39  Cu    Cu3+1 0.784800 0.784800 0.500000 1.232771
Cu40  Cu    Cu3+1 0.215200 0.215200 0.500000 1.232538
Cu41  Cu    Cu3+1 0.500000 0.784800 0.215200 1.228367
Cu42  Cu    Cu3+1 0.500000 0.215200 0.784800 1.228807
Cu43  Cu    Cu3+1 0.215200 0.784800 0.500000 1.229704
Cu44  Cu    Cu3+1 0.784800 0.215200 0.500000 1.231134
Cu45  Cu    Cu3+1 0.215200 0.500000 0.215200 1.235028
Cu46  Cu    Cu3+1 0.784800 0.500000 0.784800 1.229689
Cu47  Cu    Cu3+1 0.215200 0.500000 0.784800 1.230444
Cu48  Cu    Cu3+1 0.784800 0.500000 0.215200 1.231620
C1    C     C_R   0.932893 0.698994 0.301006 0.819297
C2    C     C_R   0.066900 0.300738 0.698755 0.823931
C3    C     C_R   0.301213 0.698267 0.066287 0.820950
C4    C     C_R   0.698801 0.301014 0.933239 0.809628
C5    C     C_R   0.065812 0.698279 0.697949 0.804382
C6    C     C_R   0.932930 0.301039 0.301029 0.809494
C7    C     C_R   0.698827 0.699018 0.933187 0.808369
C8    C     C_R   0.300812 0.300557 0.067532 0.831265
C9    C     C_R   0.933043 0.300916 0.698870 0.819698
C10   C     C_R   0.066814 0.698760 0.301019 0.822736
C11   C     C_R   0.300797 0.300548 0.932476 0.831203
C12   C     C_R   0.698228 0.698708 0.066191 0.807133
C13   C     C_R   0.067119 0.300999 0.300997 0.809898
C14   C     C_R   0.933011 0.699096 0.698891 0.806571
C15   C     C_R   0.698814 0.301012 0.066774 0.810053
C16   C     C_R   0.301320 0.698418 0.933559 0.817406
C17   C     C_R   0.300780 0.067076 0.698844 0.823873
C18   C     C_R   0.698429 0.933198 0.301215 0.816711
C19   C     C_R   0.300607 0.932267 0.300771 0.830220
C20   C     C_R   0.698225 0.066025 0.698043 0.804378
C21   C     C_R   0.699194 0.932738 0.699018 0.807520
C22   C     C_R   0.300658 0.067654 0.300802 0.830845
C23   C     C_R   0.698192 0.066532 0.301230 0.820066
C24   C     C_R   0.300813 0.932752 0.699018 0.821001
C25   C     C_R   0.433705 0.198658 0.301628 0.815316
C26   C     C_R   0.567533 0.800548 0.699487 0.844956
C27   C     C_R   0.300887 0.199553 0.567542 0.838889
C28   C     C_R   0.699310 0.800682 0.432590 0.840668
C29   C     C_R   0.567381 0.199272 0.699213 0.839714
C30   C     C_R   0.433838 0.801472 0.301710 0.816437
C31   C     C_R   0.698788 0.198286 0.433691 0.830727
C32   C     C_R   0.300824 0.800602 0.567387 0.840335
C33   C     C_R   0.432505 0.800573 0.699468 0.843188
C34   C     C_R   0.566360 0.198893 0.301916 0.820046
C35   C     C_R   0.300794 0.800534 0.432717 0.844623
C36   C     C_R   0.698837 0.199080 0.566898 0.832206
C37   C     C_R   0.566182 0.801227 0.301790 0.820697
C38   C     C_R   0.433285 0.198572 0.699060 0.836064
C39   C     C_R   0.699175 0.800606 0.567375 0.839531
C40   C     C_R   0.300846 0.199404 0.432781 0.841396
C41   C     C_R   0.800760 0.300810 0.567227 0.838898
C42   C     C_R   0.198108 0.698906 0.433836 0.830654
C43   C     C_R   0.800636 0.567633 0.699458 0.848448
C44   C     C_R   0.198919 0.433246 0.301509 0.830119
C45   C     C_R   0.800861 0.699410 0.432805 0.839659
C46   C     C_R   0.199394 0.300878 0.567417 0.838258
C47   C     C_R   0.801044 0.433180 0.301481 0.826956
C48   C     C_R   0.199136 0.567418 0.699180 0.843280
C49   C     C_R   0.198914 0.698847 0.566768 0.831703
C50   C     C_R   0.800838 0.300569 0.432781 0.843858
C51   C     C_R   0.198431 0.433218 0.699035 0.840863
C52   C     C_R   0.801052 0.566803 0.301482 0.827023
C53   C     C_R   0.199149 0.300592 0.432787 0.841121
C54   C     C_R   0.800723 0.699234 0.567277 0.837973
C55   C     C_R   0.199012 0.566897 0.301647 0.829206
C56   C     C_R   0.800646 0.432356 0.699456 0.846545
C57   C     C_R   0.699488 0.567839 0.199349 0.850574
C58   C     C_R   0.301338 0.433216 0.801240 0.819229
C59   C     C_R   0.433607 0.698898 0.198101 0.834467
C60   C     C_R   0.567269 0.300820 0.800811 0.836701
C61   C     C_R   0.301488 0.433387 0.198645 0.819531
C62   C     C_R   0.699500 0.567634 0.800685 0.848692
C63   C     C_R   0.567316 0.300756 0.199231 0.841450
C64   C     C_R   0.432594 0.699391 0.800863 0.839809
C65   C     C_R   0.301630 0.566425 0.801298 0.821452
C66   C     C_R   0.699503 0.432338 0.199320 0.851147
C67   C     C_R   0.567335 0.699257 0.800752 0.838077
C68   C     C_R   0.432854 0.300767 0.199223 0.846036
C69   C     C_R   0.699531 0.432309 0.800668 0.847745
C70   C     C_R   0.301777 0.566552 0.198786 0.824004
C71   C     C_R   0.432878 0.300779 0.800790 0.843363
C72   C     C_R   0.566688 0.698866 0.198860 0.834550
C73   C     C_R   0.932719 0.199224 0.800786 0.830573
C74   C     C_R   0.067276 0.800782 0.199210 0.830160
C75   C     C_R   0.801179 0.199015 0.066800 0.809843
C76   C     C_R   0.198820 0.800985 0.933199 0.809905
C77   C     C_R   0.067237 0.199181 0.199181 0.831678
C78   C     C_R   0.932763 0.800818 0.800818 0.831756
C79   C     C_R   0.198827 0.199025 0.933182 0.807464
C80   C     C_R   0.801171 0.800974 0.066819 0.810757
C81   C     C_R   0.932759 0.800809 0.199189 0.830688
C82   C     C_R   0.067242 0.199192 0.800810 0.829991
C83   C     C_R   0.801158 0.800959 0.933168 0.810148
C84   C     C_R   0.198840 0.199038 0.066828 0.807855
C85   C     C_R   0.067277 0.800785 0.800792 0.833151
C86   C     C_R   0.932726 0.199212 0.199205 0.831369
C87   C     C_R   0.198806 0.801001 0.066785 0.809112
C88   C     C_R   0.801195 0.198997 0.933216 0.809440
C89   C     C_R   0.800477 0.067673 0.199328 0.853170
C90   C     C_R   0.199528 0.932319 0.800667 0.853203
C91   C     C_R   0.800481 0.932333 0.800676 0.854134
C92   C     C_R   0.199514 0.067659 0.199319 0.851576
C93   C     C_R   0.199517 0.932328 0.199329 0.850818
C94   C     C_R   0.800478 0.067680 0.800666 0.854873
C95   C     C_R   0.199515 0.067671 0.800673 0.851790
C96   C     C_R   0.800489 0.932335 0.199323 0.853742
C97   C     C_R   0.828873 0.893326 0.170994 -0.230664
C98   C     C_R   0.171136 0.106689 0.828994 -0.230467
C99   C     C_R   0.171127 0.893313 0.171022 -0.230018
C100  C     C_R   0.828866 0.106704 0.828964 -0.231377
C101  C     C_R   0.171162 0.893288 0.828966 -0.230339
C102  C     C_R   0.828847 0.106696 0.171020 -0.230588
C103  C     C_R   0.828843 0.893317 0.829009 -0.230680
C104  C     C_R   0.171146 0.106667 0.170980 -0.230065
C105  C     C_R   0.106183 0.170483 0.171163 -0.247304
C106  C     C_R   0.893814 0.829514 0.828833 -0.246947
C107  C     C_R   0.106190 0.170507 0.828814 -0.246816
C108  C     C_R   0.893814 0.829498 0.171180 -0.246616
C109  C     C_R   0.106255 0.829449 0.828768 -0.247578
C110  C     C_R   0.893752 0.170543 0.171223 -0.246970
C111  C     C_R   0.106246 0.829449 0.171234 -0.246781
C112  C     C_R   0.893743 0.170566 0.828754 -0.246684
C113  C     C_R   0.829451 0.170479 0.894406 -0.265215
C114  C     C_R   0.170552 0.829520 0.105595 -0.265185
C115  C     C_R   0.829353 0.829413 0.894319 -0.265590
C116  C     C_R   0.170642 0.170577 0.105671 -0.264695
C117  C     C_R   0.170591 0.829480 0.894375 -0.265250
C118  C     C_R   0.829410 0.170518 0.105621 -0.265381
C119  C     C_R   0.170608 0.170549 0.894343 -0.264512
C120  C     C_R   0.829390 0.829453 0.105655 -0.265801
C121  C     C_R   0.330943 0.394939 0.170213 -0.264427
C122  C     C_R   0.671141 0.606621 0.828997 -0.231554
C123  C     C_R   0.168781 0.394921 0.670568 -0.248362
C124  C     C_R   0.829461 0.605025 0.331250 -0.246974
C125  C     C_R   0.671210 0.393283 0.828996 -0.232189
C126  C     C_R   0.332250 0.603713 0.169204 -0.250203
C127  C     C_R   0.829437 0.394955 0.331284 -0.246494
C128  C     C_R   0.169997 0.605439 0.669921 -0.234455
C129  C     C_R   0.331935 0.603734 0.830372 -0.248231
C130  C     C_R   0.671135 0.393323 0.171011 -0.232852
C131  C     C_R   0.170047 0.604943 0.331668 -0.249844
C132  C     C_R   0.828914 0.393332 0.671090 -0.234657
C133  C     C_R   0.670757 0.606733 0.170773 -0.233748
C134  C     C_R   0.330554 0.394586 0.829520 -0.264937
C135  C     C_R   0.828890 0.606639 0.671098 -0.231872
C136  C     C_R   0.170476 0.395065 0.331273 -0.248919
C137  C     C_R   0.605371 0.170271 0.669995 -0.232430
C138  C     C_R   0.395887 0.830290 0.331306 -0.261742
C139  C     C_R   0.606359 0.670642 0.828698 -0.242630
C140  C     C_R   0.394788 0.329568 0.170350 -0.229399
C141  C     C_R   0.603147 0.830313 0.332262 -0.247314
C142  C     C_R   0.394982 0.169045 0.670730 -0.245506
C143  C     C_R   0.606336 0.329371 0.171280 -0.243906
C144  C     C_R   0.394556 0.670088 0.829794 -0.231845
C145  C     C_R   0.393567 0.828947 0.671403 -0.232274
C146  C     C_R   0.603219 0.169278 0.332592 -0.248896
C147  C     C_R   0.394736 0.329515 0.829597 -0.228131
C148  C     C_R   0.604501 0.669449 0.169992 -0.243706
C149  C     C_R   0.395613 0.170036 0.331069 -0.261849
C150  C     C_R   0.606518 0.828896 0.671439 -0.230378
C151  C     C_R   0.396684 0.669298 0.167488 -0.245837
C152  C     C_R   0.606261 0.329527 0.828806 -0.243070
C153  C     C_R   0.829665 0.670377 0.394790 -0.230859
C154  C     C_R   0.171050 0.329481 0.606348 -0.244001
C155  C     C_R   0.329632 0.829278 0.394547 -0.229813
C156  C     C_R   0.669342 0.170247 0.604653 -0.243847
C157  C     C_R   0.170364 0.329630 0.394766 -0.227773
C158  C     C_R   0.828620 0.670610 0.606250 -0.242562
C159  C     C_R   0.669137 0.167775 0.396831 -0.244146
C160  C     C_R   0.329329 0.828360 0.606311 -0.242153
C161  C     C_R   0.169925 0.669119 0.604394 -0.243188
C162  C     C_R   0.829616 0.329561 0.394753 -0.229504
C163  C     C_R   0.670673 0.828380 0.606311 -0.241603
C164  C     C_R   0.329766 0.170579 0.394669 -0.228509
C165  C     C_R   0.828695 0.329468 0.606164 -0.243203
C166  C     C_R   0.167608 0.669525 0.396985 -0.242546
C167  C     C_R   0.329322 0.171312 0.606640 -0.244904
C168  C     C_R   0.669947 0.829464 0.394587 -0.232054
C169  C     C_R   0.329094 0.893531 0.671326 -0.262550
C170  C     C_R   0.667682 0.103700 0.330817 -0.252696
C171  C     C_R   0.670936 0.893522 0.671319 -0.265727
C172  C     C_R   0.328790 0.106794 0.329443 -0.251318
C173  C     C_R   0.668870 0.894804 0.330040 -0.264505
C174  C     C_R   0.329395 0.105409 0.670126 -0.251066
C175  C     C_R   0.328681 0.893103 0.329465 -0.250565
C176  C     C_R   0.668291 0.103462 0.668155 -0.268433
C177  C     C_R   0.102961 0.668187 0.667921 -0.267292
C178  C     C_R   0.894039 0.329475 0.329602 -0.266600
C179  C     C_R   0.104504 0.669340 0.330307 -0.252590
C180  C     C_R   0.894035 0.329311 0.670749 -0.261957
C181  C     C_R   0.106044 0.329428 0.329506 -0.266773
C182  C     C_R   0.894001 0.670683 0.670792 -0.265766
C183  C     C_R   0.104927 0.329497 0.669785 -0.250268
C184  C     C_R   0.893985 0.670575 0.329544 -0.263711
C185  C     C_R   0.330349 0.668830 0.895566 -0.263566
C186  C     C_R   0.670577 0.329527 0.105588 -0.264937
C187  C     C_R   0.329520 0.328433 0.893466 -0.250294
C188  C     C_R   0.668709 0.669729 0.104080 -0.266300
C189  C     C_R   0.670569 0.329536 0.894430 -0.265142
C190  C     C_R   0.330850 0.667704 0.103131 -0.252360
C191  C     C_R   0.670612 0.670538 0.894355 -0.265861
C192  C     C_R   0.329602 0.328484 0.106519 -0.250271
C193  C     C_R   0.809642 0.874399 0.125433 0.218875
C194  C     C_R   0.190349 0.125597 0.874571 0.218363
C195  C     C_R   0.126111 0.874281 0.190747 0.211419
C196  C     C_R   0.873869 0.125748 0.809225 0.211912
C197  C     C_R   0.190331 0.874416 0.874583 0.219441
C198  C     C_R   0.809659 0.125589 0.125421 0.218730
C199  C     C_R   0.874021 0.874459 0.809454 0.211986
C200  C     C_R   0.125972 0.125535 0.190540 0.211640
C201  C     C_R   0.809777 0.125488 0.874653 0.218705
C202  C     C_R   0.190248 0.874492 0.125364 0.218328
C203  C     C_R   0.126012 0.125606 0.809387 0.211853
C204  C     C_R   0.873999 0.874408 0.190598 0.211942
C205  C     C_R   0.190463 0.125690 0.125499 0.218819
C206  C     C_R   0.809529 0.874298 0.874493 0.219633
C207  C     C_R   0.873910 0.125678 0.190701 0.211750
C208  C     C_R   0.126105 0.874304 0.809280 0.211780
C209  C     C_R   0.125372 0.190038 0.874271 0.223183
C210  C     C_R   0.874626 0.809964 0.125727 0.223795
C211  C     C_R   0.125342 0.810020 0.125695 0.223486
C212  C     C_R   0.874649 0.189993 0.874296 0.223219
C213  C     C_R   0.874624 0.809965 0.874282 0.223693
C214  C     C_R   0.125375 0.190030 0.125714 0.223895
C215  C     C_R   0.874639 0.189996 0.125698 0.223527
C216  C     C_R   0.125365 0.809997 0.874296 0.223345
C217  C     C_R   0.310353 0.373954 0.125711 0.220202
C218  C     C_R   0.690422 0.625635 0.874518 0.220688
C219  C     C_R   0.122391 0.375549 0.688659 0.227720
C220  C     C_R   0.874173 0.625080 0.310477 0.220758
C221  C     C_R   0.690391 0.374422 0.874603 0.220030
C222  C     C_R   0.312434 0.621857 0.123329 0.223403
C223  C     C_R   0.874328 0.375112 0.310694 0.221592
C224  C     C_R   0.123268 0.623067 0.687848 0.225190
C225  C     C_R   0.312277 0.622283 0.876347 0.228071
C226  C     C_R   0.690220 0.374550 0.125311 0.220443
C227  C     C_R   0.125419 0.624608 0.310835 0.216227
C228  C     C_R   0.874325 0.374298 0.690460 0.217575
C229  C     C_R   0.689554 0.625661 0.124974 0.218725
C230  C     C_R   0.310090 0.373743 0.874111 0.219969
C231  C     C_R   0.874302 0.625677 0.690515 0.220311
C232  C     C_R   0.125873 0.374884 0.310423 0.223375
C233  C     C_R   0.622840 0.123693 0.687878 0.225883
C234  C     C_R   0.375019 0.874864 0.310924 0.218864
C235  C     C_R   0.625329 0.689951 0.874322 0.221577
C236  C     C_R   0.374965 0.309499 0.125892 0.210973
C237  C     C_R   0.621871 0.875860 0.312385 0.228489
C238  C     C_R   0.375628 0.122971 0.689003 0.226874
C239  C     C_R   0.625422 0.309973 0.125725 0.221188
C240  C     C_R   0.374874 0.689226 0.875079 0.211303
C241  C     C_R   0.373749 0.873279 0.691156 0.221056
C242  C     C_R   0.621370 0.123745 0.312759 0.223736
C243  C     C_R   0.374879 0.309445 0.874069 0.210239
C244  C     C_R   0.622113 0.687956 0.123382 0.230269
C245  C     C_R   0.374408 0.125948 0.310136 0.220109
C246  C     C_R   0.626255 0.873275 0.691158 0.222052
C247  C     C_R   0.376654 0.687240 0.121099 0.221647
C248  C     C_R   0.625255 0.310167 0.874421 0.220737
C249  C     C_R   0.874340 0.690175 0.374749 0.213042
C250  C     C_R   0.125889 0.309758 0.625186 0.214125
C251  C     C_R   0.309107 0.873245 0.374449 0.210240
C252  C     C_R   0.687537 0.123621 0.622153 0.229127
C253  C     C_R   0.125659 0.309835 0.374738 0.214535
C254  C     C_R   0.873931 0.690157 0.625526 0.220932
C255  C     C_R   0.687588 0.121973 0.376592 0.220194
C256  C     C_R   0.309634 0.873545 0.625719 0.218239
C257  C     C_R   0.122995 0.687103 0.621687 0.228627
C258  C     C_R   0.874305 0.309735 0.374718 0.215335
C259  C     C_R   0.690381 0.873532 0.625708 0.219778
C260  C     C_R   0.309468 0.126426 0.374686 0.210529
C261  C     C_R   0.873964 0.309842 0.625486 0.219351
C262  C     C_R   0.121725 0.688060 0.376765 0.222866
C263  C     C_R   0.309380 0.126427 0.625613 0.215269
C264  C     C_R   0.689634 0.874161 0.374430 0.210836
C265  C     C_R   0.809461 0.374507 0.625829 0.211270
C266  C     C_R   0.187361 0.624099 0.378674 0.221546
C267  C     C_R   0.626216 0.374158 0.190826 0.209769
C268  C     C_R   0.377322 0.624017 0.811210 0.220044
C269  C     C_R   0.188712 0.375689 0.377521 0.219269
C270  C     C_R   0.809225 0.625719 0.626033 0.209502
C271  C     C_R   0.376666 0.375412 0.810791 0.225006
C272  C     C_R   0.625348 0.625313 0.190196 0.207559
C273  C     C_R   0.811251 0.624355 0.377513 0.220908
C274  C     C_R   0.189593 0.375072 0.626022 0.212741
C275  C     C_R   0.626304 0.625907 0.809079 0.209040
C276  C     C_R   0.377267 0.375847 0.188711 0.224834
C277  C     C_R   0.190006 0.624866 0.625034 0.206734
C278  C     C_R   0.811173 0.375582 0.377487 0.219518
C279  C     C_R   0.378481 0.623806 0.187362 0.220141
C280  C     C_R   0.626000 0.374497 0.809487 0.209350
C281  C     C_R   0.623262 0.187255 0.378970 0.219822
C282  C     C_R   0.374649 0.809659 0.625984 0.205855
C283  C     C_R   0.625360 0.809681 0.625976 0.204669
C284  C     C_R   0.376382 0.188419 0.377448 0.223954
C285  C     C_R   0.376348 0.811513 0.377400 0.224472
C286  C     C_R   0.624920 0.190181 0.625276 0.204698
C287  C     C_R   0.375119 0.189655 0.626185 0.211138
C288  C     C_R   0.623418 0.811469 0.377845 0.219069
N1    N     N_R   0.780817 0.907556 0.093933 0.168341
O193  O     O_R   0.798800 0.951857 0.084897 -0.232268
O194  O     O_R   0.733357 0.899708 0.085673 -0.269968
N2    N     N_R   0.219010 0.092362 0.906137 0.168664
O195  O     O_R   0.200913 0.048090 0.915072 -0.232084
O196  O     O_R   0.266436 0.100142 0.914653 -0.269925
N3    N     N_R   0.094795 0.907414 0.219611 0.170610
O197  O     O_R   0.085741 0.951760 0.201723 -0.229726
O198  O     O_R   0.086488 0.899384 0.267280 -0.271148
N4    N     N_R   0.905158 0.092647 0.780293 0.170180
O199  O     O_R   0.914271 0.048296 0.798141 -0.230088
O200  O     O_R   0.913351 0.100701 0.732607 -0.269908
N5    N     N_R   0.218902 0.907700 0.906168 0.168428
O201  O     O_R   0.200757 0.951980 0.914970 -0.232803
O202  O     O_R   0.266302 0.899916 0.914857 -0.266755
N6    N     N_R   0.780926 0.092384 0.093899 0.168611
O203  O     O_R   0.798962 0.048079 0.084987 -0.232432
O204  O     O_R   0.733489 0.100233 0.085471 -0.268919
N7    N     N_R   0.905548 0.907926 0.781242 0.170067
O205  O     O_R   0.914016 0.952232 0.799499 -0.231529
O206  O     O_R   0.914732 0.900182 0.733685 -0.267782
N8    N     N_R   0.094443 0.092073 0.218753 0.170295
O207  O     O_R   0.085960 0.047774 0.200491 -0.231123
O208  O     O_R   0.085251 0.099819 0.266308 -0.268177
N9    N     N_R   0.781560 0.092011 0.906359 0.168550
O209  O     O_R   0.799898 0.047726 0.914832 -0.233279
O210  O     O_R   0.734230 0.099660 0.915559 -0.268439
N10   N     N_R   0.218710 0.907847 0.093749 0.168908
O211  O     O_R   0.200526 0.952162 0.085095 -0.232603
O212  O     O_R   0.266097 0.900106 0.084937 -0.271410
N11   N     N_R   0.094568 0.092257 0.780936 0.170427
O213  O     O_R   0.085938 0.047921 0.799042 -0.230815
O214  O     O_R   0.085700 0.100124 0.733341 -0.268449
N12   N     N_R   0.905451 0.907761 0.219033 0.170178
O215  O     O_R   0.914072 0.952093 0.200915 -0.231102
O216  O     O_R   0.914356 0.899898 0.266621 -0.268617
N13   N     N_R   0.219762 0.092781 0.094170 0.168656
O217  O     O_R   0.202057 0.048458 0.084739 -0.231569
O218  O     O_R   0.267315 0.100809 0.086618 -0.269842
N14   N     N_R   0.780321 0.907248 0.905864 0.168155
O219  O     O_R   0.798100 0.951546 0.915258 -0.232034
O220  O     O_R   0.732781 0.899264 0.913557 -0.267318
N15   N     N_R   0.905288 0.092448 0.219374 0.170134
O221  O     O_R   0.914224 0.048130 0.201364 -0.230326
O222  O     O_R   0.913823 0.100375 0.267021 -0.270193
N16   N     N_R   0.094746 0.907515 0.780561 0.170160
O223  O     O_R   0.085783 0.951840 0.798540 -0.230222
O224  O     O_R   0.086284 0.899571 0.732904 -0.270000
N17   N     N_R   0.092427 0.219425 0.905481 0.168560
O225  O     O_R   0.048493 0.201358 0.916195 -0.237479
O226  O     O_R   0.100128 0.266956 0.911648 -0.272379
N18   N     N_R   0.907549 0.780535 0.094534 0.168000
O227  O     O_R   0.951488 0.798571 0.083790 -0.237826
O228  O     O_R   0.899830 0.732998 0.088432 -0.269496
N19   N     N_R   0.092268 0.780865 0.094414 0.168433
O229  O     O_R   0.048325 0.799085 0.083945 -0.238221
O230  O     O_R   0.099893 0.733362 0.087924 -0.269917
N20   N     N_R   0.907722 0.219150 0.905575 0.168356
O231  O     O_R   0.951662 0.200927 0.916054 -0.238178
O232  O     O_R   0.900097 0.266653 0.912065 -0.270329
N21   N     N_R   0.907584 0.780609 0.905514 0.168005
O233  O     O_R   0.951521 0.798687 0.916175 -0.238062
O234  O     O_R   0.899909 0.733069 0.911695 -0.269639
N22   N     N_R   0.092435 0.219427 0.094499 0.168353
O235  O     O_R   0.048491 0.201380 0.083816 -0.237930
O236  O     O_R   0.100128 0.266972 0.088378 -0.270315
N23   N     N_R   0.907693 0.219177 0.094419 0.168240
O237  O     O_R   0.951629 0.200971 0.083918 -0.238306
O238  O     O_R   0.900081 0.266703 0.088017 -0.270034
N24   N     N_R   0.092307 0.780826 0.905579 0.168239
O239  O     O_R   0.048373 0.799039 0.916077 -0.238270
O240  O     O_R   0.099915 0.733301 0.911999 -0.270950
N25   N     N_R   0.280805 0.404510 0.092455 0.177850
O241  O     O_R   0.298782 0.414508 0.048329 -0.230120
O242  O     O_R   0.232754 0.410074 0.100091 -0.267934
N26   N     N_R   0.720023 0.592883 0.905725 0.168035
O243  O     O_R   0.702555 0.548489 0.915322 -0.231485
O244  O     O_R   0.767625 0.601065 0.912838 -0.271033
N27   N     N_R   0.087628 0.406014 0.717404 0.183498
O245  O     O_R   0.041201 0.409403 0.702509 -0.257854
O246  O     O_R   0.097740 0.418362 0.763751 -0.262362
N28   N     N_R   0.905145 0.592629 0.280236 0.169729
O247  O     O_R   0.914957 0.548252 0.297271 -0.238026
O248  O     O_R   0.912210 0.601499 0.232667 -0.271971
N29   N     N_R   0.718739 0.407841 0.906256 0.169118
O249  O     O_R   0.700460 0.452127 0.914863 -0.232435
O250  O     O_R   0.766112 0.400160 0.915241 -0.268948
N30   N     N_R   0.283019 0.587690 0.092884 0.172168
O251  O     O_R   0.297748 0.541565 0.088627 -0.267098
O252  O     O_R   0.236889 0.598305 0.080413 -0.265148
N31   N     N_R   0.905710 0.408160 0.281575 0.169096
O253  O     O_R   0.914548 0.452470 0.299302 -0.241208
O254  O     O_R   0.914408 0.399773 0.234189 -0.270217
N32   N     N_R   0.092573 0.588492 0.716573 0.171264
O255  O     O_R   0.089152 0.542388 0.701456 -0.261665
O256  O     O_R   0.080033 0.598364 0.762881 -0.267113
N33   N     N_R   0.283056 0.588301 0.907250 0.171133
O257  O     O_R   0.297878 0.542213 0.911687 -0.266760
O258  O     O_R   0.236851 0.598695 0.919326 -0.266244
N34   N     N_R   0.718458 0.408015 0.093613 0.168652
O259  O     O_R   0.700156 0.452336 0.085188 -0.233002
O260  O     O_R   0.765782 0.400349 0.084404 -0.268376
N35   N     N_R   0.095187 0.592271 0.279774 0.170792
O261  O     O_R   0.085410 0.547637 0.296220 -0.239281
O262  O     O_R   0.088881 0.601632 0.232150 -0.273631
N36   N     N_R   0.905852 0.407590 0.719035 0.179970
O263  O     O_R   0.914652 0.451840 0.700790 -0.222507
O264  O     O_R   0.914436 0.399884 0.766569 -0.267570
N37   N     N_R   0.719384 0.592832 0.094092 0.167863
O265  O     O_R   0.701947 0.548426 0.084645 -0.231750
O266  O     O_R   0.767058 0.600964 0.087426 -0.270817
N38   N     N_R   0.279890 0.404096 0.906959 0.177496
O267  O     O_R   0.297455 0.414802 0.951069 -0.228402
O268  O     O_R   0.231798 0.408831 0.899008 -0.270245
N39   N     N_R   0.905672 0.592553 0.719527 0.168687
O269  O     O_R   0.914448 0.548111 0.701761 -0.232371
O270  O     O_R   0.914038 0.600625 0.767035 -0.270005
N40   N     N_R   0.095270 0.406880 0.279366 0.168690
O271  O     O_R   0.084792 0.451338 0.295845 -0.239686
O272  O     O_R   0.089644 0.397736 0.231646 -0.271637
N41   N     N_R   0.587931 0.093408 0.716546 0.170530
O273  O     O_R   0.541453 0.090579 0.701637 -0.262536
O274  O     O_R   0.597792 0.081314 0.763018 -0.269485
N42   N     N_R   0.406726 0.909388 0.283790 0.180838
O275  O     O_R   0.413305 0.953594 0.302791 -0.235171
O276  O     O_R   0.418102 0.902029 0.236676 -0.261824
N43   N     N_R   0.591997 0.718649 0.905801 0.168048
O277  O     O_R   0.548043 0.700161 0.915750 -0.235706
O278  O     O_R   0.599447 0.766023 0.913152 -0.267447
N44   N     N_R   0.407964 0.280964 0.094178 0.170010
O279  O     O_R   0.451912 0.299451 0.083625 -0.230798
O280  O     O_R   0.400674 0.233271 0.087184 -0.269118
N45   N     N_R   0.587535 0.906291 0.282962 0.172203
O281  O     O_R   0.540927 0.909761 0.297312 -0.266480
O282  O     O_R   0.598159 0.918253 0.236754 -0.268286
N46   N     N_R   0.406545 0.088524 0.717646 0.184166
O283  O     O_R   0.410828 0.042642 0.702347 -0.260326
O284  O     O_R   0.419032 0.098517 0.764044 -0.263568
N47   N     N_R   0.592324 0.280882 0.094413 0.168538
O285  O     O_R   0.548423 0.299202 0.083908 -0.234020
O286  O     O_R   0.599885 0.233384 0.087834 -0.271506
N48   N     N_R   0.407946 0.718105 0.906434 0.178772
O287  O     O_R   0.451725 0.699515 0.917135 -0.222594
O288  O     O_R   0.400882 0.765883 0.912483 -0.265448
N49   N     N_R   0.404139 0.902126 0.725277 0.175988
O289  O     O_R   0.449543 0.914579 0.711136 -0.221678
O290  O     O_R   0.394112 0.902349 0.773348 -0.280494
N50   N     N_R   0.586741 0.093717 0.283288 0.173455
O291  O     O_R   0.540075 0.090773 0.297517 -0.268520
O292  O     O_R   0.597560 0.081018 0.237264 -0.267807
N51   N     N_R   0.407514 0.280182 0.905496 0.169929
O293  O     O_R   0.451520 0.298186 0.916581 -0.229404
O294  O     O_R   0.399904 0.232398 0.911554 -0.272104
N52   N     N_R   0.587529 0.716561 0.092488 0.170697
O295  O     O_R   0.541213 0.701549 0.088696 -0.264740
O296  O     O_R   0.597446 0.762617 0.080547 -0.266772
N53   N     N_R   0.404678 0.093866 0.278709 0.179173
O297  O     O_R   0.415800 0.049667 0.295406 -0.223789
O298  O     O_R   0.409249 0.102757 0.230701 -0.272490
N54   N     N_R   0.595529 0.902400 0.724769 0.167272
O299  O     O_R   0.550203 0.914552 0.710136 -0.233389
O300  O     O_R   0.605254 0.903260 0.772868 -0.278858
N55   N     N_R   0.406744 0.716781 0.086792 0.183392
O301  O     O_R   0.410981 0.702225 0.040162 -0.258461
O302  O     O_R   0.417322 0.763146 0.097143 -0.264292
N56   N     N_R   0.591493 0.282394 0.906257 0.168877
O303  O     O_R   0.547812 0.301689 0.915925 -0.235720
O304  O     O_R   0.598416 0.235049 0.914638 -0.269606
N57   N     N_R   0.905577 0.719613 0.407476 0.179144
O305  O     O_R   0.916878 0.701441 0.451348 -0.222349
O306  O     O_R   0.910574 0.767458 0.400156 -0.269392
N58   N     N_R   0.095017 0.280510 0.591886 0.170750
O307  O     O_R   0.084397 0.298954 0.547927 -0.232980
O308  O     O_R   0.088634 0.232920 0.599370 -0.271752
N59   N     N_R   0.279830 0.904267 0.407361 0.171153
O309  O     O_R   0.297896 0.914791 0.451487 -0.230628
O310  O     O_R   0.231750 0.910456 0.399673 -0.274029
N60   N     N_R   0.716589 0.093525 0.587322 0.171131
O311  O     O_R   0.702068 0.090601 0.540682 -0.265307
O312  O     O_R   0.762969 0.081819 0.597520 -0.268170
N61   N     N_R   0.094237 0.280824 0.407653 0.168687
O313  O     O_R   0.083167 0.299302 0.451437 -0.232837
O314  O     O_R   0.088486 0.233032 0.400488 -0.271406
N62   N     N_R   0.905010 0.719581 0.592521 0.168243
O315  O     O_R   0.915855 0.701417 0.548573 -0.235637
O316  O     O_R   0.910605 0.767218 0.600035 -0.271293
N63   N     N_R   0.717375 0.088052 0.406914 0.184233
O317  O     O_R   0.702633 0.041998 0.411817 -0.258842
O318  O     O_R   0.763822 0.098613 0.418171 -0.263928
N64   N     N_R   0.280710 0.904727 0.592356 0.170127
O319  O     O_R   0.299145 0.914502 0.548298 -0.234519
O320  O     O_R   0.232872 0.911487 0.599858 -0.273753
N65   N     N_R   0.092447 0.715406 0.586610 0.170779
O321  O     O_R   0.089827 0.700601 0.540025 -0.265640
O322  O     O_R   0.079864 0.761363 0.596500 -0.266077
N66   N     N_R   0.905519 0.280234 0.407459 0.168839
O323  O     O_R   0.916593 0.298258 0.451445 -0.232825
O324  O     O_R   0.910801 0.232453 0.399975 -0.272076
N67   N     N_R   0.719328 0.904694 0.592327 0.168760
O325  O     O_R   0.700970 0.914310 0.548182 -0.237041
O326  O     O_R   0.767105 0.911553 0.599899 -0.271521
N68   N     N_R   0.280630 0.095259 0.407774 0.170845
O327  O     O_R   0.298974 0.085009 0.451843 -0.231311
O328  O     O_R   0.232523 0.088760 0.400351 -0.273103
N69   N     N_R   0.905151 0.280624 0.592381 0.169727
O329  O     O_R   0.915871 0.298970 0.548480 -0.233738
O330  O     O_R   0.911094 0.233014 0.599805 -0.272689
N70   N     N_R   0.087257 0.717218 0.407115 0.184660
O331  O     O_R   0.040929 0.702244 0.411459 -0.257107
O332  O     O_R   0.097328 0.763509 0.418268 -0.263179
N71   N     N_R   0.279611 0.095944 0.592445 0.171113
O333  O     O_R   0.297621 0.085566 0.548301 -0.232797
O334  O     O_R   0.231736 0.089763 0.600347 -0.274054
N72   N     N_R   0.719513 0.904755 0.407213 0.178219
O335  O     O_R   0.701765 0.915459 0.451288 -0.223744
O336  O     O_R   0.767703 0.909650 0.399471 -0.271377
N73   N     N_R   0.781358 0.407906 0.594148 0.180962
O337  O     O_R   0.799835 0.452044 0.585086 -0.221242
O338  O     O_R   0.733697 0.400471 0.585615 -0.267508
N74   N     N_R   0.216647 0.593874 0.413172 0.172340
O339  O     O_R   0.202338 0.590539 0.459932 -0.261968
O340  O     O_R   0.262951 0.582135 0.402595 -0.269027
N75   N     N_R   0.595095 0.406985 0.220202 0.180250
O341  O     O_R   0.585361 0.451271 0.202525 -0.220242
O342  O     O_R   0.587902 0.398877 0.268060 -0.270021
N76   N     N_R   0.412221 0.593840 0.782414 0.172711
O343  O     O_R   0.458722 0.590670 0.797403 -0.258436
O344  O     O_R   0.402248 0.581565 0.736010 -0.269497
N77   N     N_R   0.216764 0.406222 0.412621 0.171911
O345  O     O_R   0.201636 0.409056 0.459199 -0.258537
O346  O     O_R   0.263150 0.418746 0.402976 -0.268578
N78   N     N_R   0.779794 0.593015 0.594856 0.180261
O347  O     O_R   0.797442 0.548772 0.584751 -0.219376
O348  O     O_R   0.731945 0.601066 0.588075 -0.270399
N79   N     N_R   0.410608 0.405677 0.780905 0.170906
O349  O     O_R   0.456981 0.410640 0.795827 -0.256714
O350  O     O_R   0.400566 0.414940 0.733720 -0.270217
N80   N     N_R   0.594395 0.591920 0.219139 0.180949
O351  O     O_R   0.585628 0.547550 0.201115 -0.222621
O352  O     O_R   0.586021 0.599866 0.266759 -0.267705
N81   N     N_R   0.783274 0.593777 0.412624 0.172725
O353  O     O_R   0.798451 0.590939 0.459208 -0.258005
O354  O     O_R   0.736911 0.581165 0.403023 -0.268928
N82   N     N_R   0.219407 0.407535 0.594895 0.180215
O355  O     O_R   0.201970 0.451716 0.584557 -0.224546
O356  O     O_R   0.267116 0.399068 0.588194 -0.268633
N83   N     N_R   0.595528 0.593530 0.778811 0.180087
O357  O     O_R   0.585175 0.549135 0.795897 -0.219074
O358  O     O_R   0.589500 0.602058 0.730818 -0.273095
N84   N     N_R   0.412415 0.406698 0.216598 0.171696
O359  O     O_R   0.458891 0.409096 0.201450 -0.259972
O360  O     O_R   0.402702 0.420389 0.262573 -0.266526
N85   N     N_R   0.219839 0.592116 0.594148 0.181705
O361  O     O_R   0.202370 0.547863 0.584173 -0.222900
O362  O     O_R   0.267532 0.600524 0.587064 -0.268935
N86   N     N_R   0.783221 0.406175 0.412616 0.172646
O363  O     O_R   0.798418 0.408992 0.459186 -0.257831
O364  O     O_R   0.736865 0.418877 0.403020 -0.268188
N87   N     N_R   0.412966 0.593850 0.217070 0.173108
O365  O     O_R   0.459610 0.590533 0.202846 -0.262747
O366  O     O_R   0.402141 0.581797 0.263278 -0.267730
N88   N     N_R   0.594208 0.408290 0.781930 0.180813
O367  O     O_R   0.585987 0.452473 0.800703 -0.224109
O368  O     O_R   0.584571 0.400969 0.734341 -0.266465
N89   N     N_R   0.593101 0.216594 0.413450 0.172357
O369  O     O_R   0.589329 0.202095 0.460139 -0.261277
O370  O     O_R   0.581723 0.262758 0.403031 -0.268506
N90   N     N_R   0.408454 0.782561 0.593832 0.180485
O371  O     O_R   0.452040 0.802332 0.583838 -0.220393
O372  O     O_R   0.402064 0.734992 0.585339 -0.266631
N91   N     N_R   0.591390 0.782975 0.593702 0.180631
O373  O     O_R   0.547871 0.803039 0.583929 -0.221536
O374  O     O_R   0.597584 0.735453 0.584787 -0.263742
N92   N     N_R   0.407263 0.216388 0.412466 0.171461
O375  O     O_R   0.410473 0.201046 0.458898 -0.257774
O376  O     O_R   0.419229 0.262599 0.403077 -0.269665
N93   N     N_R   0.407167 0.783473 0.412406 0.171243
O377  O     O_R   0.410485 0.798854 0.458823 -0.256168
O378  O     O_R   0.418969 0.737204 0.403058 -0.269041
N94   N     N_R   0.592146 0.219813 0.594337 0.180951
O379  O     O_R   0.548159 0.201845 0.583163 -0.220889
O380  O     O_R   0.599772 0.267632 0.588752 -0.270033
N95   N     N_R   0.407793 0.218877 0.594876 0.179368
O381  O     O_R   0.451705 0.200716 0.583680 -0.222973
O382  O     O_R   0.400228 0.266636 0.589001 -0.269950
N96   N     N_R   0.592939 0.783411 0.413027 0.172322
O383  O     O_R   0.589801 0.798761 0.459529 -0.255722
O384  O     O_R   0.580678 0.737190 0.403591 -0.267820

loop_
_geom_bond_atom_site_label_1
_geom_bond_atom_site_label_2
_geom_bond_distance
_ccdc_geom_bond_type
C60   C152  1.489604 S    
C81   C108  1.488080 S    
N60   O312  1.301359 A    
O68   C61   1.283797 A    
O174  Cu4   1.985881 S    
O50   Cu26  1.984734 S    
Cu29  Cu42  2.622590 S    
C183  C250  1.411399 A    
N9    O209  1.300228 A    
C272  N80   1.437552 S    
O79   C70   1.277327 A    
Cu27  Cu40  2.626017 S    
N70   O331  1.301242 A    
N49   O289  1.308181 A    
C193  N1    1.439817 S    
N21   O233  1.296456 A    
O189  Cu11  1.988759 S    
O19   C95   1.284591 A    
C152  C248  1.410623 A    
C113  C212  1.415595 A    
O24   C94   1.284455 A    
C17   C174  1.487325 S    
C86   C110  1.488601 S    
N42   O276  1.302066 A    
N25   O242  1.302870 A    
C203  N11   1.437643 S    
O84   Cu29  1.986931 S    
C148  C244  1.412836 A    
C120  C193  1.412938 A    
O58   Cu25  1.985225 S    
N64   O320  1.300786 A    
C38   C142  1.492891 S    
O156  Cu9   1.984730 S    
O113  C49   1.289863 A    
O36   C77   1.287713 A    
O28   C92   1.284505 A    
O162  Cu8   1.985884 S    
N14   O219  1.299960 A    
N83   O358  1.304399 A    
N92   O375  1.302075 A    
O62   Cu29  1.984980 S    
O119  C51   1.275022 A    
C287  N95   1.434472 S    
C110  C207  1.409209 A    
O30   C87   1.285861 A    
O17   C84   1.285078 A    
O109  C29   1.282682 A    
C258  N66   1.437706 S    
C146  C281  1.425627 A    
O129  C65   1.292378 A    
O56   C49   1.283040 A    
C10   C179  1.492752 S    
N87   O365  1.300164 A    
N18   O227  1.296538 A    
O178  Cu16  1.989387 S    
C178  C258  1.410436 A    
Cu15  Cu18  2.616146 S    
O5    C85   1.281370 A    
C177  C224  1.423698 A    
O87   C34   1.278971 A    
O192  Cu6   1.987557 S    
O80   Cu33  1.988419 S    
O155  Cu10  1.984731 S    
O112  C28   1.283028 A    
C241  N49   1.438942 S    
O58   C63   1.281555 A    
C83   C115  1.485224 S    
C128  C277  1.404913 A    
N94   O380  1.303291 A    
O108  Cu43  1.984730 S    
C219  N27   1.449632 S    
O140  Cu37  1.987342 S    
N29   O250  1.298993 A    
N85   O361  1.298948 A    
O65   C36   1.284592 A    
N48   O288  1.301386 A    
O166  C3    1.299505 A    
C54   C158  1.485541 S    
O188  C1    1.290055 A    
C175  C251  1.407062 A    
O151  Cu9   1.984462 S    
N30   O251  1.299072 A    
N78   O348  1.303515 A    
O50   C67   1.281535 A    
C265  N73   1.436503 S    
C165  C265  1.408901 A    
C87   C114  1.486114 S    
O125  C45   1.282012 A    
O52   Cu28  1.984364 S    
O97   C33   1.279094 A    
O7    C83   1.286930 A    
O182  Cu11  1.989110 S    
C105  C200  1.409255 A    
C42   C166  1.494705 S    
O167  Cu17  1.988791 S    
C163  C283  1.405862 A    
O13   Cu6   1.984978 S    
O10   Cu1   1.985225 S    
C200  N8    1.437323 S    
Cu2   Cu23  2.623217 S    
O124  Cu47  1.987933 S    
N24   O239  1.296458 A    
C58   C134  1.494722 S    
O130  C66   1.280371 A    
O128  Cu45  1.988419 S    
C243  N51   1.435872 S    
O131  C71   1.286096 A    
C170  C255  1.413180 A    
O3    Cu3   1.984362 S    
O93   C56   1.284643 A    
O117  C53   1.282132 A    
C14   C182  1.487300 S    
O94   C55   1.277468 A    
O1    Cu1   1.984736 S    
N95   O381  1.299529 A    
Cu26  Cu37  2.623217 S    
N80   O351  1.300721 A    
Cu5   Cu19  2.622590 S    
C189  C248  1.415842 A    
C115  C206  1.412549 A    
N63   O318  1.302499 A    
O144  C60   1.288357 A    
C240  N48   1.436868 S    
C176  C233  1.424364 A    
O74   C31   1.299083 A    
C185  C225  1.428941 A    
C115  C213  1.415588 A    
O19   Cu11  1.988323 S    
N12   O215  1.299802 A    
C256  N64   1.439250 S    
C134  C230  1.417370 A    
O17   Cu9   1.985883 S    
C126  C279  1.426431 A    
O42   Cu17  1.988466 S    
O148  Cu13  1.984364 S    
O175  C17   1.288373 A    
O169  Cu8   1.986253 S    
O15   Cu4   1.984062 S    
C79   C119  1.485886 S    
O59   C42   1.298343 A    
C172  C260  1.408237 A    
O102  Cu42  1.985440 S    
C207  N15   1.437134 S    
N77   O346  1.304256 A    
N37   O265  1.299579 A    
C154  C250  1.404417 A    
C214  N22   1.439507 S    
N39   O269  1.299841 A    
O183  Cu1   1.986691 S    
C114  C202  1.413276 A    
C149  C284  1.421300 A    
O110  C30   1.288986 A    
N44   O279  1.300186 A    
C251  N59   1.434741 S    
C99   C195  1.402918 A    
O4    Cu4   1.984364 S    
N90   O371  1.301948 A    
C111  C211  1.410788 A    
C138  C234  1.421692 A    
O23   Cu15  1.988791 S    
C191  C235  1.415370 A    
C192  C217  1.414342 A    
Cu11  Cu21  2.616121 S    
C96   C97   1.491340 S    
O161  C12   1.283231 A    
O99   Cu39  1.984362 S    
C82   C107  1.488022 S    
O155  C7    1.286869 A    
C171  C246  1.408616 A    
C245  N53   1.442505 S    
O39   Cu23  1.986691 S    
C98   C203  1.402710 A    
C157  C269  1.401906 A    
O105  Cu38  1.985227 S    
C130  C226  1.407994 A    
O75   C58   1.283453 A    
N79   O349  1.302670 A    
C235  N43   1.440093 S    
C223  N31   1.440937 S    
C124  C220  1.416822 A    
O16   Cu3   1.984064 S    
N45   O281  1.300514 A    
N6    O203  1.299905 A    
C188  C244  1.427161 A    
O190  Cu12  1.988757 S    
C20   C176  1.505113 S    
C279  N87   1.450832 S    
N52   O296  1.298917 A    
O32   Cu11  1.988419 S    
Cu35  Cu48  2.616146 S    
C78   C106  1.488513 S    
O147  C15   1.286940 A    
N74   O340  1.301846 A    
C114  C211  1.415627 A    
O127  C43   1.279579 A    
O68   Cu34  1.988325 S    
C268  N76   1.448348 S    
Cu4   Cu14  2.626017 S    
O92   Cu25  1.987342 S    
O81   C52   1.279882 A    
C149  C245  1.420621 A    
C89   C102  1.491309 S    
O150  C14   1.285576 A    
O59   Cu32  1.984731 S    
O111  C27   1.290856 A    
N55   O301  1.302868 A    
C147  C243  1.400536 A    
N2    O195  1.300064 A    
O127  Cu46  1.988417 S    
N62   O316  1.298134 A    
C249  N57   1.437502 S    
O22   C75   1.285551 A    
C102  C198  1.407602 A    
C224  N32   1.450475 S    
O60   C41   1.281755 A    
C179  C262  1.408111 A    
C189  C221  1.412924 A    
C119  C209  1.415444 A    
C238  N46   1.450069 S    
N81   O354  1.304092 A    
N25   O241  1.293423 A    
C118  C215  1.415680 A    
O168  C22   1.285894 A    
N33   O258  1.300381 A    
C274  N82   1.437409 S    
C140  C236  1.400059 A    
C135  C231  1.409018 A    
C46   C154  1.490714 S    
O153  C1    1.283359 A    
C178  C223  1.419771 A    
C152  C280  1.409042 A    
O69   Cu28  1.985490 S    
C50   C162  1.485597 S    
O51   C46   1.279320 A    
O137  C57   1.282250 A    
C116  C205  1.412582 A    
O149  Cu20  1.985438 S    
O49   C68   1.280381 A    
N38   O267  1.293205 A    
N51   O294  1.303798 A    
C131  C266  1.425817 A    
C56   C132  1.490589 S    
N13   O217  1.300031 A    
C101  C208  1.403054 A    
C113  C201  1.413318 A    
C105  C214  1.410737 A    
C70   C126  1.504048 S    
C102  C207  1.403106 A    
C144  C268  1.404428 A    
C129  C268  1.418328 A    
N20   O232  1.297898 A    
O84   C29   1.286962 A    
C169  C241  1.407613 A    
Cu32  Cu43  2.624969 S    
O8    C84   1.286923 A    
C211  N19   1.439744 S    
N67   O326  1.299999 A    
N8    O207  1.299995 A    
O39   C82   1.287746 A    
N57   O306  1.300978 A    
O57   Cu26  1.985227 S    
C93   C99   1.491653 S    
C254  N62   1.439135 S    
O164  C24   1.285594 A    
O4    C88   1.287308 A    
N34   O259  1.300535 A    
O22   Cu14  1.985489 S    
C100  C196  1.402847 A    
N81   O353  1.303348 A    
C255  N63   1.448517 S    
O6    C86   1.281385 A    
O11   Cu8   1.984731 S    
O98   C34   1.298641 A    
C138  C285  1.421339 A    
C5    C177  1.503277 S    
O98   Cu38  1.984734 S    
O99   C39   1.286582 A    
C172  C245  1.413719 A    
C260  N68   1.433683 S    
O54   Cu30  1.985440 S    
Cu7   Cu10  2.624969 S    
N80   O352  1.301391 A    
O138  C58   1.288401 A    
O57   C64   1.285810 A    
Cu6   Cu20  2.622590 S    
C190  C247  1.409323 A    
C92   C104  1.490980 S    
C213  N21   1.439508 S    
O110  Cu41  1.984980 S    
C143  C239  1.410707 A    
O140  C64   1.284132 A    
C195  N3    1.437503 S    
O121  Cu44  1.986253 S    
N54   O300  1.303286 A    
C259  N67   1.439936 S    
C174  C238  1.409039 A    
Cu34  Cu45  2.616121 S    
O129  Cu47  1.989385 S    
C9    C180  1.486705 S    
O40   Cu24  1.986693 S    
C124  C273  1.418104 A    
O121  C41   1.288110 A    
O187  C2    1.279953 A    
O43   Cu24  1.987340 S    
N56   O303  1.297029 A    
O71   C66   1.284491 A    
O170  Cu7   1.986255 S    
C77   C105  1.488550 S    
O159  Cu13  1.984062 S    
O35   C78   1.287712 A    
O9    C73   1.281498 A    
N35   O262  1.299862 A    
C47   C127  1.496953 S    
C104  C205  1.407552 A    
O14   Cu5   1.984980 S    
N96   O384  1.302889 A    
C280  N88   1.437570 S    
O114  C50   1.281436 A    
O191  C14   1.285612 A    
C145  C241  1.399431 A    
C212  N20   1.439745 S    
O134  C70   1.297643 A    
C159  C255  1.424737 A    
C142  C287  1.407643 A    
O26   Cu9   1.986255 S    
N82   O356  1.301487 A    
O172  Cu17  1.987933 S    
C40   C164  1.486693 S    
O115  Cu45  1.988323 S    
C179  C227  1.416941 A    
O77   Cu27  1.985883 S    
O5    Cu5   1.985438 S    
O160  C4    1.287172 A    
O51   Cu27  1.984362 S    
N89   O369  1.302735 A    
C21   C171  1.485590 S    
O30   Cu13  1.985881 S    
O160  Cu14  1.984064 S    
C112  C196  1.409165 A    
O186  C19   1.282578 A    
O189  C24   1.281602 A    
N58   O307  1.298104 A    
C143  C267  1.408696 A    
O190  C23   1.297788 A    
O83   C30   1.287866 A    
C234  N42   1.443406 S    
O88   C33   1.286562 A    
N44   O280  1.303492 A    
N5    O201  1.299836 A    
C24   C169  1.485483 S    
O93   Cu33  1.988759 S    
Cu25  Cu38  2.623217 S    
N95   O382  1.302203 A    
O136  C68   1.286279 A    
O185  C20   1.287355 A    
N12   O216  1.302620 A    
N23   O237  1.296467 A    
O48   C85   1.287721 A    
O46   Cu21  1.988757 S    
C98   C194  1.407834 A    
N65   O321  1.300734 A    
O42   C91   1.279854 A    
C281  N89   1.448297 S    
O138  Cu47  1.988466 S    
C126  C222  1.413017 A    
N66   O323  1.297524 A    
C59   C151  1.501099 S    
N73   O338  1.303466 A    
C140  C276  1.409446 A    
O31   Cu12  1.988417 S    
C49   C161  1.491679 S    
O21   C76   1.285560 A    
O41   Cu18  1.988464 S    
C111  C195  1.409227 A    
N46   O284  1.303749 A    
O188  Cu1   1.987342 S    
O148  C16   1.282825 A    
C215  N23   1.439575 S    
O126  C46   1.292912 A    
O72   Cu36  1.988789 S    
C122  C275  1.402873 A    
C194  N2    1.439797 S    
O33   C94   1.280220 A    
O31   C89   1.284375 A    
O128  C44   1.291731 A    
O89   Cu36  1.988464 S    
C222  N30   1.449742 S    
C76   C117  1.485475 S    
O60   Cu31  1.984730 S    
O152  C12   1.294036 A    
C156  C252  1.415713 A    
C91   C103  1.490962 S    
N43   O278  1.297211 A    
N40   O272  1.299174 A    
C157  C253  1.406517 A    
O43   C74   1.287835 A    
N71   O334  1.301496 A    
C205  N13   1.440134 S    
O118  C54   1.287913 A    
C160  C282  1.405764 A    
C26   C150  1.485104 S    
C187  C243  1.406806 A    
N22   O235  1.296458 A    
O125  Cu39  1.985883 S    
N70   O332  1.300935 A    
C248  N56   1.439908 S    
C142  C238  1.420891 A    
C286  N94   1.436049 S    
O157  Cu19  1.984978 S    
O179  Cu6   1.986933 S    
C43   C135  1.490109 S    
C136  C232  1.416534 A    
O53   Cu29  1.985438 S    
C247  N55   1.447402 S    
O70   Cu27  1.985489 S    
O144  Cu42  1.987557 S    
O29   C88   1.285890 A    
C164  C284  1.405432 A    
C1    C184  1.491201 S    
N90   O372  1.303219 A    
O18   C83   1.285048 A    
O183  C10   1.293016 A    
O103  C35   1.285486 A    
C2    C183  1.485650 S    
C220  N28   1.441045 S    
O139  C63   1.287722 A    
C15   C186  1.485927 S    
C161  C277  1.409081 A    
O176  C18   1.280992 A    
N68   O327  1.297051 A    
C168  C288  1.400771 A    
O15   C75   1.287261 A    
O184  Cu2   1.986693 S    
C130  C267  1.402892 A    
O88   Cu26  1.986693 S    
O122  Cu43  1.986255 S    
N92   O376  1.300323 A    
N3    O198  1.302658 A    
O169  C8    1.284085 A    
N32   O256  1.301130 A    
C141  C237  1.417921 A    
N69   O329  1.296409 A    
O8    Cu8   1.984460 S    
Cu31  Cu44  2.624969 S    
O141  C61   1.289650 A    
C198  N6    1.440263 S    
C94   C100  1.491670 S    
O104  Cu44  1.984460 S    
C106  C199  1.409241 A    
N18   O228  1.298008 A    
O192  C13   1.289879 A    
C176  C252  1.429946 A    
C288  N96   1.446875 S    
O86   Cu33  1.989110 S    
O103  Cu43  1.984462 S    
O53   C60   1.281450 A    
C16   C185  1.496713 S    
C270  N78   1.436738 S    
C204  N12   1.437617 S    
C137  C286  1.401367 A    
C202  N10   1.440103 S    
C116  C214  1.415601 A    
C184  C249  1.410227 A    
N55   O302  1.300964 A    
O107  Cu44  1.984731 S    
C154  C274  1.415482 A    
O47   C86   1.287750 A    
N29   O249  1.300396 A    
N82   O355  1.298434 A    
N47   O286  1.297803 A    
C67   C139  1.487689 S    
C28   C168  1.490019 S    
C216  N24   1.439579 S    
N75   O341  1.299788 A    
N28   O248  1.298809 A    
O44   C73   1.287781 A    
C283  N91   1.435974 S    
C144  C240  1.407863 A    
N30   O252  1.302346 A    
O66   C35   1.281494 A    
C117  C216  1.415665 A    
O143  C59   1.279326 A    
N83   O357  1.300465 A    
N41   O274  1.302212 A    
N4    O199  1.299847 A    
O95   Cu29  1.987559 S    
C123  C274  1.409762 A    
O96   C37   1.281670 A    
O77   C40   1.282477 A    
O101  C37   1.293005 A    
N50   O291  1.300194 A    
C32   C160  1.481617 S    
O38   Cu22  1.989110 S    
O78   C39   1.284155 A    
C285  N93   1.448358 S    
C108  C210  1.410873 A    
C103  C199  1.402979 A    
C107  C209  1.410881 A    
C133  C272  1.404310 A    
C147  C271  1.409321 A    
C104  C200  1.403019 A    
C132  C265  1.402170 A    
O67   Cu33  1.988323 S    
C262  N70   1.448485 S    
N43   O277  1.296955 A    
C197  N5    1.440255 S    
O170  C7    1.285492 A    
C71   C147  1.484956 S    
C160  C256  1.414226 A    
O27   Cu16  1.987935 S    
O167  C21   1.285674 A    
O159  C3    1.277889 A    
N61   O314  1.301273 A    
N16   O224  1.302795 A    
O78   Cu28  1.985881 S    
C187  C230  1.413764 A    
O82   C51   1.296428 A    
O177  Cu15  1.989385 S    
N27   O245  1.300096 A    
N10   O212  1.298807 A    
N86   O363  1.303176 A    
N17   O226  1.297998 A    
N76   O344  1.302516 A    
N91   O374  1.303150 A    
C218  N26   1.439821 S    
O64   C53   1.286071 A    
C48   C128  1.495787 S    
O132  Cu41  1.986931 S    
O79   Cu34  1.988417 S    
C233  N41   1.448541 S    
O64   Cu27  1.984064 S    
N31   O253  1.296713 A    
O180  C5    1.288683 A    
N60   O311  1.299645 A    
N15   O221  1.299946 A    
O142  C62   1.279874 A    
O95   C38   1.297549 A    
N77   O345  1.302822 A    
O76   Cu35  1.987933 S    
Cu33  Cu46  2.616121 S    
N9    O210  1.298855 A    
O185  Cu16  1.988464 S    
O152  Cu10  1.984460 S    
C100  C201  1.407879 A    
O94   Cu34  1.988757 S    
O71   Cu35  1.988791 S    
C232  N40   1.440214 S    
O133  C69   1.280113 A    
N49   O290  1.303983 A    
C166  C266  1.409989 A    
O45   C96   1.279947 A    
C273  N81   1.446376 S    
C88   C113  1.486150 S    
N21   O234  1.298090 A    
O158  Cu20  1.984980 S    
N32   O255  1.299951 A    
C11   C187  1.487647 S    
O106  C26   1.279084 A    
N93   O377  1.302413 A    
C252  N60   1.449289 S    
C118  C198  1.412901 A    
O168  Cu18  1.988789 S    
O90   Cu35  1.988466 S    
O108  C32   1.286366 A    
C109  C216  1.410653 A    
C153  C273  1.402102 A    
N42   O275  1.297364 A    
O20   Cu12  1.988325 S    
O34   Cu18  1.989387 S    
C174  C263  1.412761 A    
O156  C8    1.287666 A    
Cu16  Cu17  2.616146 S    
N51   O293  1.299889 A    
N19   O230  1.297900 A    
O171  Cu18  1.987935 S    
O9    Cu2   1.985227 S    
O154  Cu23  1.985225 S    
O61   C72   1.282108 A    
O151  C11   1.287374 A    
O181  C18   1.294599 A    
N39   O270  1.299080 A    
C65   C129  1.497502 S    
C148  C272  1.409853 A    
O136  Cu38  1.986693 S    
C267  N75   1.436783 S    
O24   Cu16  1.988789 S    
N59   O309  1.297412 A    
C55   C131  1.504739 S    
O2    Cu2   1.984734 S    
O38   C89   1.280124 A    
N6    O204  1.298727 A    
O63   Cu28  1.984062 S    
O147  Cu14  1.984362 S    
C242  N50   1.451502 S    
O177  C22   1.283085 A    
N59   O310  1.305826 A    
C123  C219  1.422241 A    
C97   C193  1.407814 A    
C29   C137  1.491520 S    
O105  C25   1.289173 A    
C159  C281  1.409028 A    
N71   O333  1.296387 A    
C186  C226  1.413454 A    
O48   Cu19  1.987557 S    
C163  C259  1.413855 A    
C175  C234  1.414144 A    
C162  C258  1.406168 A    
O45   Cu22  1.988759 S    
O13   C77   1.281481 A    
O18   Cu10  1.985884 S    
C125  C280  1.402912 A    
C133  C229  1.408934 A    
O112  Cu39  1.984064 S    
C128  C224  1.412132 A    
O123  C47   1.291970 A    
O72   C65   1.279733 A    
O120  Cu48  1.988789 S    
C103  C206  1.407572 A    
C31   C159  1.498946 S    
O92   C25   1.286780 A    
O124  C48   1.282539 A    
N94   O379  1.299633 A    
N23   O238  1.298066 A    
N66   O324  1.300762 A    
N62   O315  1.296553 A    
O11   C79   1.286965 A    
N85   O362  1.302392 A    
O187  Cu2   1.987340 S    
O101  Cu41  1.985438 S    
N48   O287  1.297672 A    
O134  Cu45  1.989110 S    
O176  Cu22  1.988419 S    
C277  N85   1.438541 S    
C34   C146  1.500466 S    
O135  C67   1.287420 A    
C230  N38   1.437025 S    
O165  Cu4   1.985490 S    
O65   Cu31  1.985883 S    
O179  C6    1.289907 A    
N10   O211  1.300275 A    
O55   Cu31  1.984462 S    
N33   O257  1.299244 A    
O16   C76   1.287263 A    
C109  C208  1.409175 A    
O145  C9    1.286013 A    
C150  C283  1.404517 A    
C80   C120  1.485876 S    
C139  C235  1.410468 A    
O116  C56   1.279898 A    
O118  Cu39  1.985489 S    
N7    O206  1.302798 A    
N64   O319  1.295145 A    
C75   C118  1.485465 S    
C253  N61   1.436946 S    
C264  N72   1.435229 S    
C6    C178  1.491355 S    
C191  C218  1.413144 A    
C263  N71   1.438157 S    
O73   C32   1.283875 A    
N38   O268  1.302907 A    
C95   C98   1.491335 S    
O1    C81   1.281595 A    
N35   O261  1.297342 A    
N27   O246  1.302360 A    
C63   C143  1.488133 S    
C278  N86   1.446480 S    
C182  C254  1.414364 A    
C227  N35   1.440788 S    
C236  N44   1.435972 S    
C261  N69   1.439268 S    
C158  C270  1.408404 A    
O106  Cu37  1.985225 S    
C131  C227  1.411267 A    
C139  C275  1.408522 A    
O150  Cu19  1.985440 S    
O91   Cu26  1.987340 S    
C244  N52   1.450449 S    
C129  C225  1.417725 A    
O80   C69   1.284510 A    
C170  C242  1.426469 A    
N8    O208  1.302782 A    
C68   C140  1.485168 S    
O143  Cu41  1.987559 S    
N57   O305  1.297376 A    
O76   C57   1.285079 A    
C23   C170  1.504576 S    
O82   Cu36  1.989387 S    
C180  C228  1.412816 A    
C18   C173  1.502923 S    
C62   C122  1.490376 S    
O171  C19   1.286199 A    
N26   O243  1.300248 A    
O163  Cu22  1.988323 S    
Cu28  Cu39  2.626017 S    
N34   O260  1.298799 A    
C162  C278  1.401754 A    
C3    C190  1.498641 S    
C107  C203  1.409200 A    
C150  C246  1.399704 A    
C90   C101  1.491293 S    
N72   O335  1.294026 A    
C173  C264  1.413721 A    
O162  C11   1.283750 A    
C201  N9    1.440133 S    
C51   C123  1.497838 S    
C134  C271  1.419492 A    
O20   C96   1.284591 A    
N7    O205  1.300039 A    
C206  N14   1.440141 S    
O115  C55   1.297179 A    
C184  C220  1.419569 A    
C141  C288  1.417466 A    
C132  C228  1.408075 A    
C146  C242  1.411773 A    
O89   C48   1.285661 A    
N93   O378  1.300414 A    
N28   O247  1.296392 A    
O135  Cu37  1.986691 S    
O49   Cu25  1.984736 S    
O90   C47   1.279608 A    
C190  C222  1.425169 A    
O28   Cu15  1.987933 S    
C120  C210  1.415449 A    
C57   C133  1.496948 S    
N53   O298  1.302365 A    
O149  C13   1.283125 A    
O54   C59   1.298257 A    
O153  Cu24  1.985227 S    
C22   C172  1.495037 S    
C145  C282  1.405096 A    
O55   C50   1.285715 A    
O25   C80   1.285383 A    
C25   C149  1.491431 S    
N63   O317  1.299189 A    
O154  C2    1.289744 A    
Cu30  Cu41  2.622590 S    
C151  C279  1.411798 A    
C30   C138  1.493543 S    
C196  N4    1.437522 S    
Cu12  Cu22  2.616121 S    
C52   C124  1.497267 S    
O44   Cu23  1.987342 S    
N31   O254  1.298866 A    
O126  Cu40  1.985881 S    
N67   O325  1.295515 A    
N36   O264  1.299019 A    
O119  Cu47  1.988791 S    
O69   C28   1.287246 A    
C217  N25   1.436864 S    
O70   C27   1.281011 A    
N11   O214  1.302630 A    
C106  C213  1.410739 A    
N53   O297  1.296404 A    
O23   C93   1.284468 A    
C271  N79   1.449317 S    
C155  C285  1.406212 A    
O130  Cu48  1.989387 S    
N16   O223  1.299973 A    
C53   C157  1.485879 S    
O186  Cu15  1.988466 S    
O146  C10   1.279458 A    
C237  N45   1.451273 S    
O175  Cu21  1.988417 S    
C41   C165  1.486431 S    
O75   Cu36  1.987935 S    
N87   O366  1.300800 A    
O40   C81   1.287763 A    
N45   O282  1.299043 A    
C167  C263  1.405816 A    
O27   C91   1.284502 A    
C181  C253  1.410242 A    
N79   O350  1.304723 A    
C185  C240  1.413189 A    
C122  C218  1.408249 A    
N52   O295  1.300077 A    
O173  C16   1.296269 A    
C225  N33   1.450408 S    
O116  Cu46  1.988325 S    
N74   O339  1.301700 A    
N58   O308  1.299257 A    
C110  C215  1.410638 A    
O21   Cu13  1.985490 S    
O6    Cu6   1.985440 S    
C169  C256  1.421512 A    
O35   Cu19  1.986933 S    
C136  C269  1.418221 A    
N88   O368  1.304191 A    
O180  Cu5   1.986931 S    
C181  C232  1.418793 A    
N1    O194  1.298751 A    
O145  Cu23  1.984736 S    
C284  N92   1.449080 S    
C121  C217  1.418391 A    
O97   Cu37  1.984736 S    
N91   O373  1.302022 A    
N14   O220  1.298953 A    
Cu8   Cu9   2.624969 S    
O2    C82   1.281581 A    
C73   C112  1.488132 S    
O173  Cu3   1.985883 S    
C13   C181  1.491443 S    
N3    O197  1.299813 A    
C99   C202  1.407832 A    
O142  Cu46  1.988757 S    
C183  C219  1.408728 A    
O172  C20   1.291392 A    
O91   C26   1.286714 A    
C231  N39   1.440033 S    
N73   O337  1.301183 A    
C97   C204  1.402760 A    
C229  N37   1.439718 S    
C210  N18   1.439565 S    
C12   C188  1.493178 S    
N75   O342  1.303219 A    
C182  C231  1.413432 A    
O109  Cu42  1.984978 S    
O3    C87   1.287309 A    
C151  C247  1.425107 A    
N47   O285  1.296727 A    
O100  C40   1.285902 A    
O41   C92   1.279873 A    
C19   C175  1.494753 S    
O111  Cu40  1.984062 S    
O83   Cu30  1.986933 S    
O33   Cu17  1.989385 S    
O102  C38   1.274944 A    
N26   O244  1.299133 A    
C61   C121  1.497000 S    
N76   O343  1.302335 A    
N56   O304  1.298522 A    
N13   O218  1.298900 A    
O131  Cu42  1.986933 S    
O113  Cu43  1.985883 S    
O96   Cu30  1.987557 S    
N15   O222  1.302788 A    
N20   O231  1.296534 A    
O161  Cu7   1.985883 S    
O67   C62   1.284426 A    
C228  N36   1.439728 S    
C69   C125  1.490966 S    
O100  Cu40  1.984364 S    
O166  Cu3   1.985489 S    
Cu36  Cu47  2.616146 S    
O66   Cu32  1.985884 S    
O25   Cu10  1.986253 S    
C44   C136  1.496669 S    
O52   C45   1.286127 A    
O56   Cu32  1.984460 S    
C221  N29   1.440410 S    
O114  Cu44  1.985884 S    
O62   C71   1.280210 A    
C66   C130  1.491379 S    
C39   C163  1.481697 S    
O85   C44   1.280013 A    
O63   C54   1.282013 A    
O29   Cu14  1.985883 S    
C257  N65   1.449160 S    
O37   C90   1.280116 A    
N24   O240  1.298068 A    
C85   C109  1.488525 S    
N72   O336  1.305132 A    
C74   C111  1.488247 S    
C84   C116  1.485252 S    
C127  C278  1.417536 A    
C173  C237  1.428494 A    
C33   C145  1.484381 S    
C64   C144  1.492875 S    
O122  C42   1.277385 A    
N68   O328  1.306654 A    
N11   O213  1.299833 A    
Cu3   Cu13  2.626017 S    
O86   C43   1.284695 A    
O117  Cu40  1.985490 S    
N1    O193  1.300130 A    
C276  N84   1.450623 S    
C250  N58   1.438438 S    
N69   O330  1.297916 A    
O165  C4    1.285789 A    
O132  C72   1.288294 A    
C125  C221  1.407401 A    
C180  C261  1.414631 A    
O26   C79   1.285389 A    
C72   C148  1.489346 S    
C27   C167  1.489832 S    
N54   O299  1.307821 A    
C137  C233  1.411502 A    
O36   Cu20  1.986931 S    
C121  C276  1.421369 A    
C275  N83   1.437704 S    
O34   C93   1.280214 A    
O32   C90   1.284361 A    
O12   C80   1.286947 A    
O181  Cu12  1.989112 S    
C166  C262  1.422507 A    
O133  Cu46  1.989112 S    
C226  N34   1.440104 S    
C37   C141  1.492575 S    
O14   C78   1.281467 A    
C135  C270  1.401932 A    
C127  C223  1.416529 A    
C117  C197  1.412908 A    
Cu1   Cu24  2.623217 S    
O123  Cu48  1.987935 S    
O74   Cu31  1.986255 S    
C158  C254  1.410347 A    
O182  C17   1.278303 A    
O104  C36   1.287901 A    
N96   O383  1.303955 A    
O141  Cu45  1.988759 S    
C239  N47   1.439710 S    
C101  C197  1.407623 A    
O81   Cu35  1.989385 S    
O73   Cu32  1.986253 S    
O10   C74   1.281515 A    
C177  C257  1.430721 A    
N78   O347  1.300785 A    
O191  Cu5   1.987559 S    
N2    O196  1.298741 A    
N4    O200  1.302686 A    
O178  C21   1.281848 A    
C282  N90   1.436204 S    
C266  N74   1.448670 S    
C108  C204  1.409237 A    
N40   O271  1.297185 A    
N37   O266  1.299080 A    
O164  Cu21  1.988325 S    
N89   O370  1.300676 A    
C45   C153  1.486229 S    
N41   O273  1.300611 A    
C269  N77   1.446776 S    
C208  N16   1.437162 S    
C35   C155  1.485544 S    
C119  C194  1.412939 A    
C36   C156  1.488436 S    
O137  Cu48  1.988464 S    
N50   O292  1.300649 A    
N84   O360  1.300460 A    
N19   O229  1.296540 A    
N5    O202  1.298712 A    
C155  C251  1.401656 A    
C167  C287  1.412486 A    
O46   C95   1.279943 A    
O157  C5    1.292651 A    
C4    C189  1.485601 S    
N65   O322  1.300488 A    
O12   Cu7   1.984730 S    
C156  C286  1.407296 A    
O139  Cu38  1.987340 S    
C209  N17   1.439578 S    
O87   Cu25  1.986691 S    
O7    Cu7   1.984462 S    
N61   O313  1.297183 A    
C161  C257  1.414474 A    
O107  C31   1.277843 A    
C168  C264  1.410586 A    
N84   O359  1.301875 A    
C246  N54   1.439174 S    
C186  C239  1.415253 A    
O37   Cu21  1.989112 S    
N22   O236  1.298090 A    
O184  C9    1.285377 A    
O174  C15   1.286113 A    
C112  C212  1.410800 A    
C165  C261  1.410176 A    
N46   O283  1.297569 A    
N86   O364  1.304204 A    
N17   O225  1.296543 A    
C192  C236  1.406529 A    
O163  C23   1.277553 A    
O61   Cu30  1.984978 S    
C164  C260  1.402898 A    
O120  C52   1.291881 A    
N88   O367  1.300954 A    
O85   Cu34  1.989112 S    
O158  C6    1.283274 A    
C7    C191  1.485780 S    
N36   O263  1.299912 A    
O47   Cu20  1.987559 S    
C153  C249  1.405928 A    
C8    C192  1.488913 S    
O146  Cu24  1.984734 S    
C188  C229  1.415392 A    
C199  N7    1.437357 S    
C171  C259  1.421362 A    
