data_mof_unit_41143.cif
_audit_creation_date              2013-03-05T15:42:41-0500
_audit_creation_method            fapswitch 2.2
_symmetry_space_group_name_H-M    P1
_symmetry_Int_Tables_number       1
_space_group_crystal_system       triclinic
_cell_length_a                    7.728961
_cell_length_b                    8.552839
_cell_length_c                    27.69544
_cell_angle_alpha                 90.858475
_cell_angle_beta                  86.259065
_cell_angle_gamma                 93.806259
_cell_volume                      1822.759867

loop_
_atom_site_label
_atom_site_type_symbol
_atom_site_description
_atom_site_fract_x
_atom_site_fract_y
_atom_site_fract_z
_atom_type_partial_charge
O1    O     O_R   0.389250 0.738570 0.503220 -0.612881
O2    O     O_R   0.610750 0.261430 0.496780 -0.612379
O3    O     O_R   0.678390 0.711630 0.494810 -0.628855
O4    O     O_R   0.321610 0.288370 0.505190 -0.628500
C1    C     C_R   0.546020 0.794905 0.498727 0.975287
C2    C     C_R   0.453980 0.205095 0.501270 0.976013
O5    O     O_R   0.355440 0.513440 0.575450 -0.618082
O6    O     O_R   0.644560 0.486560 0.424550 -0.621413
O7    O     O_R   0.644590 0.486500 0.567040 -0.632449
O8    O     O_R   0.355410 0.513500 0.432960 -0.629066
C3    C     C_R   0.503052 0.499543 0.593955 0.884880
C4    C     C_R   0.497084 0.500912 0.406064 0.883246
Zn1   Zn    Zn3+2 0.306940 0.517990 0.505620 0.950959
Zn2   Zn    Zn3+2 0.693060 0.482010 0.494380 0.949963
C5    C     C_R   0.593330 0.627100 0.820768 0.491067
C6    C     C_R   0.386278 0.413297 0.179178 0.492131
O9    O     O_2   0.654158 0.753353 0.794596 -0.559932
O10   O     O_2   0.302504 0.295170 0.204948 -0.555710
N1    N     N_R   0.531504 0.494856 0.797966 -0.358880
N2    N     N_R   0.472224 0.533429 0.202358 -0.360943
C7    C     C_R   0.467947 0.364384 0.822684 0.504045
C8    C     C_R   0.554951 0.657516 0.178071 0.505499
C9    C     C_R   0.674754 0.463666 0.716901 0.145103
C10   C     C_R   0.629813 0.475085 0.273462 0.139791
C11   C     C_R   0.666191 0.465612 0.666906 -0.183699
C12   C     C_R   0.634259 0.466810 0.323472 -0.177206
C13   C     C_R   0.363446 0.527819 0.676583 -0.200405
C14   C     C_R   0.341801 0.555915 0.333267 -0.214079
C15   C     C_R   0.371629 0.526773 0.726471 -0.107679
C16   C     C_R   0.337211 0.565696 0.283405 -0.102903
C17   C     C_R   0.526470 0.495175 0.746670 0.283536
C18   C     C_R   0.480587 0.526105 0.253491 0.276750
C19   C     C_R   0.524298 0.501079 0.898015 -0.085694
C20   C     C_R   0.479585 0.533045 0.102321 -0.096826
C21   C     C_R   0.591552 0.632737 0.871111 0.003386
C22   C     C_R   0.387815 0.410833 0.128822 -0.003099
C23   C     C_R   0.652553 0.768452 0.894802 -0.160057
C24   C     C_R   0.301264 0.287733 0.104685 -0.166641
C25   C     C_R   0.465263 0.362615 0.873666 -0.095946
C26   C     C_R   0.561608 0.660515 0.127114 -0.066558
C27   C     C_R   0.510838 0.497767 0.646490 -0.091437
C28   C     C_R   0.490692 0.507193 0.353583 -0.089494
H1    H     H_    0.242290 0.552797 0.661653 0.173994
H2    H     H_    0.229647 0.587879 0.355858 0.171044
H3    H     H_    0.257722 0.550577 0.749605 0.146407
H4    H     H_    0.222208 0.603665 0.267866 0.153700
H5    H     H_    0.704618 0.870697 0.874752 0.183090
H6    H     H_    0.225086 0.195630 0.124390 0.188197
C29   C     C_R   0.577784 0.650924 0.024366 0.010746
C30   C     C_R   0.439427 0.380040 0.976073 -0.004757
C31   C     C_R   0.414731 0.393507 0.026990 0.071669
C32   C     C_R   0.580496 0.646782 0.973117 0.071624
C33   C     C_R   0.490311 0.526241 0.051074 0.070134
C34   C     C_R   0.514926 0.509163 0.949207 0.069891
C35   C     C_R   0.660805 0.775568 0.049830 -0.290216
C36   C     C_R   0.394758 0.239256 0.951376 -0.266271
C37   C     C_R   0.651827 0.782822 0.100225 0.236522
C38   C     C_R   0.404608 0.228742 0.900813 0.246122
O11   O     O_2   0.632015 0.775380 0.203486 -0.524707
O12   O     O_2   0.405234 0.238900 0.797646 -0.530414
C39   C     C_R   0.646053 0.776171 0.944786 -0.237043
C40   C     C_R   0.313703 0.279296 0.054678 -0.236625
H7    H     H_    0.749483 0.427760 0.338667 0.173494
H8    H     H_    0.780904 0.441200 0.644161 0.172426
H9    H     H_    0.737797 0.869327 0.031691 0.141608
H10   H     H_    0.359526 0.133311 0.971118 0.155518
H11   H     H_    0.689015 0.887582 0.959965 0.143072
H12   H     H_    0.239363 0.183193 0.038611 0.142874
C41   C     C_2   0.570321 0.958433 0.497992 -0.372606
C42   C     C_2   0.429678 0.041566 0.502000 -0.372652
H13   H     H_    0.703014 0.009830 0.494169 0.180650
H14   H     H_    0.296985 0.990168 0.505823 0.180612
N3    N     N_2   0.950320 0.457960 0.486880 -0.175469
N4    N     N_2   0.049680 0.542040 0.513120 -0.175861
H15   H     H_    0.014117 0.383256 0.463471 0.193659
H16   H     H_    0.985881 0.616732 0.536533 0.192864
N5    N     N_3   0.776324 0.428894 0.243550 -0.442665
H17   H     H_    0.826036 0.524797 0.222888 0.209018
H18   H     H_    0.733523 0.340075 0.219981 0.197405
N6    N     N_3   0.833886 0.428211 0.736801 -0.459301
H19   H     H_    0.808421 0.331448 0.759394 0.209514
H20   H     H_    0.876428 0.523653 0.757929 0.205472
N7    N     N_2   0.737788 0.913263 0.123205 -0.252762
H21   H     H_    0.861730 0.940847 0.108251 0.212111
C43   C     C_3   0.636545 0.049596 0.128166 -0.662764
H22   H     H_    0.707157 0.142054 0.149173 0.231794
H23   H     H_    0.508796 0.019388 0.147752 0.268944
H24   H     H_    0.615682 0.096600 0.091933 0.209461
N8    N     N_2   0.362420 0.082606 0.877122 -0.246814
H25   H     H_    0.466291 0.033739 0.858781 0.262724
C44   C     C_3   0.234365 0.970922 0.899808 -0.746404
H26   H     H_    0.189719 0.884432 0.872249 0.256187
H27   H     H_    0.119818 0.031269 0.915115 0.239079
H28   H     H_    0.292359 0.906382 0.928581 0.224859

loop_
_geom_bond_atom_site_label_1
_geom_bond_atom_site_label_2
_geom_bond_distance
_ccdc_geom_bond_type
N5    H17   1.044721 S    
C13   C15   1.387419 A    
N3    N4    1.272345 D    
C12   H7    1.083678 S    
N1    C17   1.423793 S    
C43   H22   1.109963 S    
O5    C3    1.294041 A    
C19   C25   1.417719 A    
N4    H16   1.029277 S    
O1    C1    1.272947 A    
C21   C23   1.394652 A    
C10   C12   1.390671 A    
C32   C39   1.413078 A    
C36   H10   1.075569 S    
C2    C42   1.399050 S    
C14   C28   1.403459 A    
O4    Zn1   1.974487 S    
C41   H13   1.087950 S    
C13   C27   1.402505 A    
C1    C41   1.399045 S    
C4    C28   1.459462 S    
C37   N7    1.423600 S    
C9    N6    1.432275 S    
C23   H5    1.083367 S    
C24   H6    1.083698 S    
O6    C4    1.293454 A    
N5    H18   1.045266 S    
N3    H15   1.029270 S    
O2    C2    1.272946 A    
C31   C40   1.412439 A    
C5    C21   1.393574 A    
C35   H9    1.076682 S    
C32   C34   1.421959 A    
C43   H23   1.111910 S    
Zn2   N3    2.009509 S    
C7    O12   1.349132 S    
N6    H20   1.045001 S    
C11   C27   1.405044 A    
C8    O11   1.349125 S    
C29   C35   1.411121 A    
C25   C38   1.415846 A    
C14   H2    1.083126 S    
C30   C36   1.409912 A    
C15   H3    1.083181 S    
C31   C33   1.419526 A    
C11   H8    1.083626 S    
C9    C17   1.406032 A    
C5    N1    1.361125 A    
O7    Zn2   2.023013 S    
C10   C18   1.408504 A    
C44   H27   1.111326 S    
C39   H11   1.076648 S    
N7    H21   1.032465 S    
C7    C25   1.411044 A    
C6    N2    1.361748 A    
C29   C32   1.418108 A    
C8    C26   1.409431 A    
C30   C31   1.414656 A    
C30   C34   1.412848 A    
O7    C3    1.293100 A    
O3    Zn2   1.974487 S    
O8    C4    1.293166 A    
O4    C2    1.282849 A    
N7    C43   1.446764 S    
N2    C8    1.364839 A    
C35   C37   1.393548 A    
C20   C26   1.415825 A    
O1    Zn1   1.951213 S    
C44   H26   1.110158 S    
C12   C28   1.402680 A    
N2    C18   1.424348 S    
C43   H24   1.111937 S    
C19   C34   1.415792 A    
C5    O9    1.350566 S    
O6    Zn2   1.995263 S    
C26   C37   1.412024 A    
N1    C7    1.364350 A    
C16   H4    1.083119 S    
N6    H19   1.045485 S    
O3    C1    1.282847 A    
O8    Zn1   2.023013 S    
C23   C39   1.382681 A    
C40   H12   1.078634 S    
C14   C16   1.387650 A    
C15   C17   1.397516 A    
C6    C22   1.393759 A    
C44   H28   1.110520 S    
C16   C18   1.396639 A    
C29   C33   1.415651 A    
C22   C24   1.395211 A    
C19   C21   1.410779 A    
C36   C38   1.399317 A    
C3    C27   1.460481 S    
C20   C22   1.411015 A    
C9    C11   1.390921 A    
C41   C42   1.335662 D    
O2    Zn2   1.951213 S    
C38   N8    1.431177 S    
C13   H1    1.083152 S    
C10   N5    1.432416 S    
O5    Zn1   1.995262 S    
Zn1   N4    2.009510 S    
C20   C33   1.416868 A    
C6    O10   1.350483 S    
N8    C44   1.448485 S    
C42   H14   1.087950 S    
N8    H25   1.030630 S    
C24   C40   1.383168 A    
