data_mof_unit_65694.cif
_audit_creation_date              2012-12-10T20:58:59-0500
_audit_creation_method            fapswitch 2.2
_symmetry_space_group_name_H-M    P1
_symmetry_Int_Tables_number       1
_space_group_crystal_system       triclinic
_cell_length_a                    13.649454
_cell_length_b                    15.085539
_cell_length_c                    15.855351
_cell_angle_alpha                 89.991713
_cell_angle_beta                  89.977009
_cell_angle_gamma                 83.107167
_cell_volume                      3241.16852683

loop_
_atom_site_label
_atom_site_type_symbol
_atom_type_description
_atom_site_fract_x
_atom_site_fract_y
_atom_site_fract_z
_atom_type_partial_charge
C1    C     C_R   0.499973 0.500012 0.661113 0.893674
C2    C     C_R   0.548620 0.947665 0.563563 -0.341309
C3    C     C_1   0.500023 0.192863 0.500092 0.224014
C4    C     C_1   0.499977 0.807137 0.499908 0.224014
C5    C     C_R   0.686235 0.484231 0.499970 0.895594
C6    C     C_R   0.313765 0.515769 0.500030 0.895593
C7    C     C_1   0.210183 0.527838 0.500051 -0.150817
C8    C     C_1   0.789817 0.472162 0.499950 -0.150817
C9    C     C_2   0.018881 0.538475 0.500068 -0.148511
C10   C     C_2   0.981119 0.461525 0.499932 -0.148511
C11   C     C_1   0.877440 0.464223 0.499936 0.034040
C12   C     C_R   0.500027 0.499988 0.338887 0.893673
C13   C     C_1   0.122560 0.535777 0.500064 0.034040
C14   C     C_R   0.500571 0.419432 0.044033 -0.349299
C15   C     C_R   0.499429 0.580568 0.955967 -0.349299
C16   C     C_R   0.500010 0.500318 0.086894 -0.098525
C17   C     C_R   0.499989 0.499682 0.913106 -0.098525
C18   C     C_R   0.499439 0.580991 0.043434 0.691040
C19   C     C_R   0.500561 0.419009 0.956566 0.691040
C20   C     C_1   0.500021 0.500154 0.175701 0.095588
C21   C     C_1   0.499979 0.499845 0.824299 0.095587
C22   C     C_1   0.499973 0.499966 0.749484 -0.136312
C23   C     C_1   0.500027 0.500034 0.250516 -0.136312
C24   C     C_R   0.548851 0.041349 0.563910 0.697562
C25   C     C_R   0.451149 0.958651 0.436090 0.697562
C26   C     C_R   0.500135 0.094945 0.500222 -0.164714
C27   C     C_R   0.499864 0.905055 0.499778 -0.164714
C28   C     C_R   0.451379 0.052335 0.436437 -0.341309
F1    F     F_    0.501106 0.340572 0.914445 -0.621876
F2    F     F_    0.498894 0.659428 0.085555 -0.621876
F3    F     F_    0.596799 0.079598 0.626640 -0.628852
F4    F     F_    0.403201 0.920402 0.373360 -0.628852
H1    H     H_    0.027238 0.397525 0.499820 0.171259
H2    H     H_    0.972762 0.602475 0.500180 0.171259
H3    H     H_    0.501011 0.357154 0.078221 0.206089
H4    H     H_    0.498989 0.642845 0.921779 0.206089
H5    H     H_    0.586725 0.908289 0.613383 0.201202
H6    H     H_    0.413275 0.091711 0.386617 0.201202
N1    N     N_1   0.500030 0.729450 0.499980 -0.083176
N2    N     N_1   0.499970 0.270550 0.500020 -0.083176
O1    O     O_R   0.500000 0.426350 0.621980 -0.581801
O2    O     O_R   0.500000 0.573650 0.378020 -0.581801
O3    O     O_R   0.499960 0.573690 0.621980 -0.618787
O4    O     O_R   0.500040 0.426310 0.378020 -0.618787
O5    O     O_R   0.640370 0.415730 0.499980 -0.599627
O6    O     O_R   0.359630 0.584270 0.500020 -0.599626
O7    O     O_R   0.640330 0.563060 0.499980 -0.608928
O8    O     O_R   0.359670 0.436940 0.500020 -0.608928
Zn1   Zn    Zn3+2 0.500030 0.401620 0.500000 1.022473
Zn2   Zn    Zn3+2 0.499970 0.598380 0.500000 1.022473

loop_
_geom_bond_atom_site_label_1
_geom_bond_atom_site_label_2
_ccdc_geom_bond_type
O4    Zn1   S    
C15   C18   A    
C4    N1    T    
O3    Zn2   S    
C6    C7    S    
C18   F2    S    
O5    Zn1   S    
C5    C8    S    
C9    C10   D    
O6    Zn2   S    
C26   C28   A    
C2    H5    S    
C20   C23   T    
C28   H6    S    
C16   C20   S    
N1    Zn2   S    
C25   F4    S    
C24   F3    S    
C1    C22   S    
C12   O4    A    
C21   C22   T    
C25   C28   A    
C5    O7    A    
C12   C23   S    
C2    C27   A    
C6    O8    A    
O2    Zn2   S    
C8    C11   T    
O1    Zn1   S    
O8    Zn1   S    
C17   C19   A    
C24   C26   A    
C3    N2    T    
O7    Zn2   S    
C2    C24   A    
C9    H2    S    
C14   C16   A    
C25   C27   A    
C10   C11   S    
N2    Zn1   S    
C19   F1    S    
C15   H4    S    
C7    C13   T    
C4    C27   S    
C16   C18   A    
C10   H1    S    
C1    O1    A    
C14   H3    S    
C15   C17   A    
C9    C13   S    
C12   O2    A    
C6    O6    A    
C5    O5    A    
C14   C19   A    
C1    O3    A    
C3    C26   S    
C17   C21   S    
