data_mof_unit_20481.cif
_audit_creation_date              2012-12-10T19:09:33-0500
_audit_creation_method            fapswitch 2.2
_symmetry_space_group_name_H-M    P1
_symmetry_Int_Tables_number       1
_space_group_crystal_system       monoclinic
_cell_length_a                    15.04572
_cell_length_b                    15.146527
_cell_length_c                    9.683126
_cell_angle_alpha                 89.982263
_cell_angle_beta                  90.0
_cell_angle_gamma                 90.0
_cell_volume                      2206.69139246

loop_
_atom_site_label
_atom_site_type_symbol
_atom_type_description
_atom_site_fract_x
_atom_site_fract_y
_atom_site_fract_z
_atom_type_partial_charge
C1    C     C_R   0.121504 0.379328 0.500287 0.870634
C2    C     C_R   0.121535 0.620670 0.499553 0.868499
C3    C     C_R   0.621535 0.879330 0.500447 0.868500
C4    C     C_R   0.621504 0.120672 0.499713 0.870634
C5    C     C_3   0.919666 0.454371 0.081115 -0.238051
C6    C     C_3   0.919113 0.455081 0.918684 -0.254469
C7    C     C_3   0.419113 0.044919 0.081315 -0.254468
C8    C     C_3   0.419666 0.045629 0.918885 -0.238051
C9    C     C_R   0.878026 0.379198 0.499575 0.859897
C10   C     C_R   0.878488 0.621225 0.500549 0.858296
C11   C     C_R   0.378488 0.878775 0.499451 0.858296
C12   C     C_R   0.378026 0.120802 0.500425 0.859897
C13   C     C_3   0.847488 0.224862 0.569258 0.041850
C14   C     C_3   0.784694 0.283422 0.345124 0.081238
C15   C     C_3   0.847438 0.775349 0.429623 0.042403
C16   C     C_3   0.786756 0.718222 0.655791 0.079823
C17   C     C_3   0.347438 0.724651 0.570377 0.042404
C18   C     C_3   0.286756 0.781778 0.344209 0.079823
C19   C     C_3   0.347488 0.275138 0.430742 0.041850
C20   C     C_3   0.284693 0.216578 0.654876 0.081238
C21   C     C_3   0.275405 0.651744 0.566080 -0.469982
C22   C     C_3   0.210496 0.715678 0.346400 -0.446458
C23   C     C_3   0.275494 0.348119 0.434135 -0.470726
C24   C     C_3   0.209710 0.283854 0.652525 -0.449945
C25   C     C_3   0.775493 0.151881 0.565865 -0.470726
C26   C     C_3   0.709710 0.216146 0.347475 -0.449945
C27   C     C_3   0.775405 0.848256 0.433920 -0.469982
C28   C     C_3   0.710496 0.784322 0.653599 -0.446458
C29   C     C_3   0.726773 0.341870 0.580393 -0.420715
C30   C     C_3   0.726710 0.657841 0.423075 -0.422959
C31   C     C_3   0.226710 0.842159 0.576925 -0.422959
C32   C     C_3   0.226773 0.158130 0.419607 -0.420715
C33   C     C_3   0.809944 0.310602 0.498236 0.090296
C34   C     C_3   0.810612 0.689946 0.502524 0.088580
C35   C     C_3   0.310612 0.810054 0.497476 0.088580
C36   C     C_3   0.309944 0.189398 0.501764 0.090296
C37   C     C_3   0.189824 0.688159 0.497704 0.126061
C38   C     C_3   0.189596 0.311703 0.501517 0.126353
C39   C     C_3   0.689596 0.188297 0.498483 0.126353
C40   C     C_3   0.689824 0.811841 0.502296 0.126061
C41   C     C_3   0.156031 0.769604 0.578427 -0.415413
C42   C     C_3   0.155853 0.230537 0.419768 -0.412776
C43   C     C_3   0.655853 0.269463 0.580232 -0.412777
C44   C     C_3   0.656031 0.730396 0.421573 -0.415413
C45   C     C_3   0.078375 0.454797 0.081272 -0.236560
C46   C     C_3   0.077876 0.453943 0.918684 -0.229564
C47   C     C_3   0.999641 0.591120 0.918619 -0.244954
C48   C     C_3   0.998440 0.591086 0.081266 -0.236579
C49   C     C_3   0.499641 0.908880 0.081381 -0.244955
C50   C     C_3   0.498440 0.908914 0.918734 -0.236579
C51   C     C_3   0.578375 0.045203 0.918728 -0.236560
C52   C     C_3   0.577876 0.046057 0.081316 -0.229563
H1    H     H_    0.905480 0.201945 0.506989 0.108353
H2    H     H_    0.844018 0.248470 0.302817 0.079393
H3    H     H_    0.906020 0.798599 0.490244 0.108668
H4    H     H_    0.845918 0.754733 0.695327 0.077467
H5    H     H_    0.406020 0.701401 0.509756 0.108668
H6    H     H_    0.345918 0.745267 0.304673 0.077467
H7    H     H_    0.405480 0.298055 0.493011 0.108353
H8    H     H_    0.344018 0.251530 0.697183 0.079393
H9    H     H_    0.300635 0.594255 0.506083 0.135887
H10   H     H_    0.229954 0.657017 0.283791 0.146701
H11   H     H_    0.300487 0.405604 0.494383 0.136268
H12   H     H_    0.230064 0.342200 0.715191 0.144601
H13   H     H_    0.800487 0.094396 0.505617 0.136268
H14   H     H_    0.730064 0.157800 0.284809 0.144601
H15   H     H_    0.800635 0.905745 0.493917 0.135887
H16   H     H_    0.729954 0.842982 0.716208 0.146702
H17   H     H_    0.260280 0.627166 0.671902 0.185287
H18   H     H_    0.149934 0.743788 0.297485 0.190352
H19   H     H_    0.260851 0.372702 0.328149 0.183654
H20   H     H_    0.148681 0.256667 0.701364 0.192016
H21   H     H_    0.760851 0.127298 0.671851 0.183655
H22   H     H_    0.648681 0.243333 0.298636 0.192016
H23   H     H_    0.760280 0.872834 0.328098 0.185287
H24   H     H_    0.649934 0.756211 0.702515 0.190352
H25   H     H_    0.744577 0.358391 0.688692 0.164423
H26   H     H_    0.698072 0.403381 0.539326 0.165336
H27   H     H_    0.743632 0.639500 0.315126 0.166787
H28   H     H_    0.698050 0.597364 0.467923 0.166590
H29   H     H_    0.243632 0.860500 0.684874 0.166788
H30   H     H_    0.198050 0.902635 0.532077 0.166590
H31   H     H_    0.244577 0.141609 0.311308 0.164423
H32   H     H_    0.198072 0.096619 0.460674 0.165336
H33   H     H_    0.140946 0.751486 0.687405 0.170831
H34   H     H_    0.093450 0.794902 0.531451 0.151115
H35   H     H_    0.140400 0.249221 0.311156 0.169987
H36   H     H_    0.093489 0.204778 0.466754 0.150994
H37   H     H_    0.640400 0.250779 0.688844 0.169988
H38   H     H_    0.593489 0.295222 0.533246 0.150994
H39   H     H_    0.640946 0.748514 0.312594 0.170831
H40   H     H_    0.593450 0.705098 0.468549 0.151115
H41   H     H_    0.081091 0.385651 0.119746 0.141445
H42   H     H_    0.079013 0.384370 0.881925 0.149473
H43   H     H_    0.941425 0.628625 0.879374 0.156142
H44   H     H_    0.938432 0.626779 0.117855 0.168823
H45   H     H_    0.441425 0.871375 0.120626 0.156142
H46   H     H_    0.438432 0.873221 0.882145 0.168823
H47   H     H_    0.581091 0.114349 0.880254 0.141445
H48   H     H_    0.579013 0.115630 0.118075 0.149473
H49   H     H_    0.139712 0.487883 0.119261 0.138237
H50   H     H_    0.139576 0.485477 0.878924 0.136346
H51   H     H_    0.059591 0.626928 0.881486 0.140393
H52   H     H_    0.056761 0.628417 0.120805 0.152284
H53   H     H_    0.559591 0.873073 0.118514 0.140393
H54   H     H_    0.556762 0.871583 0.879194 0.152284
H55   H     H_    0.639712 0.012117 0.880739 0.138237
H56   H     H_    0.639575 0.014523 0.121076 0.136346
H57   H     H_    0.918840 0.384790 0.117528 0.157291
H58   H     H_    0.916362 0.385970 0.880589 0.166984
H59   H     H_    0.857901 0.488159 0.880590 0.165879
H60   H     H_    0.858295 0.486603 0.120307 0.171396
H61   H     H_    0.357901 0.011841 0.119410 0.165879
H62   H     H_    0.358295 0.013397 0.879693 0.171396
H63   H     H_    0.418840 0.115210 0.882472 0.157291
H64   H     H_    0.416362 0.114030 0.119411 0.166983
N1    N     N_3   0.998760 0.500000 0.138610 -0.032429
N2    N     N_3   0.998760 0.500000 0.861390 -0.024087
N3    N     N_3   0.498760 0.000000 0.138610 -0.024087
N4    N     N_3   0.498760 0.000000 0.861390 -0.032429
O1    O     O_R   0.092530 0.407440 0.616040 -0.631877
O2    O     O_R   0.092530 0.407440 0.383960 -0.642946
O3    O     O_R   0.092530 0.592560 0.383960 -0.631637
O4    O     O_R   0.092530 0.592560 0.616040 -0.641638
O5    O     O_R   0.592530 0.907440 0.616040 -0.631637
O6    O     O_R   0.592530 0.907440 0.383960 -0.641638
O7    O     O_R   0.592530 0.092560 0.383960 -0.631877
O8    O     O_R   0.592530 0.092560 0.616040 -0.642946
O9    O     O_R   0.907330 0.407420 0.616040 -0.609035
O10   O     O_R   0.907330 0.407420 0.383960 -0.615200
O11   O     O_R   0.907330 0.592580 0.383960 -0.608994
O12   O     O_R   0.907330 0.592580 0.616040 -0.611649
O13   O     O_R   0.407330 0.907420 0.616040 -0.608994
O14   O     O_R   0.407330 0.907420 0.383960 -0.611649
O15   O     O_R   0.407330 0.092580 0.383960 -0.609035
O16   O     O_R   0.407330 0.092580 0.616040 -0.615200
Zn1   Zn    Zn3+2 0.999890 0.500000 0.654960 0.911271
Zn2   Zn    Zn3+2 0.999890 0.500000 0.345040 0.908415
Zn3   Zn    Zn3+2 0.499890 0.000000 0.654960 0.908415
Zn4   Zn    Zn3+2 0.499890 0.000000 0.345040 0.911271
N5    N     N_2   0.876922 0.240854 0.710809 -0.275111
H65   H     H_    0.826878 0.250815 0.781878 0.224927
C53   C     C_3   0.946329 0.183372 0.761676 -0.852129
H66   H     H_    0.967998 0.206002 0.865424 0.229739
H67   H     H_    0.004562 0.185604 0.691666 0.236922
H68   H     H_    0.921539 0.114477 0.769612 0.237570
N6    N     N_2   0.766058 0.353838 0.245606 -0.286683
H69   H     H_    0.760930 0.330988 0.145471 0.203567
C54   C     C_3   0.703690 0.423726 0.276003 -0.810030
H70   H     H_    0.687840 0.460481 0.179804 0.214746
H71   H     H_    0.734889 0.471401 0.347421 0.239080
H72   H     H_    0.640782 0.397168 0.318467 0.238172
N7    N     N_2   0.875692 0.758946 0.287665 -0.275626
H73   H     H_    0.825035 0.747654 0.218147 0.227080
C55   C     C_3   0.943367 0.817675 0.234412 -0.861262
H74   H     H_    0.963072 0.796329 0.129090 0.228672
H75   H     H_    0.003127 0.815546 0.301382 0.238483
H76   H     H_    0.917703 0.886354 0.229073 0.239601
N8    N     N_2   0.771121 0.648389 0.757790 -0.279239
H77   H     H_    0.768946 0.671637 0.857940 0.203560
C56   C     C_3   0.708346 0.578006 0.732171 -0.802547
H78   H     H_    0.694767 0.542029 0.829913 0.212455
H79   H     H_    0.737949 0.529776 0.659936 0.238703
H80   H     H_    0.644399 0.603924 0.692474 0.234974
N9    N     N_2   0.375692 0.741054 0.712335 -0.275626
H81   H     H_    0.325035 0.752346 0.781853 0.227080
C57   C     C_3   0.443367 0.682325 0.765588 -0.861262
H82   H     H_    0.463072 0.703671 0.870910 0.228672
H83   H     H_    0.503127 0.684454 0.698618 0.238483
H84   H     H_    0.417703 0.613646 0.770927 0.239601
N10   N     N_2   0.271121 0.851611 0.242210 -0.279239
H85   H     H_    0.268946 0.828363 0.142059 0.203560
C58   C     C_3   0.208346 0.921994 0.267829 -0.802548
H86   H     H_    0.194767 0.957971 0.170087 0.212456
H87   H     H_    0.237950 0.970224 0.340064 0.238704
H88   H     H_    0.144399 0.896076 0.307525 0.234975
N11   N     N_2   0.376922 0.259146 0.289191 -0.275111
H89   H     H_    0.326878 0.249185 0.218122 0.224927
C59   C     C_3   0.446328 0.316628 0.238323 -0.852129
H90   H     H_    0.467998 0.293998 0.134576 0.229739
H91   H     H_    0.504562 0.314396 0.308334 0.236922
H92   H     H_    0.421539 0.385523 0.230388 0.237570
N12   N     N_2   0.266058 0.146162 0.754394 -0.286683
H93   H     H_    0.260930 0.169012 0.854529 0.203567
C60   C     C_3   0.203690 0.076274 0.723997 -0.810030
H94   H     H_    0.187840 0.039519 0.820196 0.214746
H95   H     H_    0.234889 0.028599 0.652579 0.239080
H96   H     H_    0.140782 0.102832 0.681533 0.238172

loop_
_geom_bond_atom_site_label_1
_geom_bond_atom_site_label_2
_ccdc_geom_bond_type
C16   C28   S    
C53   H68   S    
N10   H85   S    
N9    H81   S    
C55   H75   S    
C29   H25   S    
C6    H59   S    
N1    Zn2   S    
N6    H69   S    
C45   H41   S    
C14   C33   S    
C56   H78   S    
C3    O6    A    
C7    C8    S    
C57   H83   S    
C45   C46   S    
O5    Zn3   S    
C41   H34   S    
N10   C58   S    
O3    Zn2   S    
O6    Zn4   S    
C43   H37   S    
C31   H30   S    
C50   N4    S    
N3    Zn4   S    
C32   C36   S    
C28   H16   S    
O8    Zn3   S    
C38   C42   S    
C19   C36   S    
C11   O13   A    
O14   Zn4   S    
C5    C6    S    
C26   C39   S    
C60   H95   S    
C28   C40   S    
C53   H66   S    
C48   H52   S    
C29   C33   S    
C46   N2    S    
O1    Zn1   S    
C32   H31   S    
C1    O2    A    
C8    H63   S    
C16   C34   S    
C10   O11   A    
C18   H6    S    
C47   N2    S    
C29   H26   S    
C20   C24   S    
N11   C59   S    
C12   O15   A    
C24   C38   S    
N8    C56   S    
C13   N5    S    
C12   C36   S    
N2    Zn1   S    
C48   H44   S    
C18   C35   S    
C19   N11   S    
C15   C34   S    
C21   H9    S    
C44   H40   S    
C8    H62   S    
C59   H92   S    
C30   H28   S    
C23   H11   S    
C24   H12   S    
C29   C43   S    
C16   N8    S    
C9    C33   S    
C6    H58   S    
C30   C44   S    
N9    C57   S    
O16   Zn3   S    
C27   H23   S    
C56   H79   S    
C57   H84   S    
C13   H1    S    
C58   H87   S    
C51   H47   S    
O15   Zn4   S    
C32   H32   S    
C50   H46   S    
C43   H38   S    
C47   H51   S    
C30   C34   S    
C51   C52   S    
C26   H14   S    
C47   C48   S    
C7    N3    S    
O4    Zn1   S    
C25   H13   S    
O2    Zn2   S    
C11   O14   A    
C57   H82   S    
C4    O8    A    
C60   H96   S    
C49   H53   S    
C19   H7    S    
O12   Zn1   S    
C58   H86   S    
C22   C37   S    
C14   N6    S    
C52   H48   S    
C17   C21   S    
C21   H17   S    
N5    C53   S    
C15   H3    S    
C7    H64   S    
C19   C23   S    
N12   H93   S    
C16   H4    S    
C13   C33   S    
C23   H19   S    
C22   H10   S    
N12   C60   S    
C46   H50   S    
C15   C27   S    
N8    H77   S    
C46   H42   S    
C4    C39   S    
C27   C40   S    
C51   N4    S    
C21   C37   S    
C10   C34   S    
N4    Zn3   S    
C14   C26   S    
N7    C55   S    
C44   H39   S    
C45   H49   S    
C1    C38   S    
N11   H89   S    
C20   N12   S    
C30   H27   S    
C14   H2    S    
C3    C40   S    
O13   Zn3   S    
C42   H36   S    
C2    O4    A    
C31   C35   S    
C54   H72   S    
C20   H8    S    
O7    Zn4   S    
O10   Zn2   S    
C18   N10   S    
C55   H74   S    
C56   H80   S    
C24   H20   S    
C58   H88   S    
C45   N1    S    
C53   H67   S    
C8    N4    S    
C32   C42   S    
C31   C41   S    
C4    O7    A    
N6    C54   S    
C18   C22   S    
C13   C25   S    
C39   C43   S    
C3    O5    A    
C48   N1    S    
C5    H60   S    
C9    O9    A    
C23   C38   S    
C41   H33   S    
C31   H29   S    
C7    H61   S    
C54   H71   S    
O11   Zn2   S    
C17   N9    S    
C54   H70   S    
C25   C39   S    
C2    C37   S    
C60   H94   S    
C49   N3    S    
C5    H57   S    
C11   C35   S    
C26   H22   S    
C22   H18   S    
C25   H21   S    
C37   C41   S    
C10   O12   A    
C15   N7    S    
C1    O1    A    
C49   H45   S    
C59   H90   S    
C20   C36   S    
C52   N3    S    
C9    O10   A    
C40   C44   S    
O9    Zn1   S    
C52   H56   S    
C51   H55   S    
C49   C50   S    
C12   O16   A    
C5    N1    S    
C27   H15   S    
C50   H54   S    
C47   H43   S    
C42   H35   S    
C17   C35   S    
C59   H91   S    
N7    H73   S    
N5    H65   S    
C6    N2    S    
C2    O3    A    
C17   H5    S    
C55   H76   S    
C28   H24   S    
