data_mof_unit_14999.cif
_audit_creation_date              2012-12-11T15:45:00-0500
_audit_creation_method            fapswitch 2.2
_symmetry_space_group_name_H-M    P1
_symmetry_Int_Tables_number       1
_space_group_crystal_system       triclinic
_cell_length_a                    19.149201
_cell_length_b                    10.923075
_cell_length_c                    18.666247
_cell_angle_alpha                 89.610394
_cell_angle_beta                  90.144533
_cell_angle_gamma                 90.071187
_cell_volume                      3904.27889524

loop_
_atom_site_label
_atom_site_type_symbol
_atom_type_description
_atom_site_fract_x
_atom_site_fract_y
_atom_site_fract_z
_atom_type_partial_charge
C1    C     C_R   0.760814 0.535162 0.647064 0.533652
C2    C     C_R   0.282244 0.011233 0.520420 -0.126257
C3    C     C_R   0.542642 0.879134 0.941294 0.046339
C4    C     C_R   0.969004 0.260326 0.974371 -0.188350
C5    C     C_R   0.989604 0.267382 0.045367 -0.169719
C6    C     C_R   0.440039 0.780056 0.987225 -0.203519
C7    C     C_R   0.468657 0.781731 0.055813 -0.158666
C8    C     C_3   0.088453 0.555234 0.003945 -0.114322
C9    C     C_3   0.054786 0.549070 0.930093 -0.098174
C10   C     C_3   0.607494 0.002141 0.991915 -0.110575
C11   C     C_3   0.577777 0.992718 0.916027 -0.084937
C12   C     C_R   0.760040 0.532909 0.851526 0.535425
C13   C     C_R   0.325877 0.590456 0.447136 -0.160644
C14   C     C_R   0.241262 0.538276 0.150668 0.534534
C15   C     C_R   0.261530 0.029845 0.852858 0.533687
C16   C     C_R   0.741836 0.037661 0.149945 0.524003
C17   C     C_R   0.790965 0.172698 0.860062 0.562663
C18   C     C_R   0.227355 0.124491 0.147453 0.541459
C19   C     C_R   0.290537 0.673032 0.859827 0.548325
C20   C     C_R   0.710707 0.668538 0.139413 0.550150
C21   C     C_R   0.968494 0.346365 0.854025 0.540351
C22   C     C_R   0.063554 0.352379 0.139303 0.571115
C23   C     C_R   0.442823 0.850047 0.861965 0.534775
C24   C     C_R   0.782241 0.511253 0.520434 -0.125652
C25   C     C_R   0.560228 0.851071 0.138499 0.544939
C26   C     C_R   0.759293 0.108013 0.416119 0.004659
C27   C     C_R   0.252377 0.079985 0.575678 0.034103
C28   C     C_R   0.259278 0.608024 0.416129 0.003928
C29   C     C_R   0.752369 0.579991 0.575693 0.035327
C30   C     C_R   0.710870 0.177206 0.454377 0.013301
C31   C     C_R   0.202187 0.167965 0.559851 0.010652
C32   C     C_R   0.210836 0.677158 0.454404 0.012345
C33   C     C_R   0.702193 0.667985 0.559872 0.009672
C34   C     C_R   0.722491 0.203176 0.526031 0.027017
C35   C     C_3   0.634450 0.159541 0.465621 -0.256163
C36   C     C_R   0.188544 0.198337 0.489169 0.014369
C37   C     C_R   0.222462 0.703114 0.526058 0.027601
C38   C     C_R   0.688560 0.698392 0.489191 0.013906
C39   C     C_3   0.933521 0.941922 0.068744 -0.291043
C40   C     C_3   0.938502 0.937743 0.150225 -0.399539
C41   C     C_3   0.064988 0.042921 0.905243 -0.255038
C42   C     C_3   0.045094 0.957210 0.844141 -0.439310
C43   C     C_3   0.378714 0.354695 0.060237 -0.254134
C44   C     C_3   0.427744 0.463526 0.072046 -0.423125
C45   C     C_3   0.554827 0.552559 0.896699 -0.274249
C46   C     C_3   0.200456 0.298764 0.582546 -0.282289
C47   C     C_3   0.563335 0.517268 0.818259 -0.394718
C48   C     C_3   0.053109 0.644366 0.056190 -0.268108
C49   C     C_3   0.974478 0.626215 0.066518 -0.406504
C50   C     C_3   0.098891 0.591438 0.865739 -0.265283
C51   C     C_3   0.141640 0.490534 0.829626 -0.382849
C52   C     C_3   0.580845 0.115679 0.032408 -0.276720
C53   C     C_3   0.502156 0.130281 0.038422 -0.430113
C54   C     C_3   0.630110 0.972269 0.854936 -0.281402
C55   C     C_3   0.673839 0.855863 0.859227 -0.423786
C56   C     C_3   0.134421 0.659443 0.465667 -0.256038
C57   C     C_3   0.700474 0.798749 0.582610 -0.282486
C58   C     C_3   0.647510 0.184681 0.544447 -0.263030
C59   C     C_3   0.185825 0.331671 0.504994 -0.280581
C60   C     C_3   0.147492 0.684558 0.544498 -0.263019
C61   C     C_R   0.239915 0.535671 0.353245 0.530963
C62   C     C_3   0.685878 0.831722 0.505058 -0.280338
C63   C     C_R   0.782959 0.162705 0.561337 -0.000828
C64   C     C_R   0.223206 0.138868 0.433897 0.033720
C65   C     C_R   0.282954 0.662716 0.561345 -0.000134
C66   C     C_R   0.723211 0.638911 0.433910 0.031968
C67   C     C_R   0.989489 0.329352 0.420729 -0.042953
C68   C     C_R   0.996837 0.346855 0.571133 -0.046120
C69   C     C_R   0.489584 0.829309 0.420800 -0.043767
C70   C     C_R   0.496925 0.846880 0.571198 -0.047488
C71   C     C_R   0.006365 0.104789 0.432109 -0.083903
C72   C     C_R   0.260821 0.035143 0.647051 0.539637
C73   C     C_R   0.031567 0.129873 0.578129 -0.085921
C74   C     C_R   0.506574 0.604752 0.432256 -0.084171
C75   C     C_R   0.531715 0.629965 0.578283 -0.086057
C76   C     C_R   0.024383 0.002884 0.473439 -0.130327
C77   C     C_R   0.038310 0.015963 0.546045 -0.119906
C78   C     C_R   0.524585 0.502890 0.473634 -0.130125
C79   C     C_R   0.538477 0.516033 0.546244 -0.120029
C80   C     C_R   0.009842 0.233310 0.537968 -0.007256
C81   C     C_R   0.001931 0.222623 0.462868 0.006873
C82   C     C_R   0.509983 0.733346 0.538069 -0.007033
C83   C     C_R   0.739920 0.035677 0.353237 0.533917
C84   C     C_R   0.502094 0.722611 0.462969 0.006581
C85   C     C_R   0.984120 0.453147 0.527352 0.005406
C86   C     C_R   0.969045 0.437925 0.454348 -0.000721
C87   C     C_R   0.484189 0.953140 0.527398 0.004736
C88   C     C_R   0.469104 0.937868 0.454405 -0.000533
C89   C     C_R   0.791763 0.173071 0.638951 0.570455
C90   C     C_R   0.208446 0.171073 0.361045 0.566118
C91   C     C_R   0.291763 0.673073 0.638955 0.570399
C92   C     C_R   0.708444 0.671087 0.361048 0.568471
C93   C     C_R   0.985192 0.575196 0.553499 -0.075185
C94   C     C_R   0.837300 0.116417 0.519382 -0.167248
C95   C     C_R   0.939528 0.535911 0.414639 -0.083982
C96   C     C_R   0.485232 0.075199 0.553526 -0.075537
C97   C     C_R   0.439528 0.035797 0.414695 -0.083642
C98   C     C_R   0.958663 0.672382 0.512999 -0.131058
C99   C     C_R   0.933452 0.651849 0.444385 -0.118387
C100  C     C_R   0.458660 0.172341 0.513022 -0.131065
C101  C     C_R   0.433421 0.151743 0.444426 -0.117672
C102  C     C_R   0.764850 0.103907 0.085157 0.001518
C103  C     C_R   0.253721 0.074335 0.924731 -0.003142
C104  C     C_R   0.255862 0.589365 0.080751 0.001347
C105  C     C_R   0.267060 0.039822 0.449438 -0.128723
C106  C     C_R   0.745654 0.591392 0.919009 0.004453
C107  C     C_R   0.820533 0.055782 0.045836 0.042443
C108  C     C_R   0.187719 0.080042 0.955431 0.010066
C109  C     C_R   0.284024 0.510342 0.031498 0.038361
C110  C     C_R   0.677464 0.598453 0.946298 0.023739
C111  C     C_R   0.821224 0.069021 0.973593 -0.010881
C112  C     C_R   0.181273 0.091362 0.028255 0.010545
C113  C     C_R   0.290779 0.536142 0.962121 0.002257
C114  C     C_R   0.666791 0.625147 0.017613 -0.011859
C115  C     C_R   0.742740 0.235441 0.980963 -0.170648
C116  C     C_R   0.337311 0.616531 0.519372 -0.167323
C117  C     C_R   0.306304 0.089672 0.043682 -0.185559
C118  C     C_R   0.251729 0.739353 0.982933 -0.201422
C119  C     C_R   0.790734 0.642362 0.036395 -0.176283
C120  C     C_R   0.731828 0.207335 0.054742 -0.175949
C121  C     C_R   0.313414 0.083318 0.969249 -0.173969
C122  C     C_R   0.240290 0.708954 0.056398 -0.190902
C123  C     C_R   0.801968 0.620919 0.963923 -0.177663
C124  C     C_3   0.858271 0.935609 0.040203 -0.111939
C125  C     C_3   0.126414 0.993558 0.950406 -0.112155
C126  C     C_3   0.309010 0.383345 0.022888 -0.094235
C127  C     C_R   0.767063 0.539860 0.449452 -0.128257
C128  C     C_3   0.616260 0.511247 0.944046 -0.116158
C129  C     C_3   0.855750 0.950754 0.958619 -0.264448
C130  C     C_3   0.118798 0.009830 0.030954 -0.255849
C131  C     C_3   0.317126 0.412938 0.942737 -0.239030
C132  C     C_3   0.605922 0.539837 0.023132 -0.262436
C133  C     C_R   0.782358 0.156290 0.937501 -0.007075
C134  C     C_R   0.239653 0.091755 0.073670 0.006422
C135  C     C_R   0.275732 0.649199 0.934308 -0.009530
C136  C     C_R   0.723048 0.642776 0.064304 0.011160
C137  C     C_R   0.971145 0.347764 0.646062 0.521669
C138  C     C_R   0.825873 0.090350 0.447146 -0.160479
C139  C     C_R   0.026097 0.343983 0.351458 0.533901
C140  C     C_R   0.471175 0.847767 0.646093 0.528490
C141  C     C_R   0.526127 0.843972 0.351488 0.532847
C142  C     C_R   0.043863 0.346298 0.065205 0.020623
C143  C     C_R   0.000052 0.335147 0.922900 0.003251
C144  C     C_R   0.533132 0.839989 0.067425 0.017703
C145  C     C_R   0.474840 0.838226 0.930857 0.001733
C146  C     C_R   0.076554 0.418632 0.012583 -0.012930
C147  C     C_R   0.051914 0.414969 0.943081 0.020283
C148  C     C_R   0.570927 0.883333 0.008843 -0.018688
Cr1   Cr    Cr6+3 0.885860 0.491680 0.749630 0.984854
Cr2   Cr    Cr6+3 0.112430 0.179310 0.249850 0.987281
Cr3   Cr    Cr6+3 0.387570 0.679310 0.750150 0.970386
Cr4   Cr    Cr6+3 0.612430 0.679310 0.249850 0.992675
Cr5   Cr    Cr6+3 0.114140 0.491680 0.250370 0.984592
Cr6   Cr    Cr6+3 0.385860 0.991680 0.749630 0.982536
Cr7   Cr    Cr6+3 0.614140 0.991680 0.250370 0.988306
Cr8   Cr    Cr6+3 0.730490 0.332970 0.748720 0.970206
Cr9   Cr    Cr6+3 0.269510 0.332970 0.251280 0.980317
Cr10  Cr    Cr6+3 0.230490 0.832970 0.748720 0.959228
Cr11  Cr    Cr6+3 0.769510 0.832970 0.251280 0.971544
Cr12  Cr    Cr6+3 0.887570 0.179310 0.750150 0.975688
H1    H     H_    0.886405 0.090409 0.543668 0.157887
H2    H     H_    0.352112 0.093376 0.077580 0.116326
H3    H     H_    0.665368 0.050718 0.854784 0.190610
H4    H     H_    0.116455 0.564890 0.454795 0.159414
H5    H     H_    0.751979 0.832307 0.602040 0.154329
H6    H     H_    0.616469 0.064989 0.454763 0.159052
H7    H     H_    0.251962 0.332372 0.601940 0.154362
H8    H     H_    0.027450 0.913609 0.448952 0.103162
H9    H     H_    0.053219 0.937591 0.578129 0.103336
H10   H     H_    0.527668 0.413591 0.449180 0.103967
H11   H     H_    0.553373 0.437702 0.578367 0.103528
H12   H     H_    0.244638 0.832000 0.964900 0.131482
H13   H     H_    0.835009 0.653658 0.071495 0.132958
H14   H     H_    0.695532 0.261024 0.085809 0.119964
H15   H     H_    0.365468 0.076323 0.947199 0.139463
H16   H     H_    0.220089 0.776670 0.092909 0.123287
H17   H     H_    0.855137 0.615434 0.944746 0.135681
H18   H     H_    0.926150 0.202443 0.960003 0.138242
H19   H     H_    0.960758 0.216645 0.085509 0.143213
H20   H     H_    0.389745 0.739848 0.979302 0.127460
H21   H     H_    0.290485 0.987001 0.406893 0.129072
H22   H     H_    0.439098 0.743600 0.100039 0.140116
H23   H     H_    0.144682 0.573081 0.999773 0.150199
H24   H     H_    0.001786 0.589890 0.927851 0.154614
H25   H     H_    0.665079 0.992199 0.994666 0.136147
H26   H     H_    0.540993 0.067389 0.901826 0.156245
H27   H     H_    0.866498 0.042629 0.418515 0.140447
H28   H     H_    0.316952 0.935400 0.532329 0.124140
H29   H     H_    0.366524 0.542822 0.418487 0.141015
H30   H     H_    0.816947 0.435415 0.532340 0.124214
H31   H     H_    0.603311 0.232162 0.438608 0.143407
H32   H     H_    0.386442 0.590615 0.543643 0.157840
H33   H     H_    0.155765 0.318135 0.618622 0.130008
H34   H     H_    0.103262 0.732062 0.438674 0.142494
H35   H     H_    0.655776 0.818080 0.618685 0.131471
H36   H     H_    0.622773 0.270108 0.563355 0.138801
H37   H     H_    0.132904 0.369767 0.496246 0.135285
H38   H     H_    0.122740 0.769960 0.563427 0.138728
H39   H     H_    0.632974 0.869887 0.496303 0.135351
H40   H     H_    0.639194 0.103019 0.579331 0.139198
H41   H     H_    0.229105 0.383194 0.479393 0.148149
H42   H     H_    0.139205 0.602879 0.579377 0.137674
H43   H     H_    0.790489 0.487039 0.406908 0.131792
H44   H     H_    0.729182 0.883221 0.479483 0.147918
H45   H     H_    0.992899 0.089083 0.376651 0.129057
H46   H     H_    0.044907 0.136600 0.634316 0.126449
H47   H     H_    0.493130 0.588978 0.376803 0.130743
H48   H     H_    0.545032 0.636746 0.634480 0.123753
H49   H     H_    0.922257 0.523010 0.359882 0.129913
H50   H     H_    0.008776 0.598580 0.604217 0.134427
H51   H     H_    0.422233 0.022845 0.359950 0.127587
H52   H     H_    0.508812 0.098614 0.604240 0.134956
H53   H     H_    0.827121 0.858746 0.060903 0.169508
H54   H     H_    0.957977 0.763817 0.534936 0.106468
H55   H     H_    0.140606 0.898016 0.937060 0.157712
H56   H     H_    0.266238 0.318118 0.034049 0.145902
H57   H     H_    0.629032 0.414180 0.935331 0.147541
H58   H     H_    0.915897 0.022201 0.173375 0.176770
H59   H     H_    0.910928 0.856060 0.171810 0.164265
H60   H     H_    0.994267 0.932568 0.166443 0.120066
H61   H     H_    0.964161 0.866450 0.046047 0.142484
H62   H     H_    0.958539 0.026183 0.049224 0.139801
H63   H     H_    0.087444 0.951799 0.804006 0.183278
H64   H     H_    0.033444 0.864106 0.865328 0.120337
H65   H     H_    0.911768 0.726654 0.413202 0.122448
H66   H     H_    0.997615 0.992658 0.816753 0.147864
H67   H     H_    0.018257 0.050319 0.939264 0.142611
H68   H     H_    0.077425 0.134585 0.882489 0.167860
H69   H     H_    0.436411 0.514052 0.021212 0.146617
H70   H     H_    0.405784 0.526693 0.112380 0.174686
H71   H     H_    0.478748 0.429889 0.092447 0.121488
H72   H     H_    0.369431 0.308623 0.112410 0.186684
H73   H     H_    0.404745 0.289816 0.024858 0.130142
H74   H     H_    0.605296 0.572511 0.792882 0.168576
H75   H     H_    0.575137 0.418135 0.813434 0.148823
H76   H     H_    0.457950 0.263787 0.534944 0.106631
H77   H     H_    0.514002 0.536246 0.788864 0.146326
H78   H     H_    0.506131 0.509394 0.916899 0.138894
H79   H     H_    0.549136 0.652203 0.899572 0.183079
H80   H     H_    0.906970 0.962509 0.931771 0.141763
H81   H     H_    0.072710 0.062244 0.048521 0.148627
H82   H     H_    0.371840 0.415921 0.922949 0.148667
H83   H     H_    0.557072 0.589334 0.035432 0.147057
H84   H     H_    0.819998 0.884762 0.932345 0.135637
H85   H     H_    0.128401 0.924573 0.062181 0.117584
H86   H     H_    0.280404 0.360887 0.908356 0.123003
H87   H     H_    0.411687 0.226505 0.413245 0.123225
H88   H     H_    0.616582 0.459904 0.058701 0.134358
H89   H     H_    0.945896 0.668070 0.021083 0.109001
H90   H     H_    0.958776 0.529126 0.070423 0.191685
H91   H     H_    0.957954 0.672067 0.116488 0.139623
H92   H     H_    0.079848 0.639890 0.108661 0.196754
H93   H     H_    0.062211 0.738615 0.035703 0.115949
H94   H     H_    0.179360 0.450783 0.868190 0.149012
H95   H     H_    0.106911 0.417019 0.809381 0.139877
H96   H     H_    0.170162 0.528037 0.782749 0.184696
H97   H     H_    0.063141 0.630300 0.824491 0.142069
H98   H     H_    0.719129 0.314707 0.957517 0.129607
H99   H     H_    0.132232 0.667861 0.883677 0.171671
H100  H     H_    0.480051 0.158423 0.986019 0.122082
H101  H     H_    0.475021 0.047033 0.057032 0.184969
H102  H     H_    0.492482 0.201655 0.079067 0.129158
H103  H     H_    0.602021 0.114347 0.087141 0.197820
H104  H     H_    0.600828 0.198940 0.004922 0.132593
H105  H     H_    0.698827 0.846323 0.912521 0.149751
H106  H     H_    0.640475 0.775313 0.848125 0.155913
H107  H     H_    0.715490 0.859431 0.817980 0.154410
H108  H     H_    0.601473 0.972909 0.803072 0.167637
O1    O     O_R   0.957020 0.451640 0.669920 -0.526083
O2    O     O_R   0.168040 0.093290 0.169870 -0.523486
O3    O     O_R   0.331960 0.593290 0.830130 -0.519432
O4    O     O_R   0.668040 0.593290 0.169870 -0.512583
O5    O     O_R   0.945600 0.250580 0.824860 -0.526814
O6    O     O_R   0.054400 0.250580 0.175140 -0.513518
O7    O     O_R   0.445600 0.750580 0.824860 -0.518994
O8    O     O_R   0.554400 0.750580 0.175140 -0.520683
O9    O     O_3   0.834640 0.334650 0.749500 -0.275541
O10   O     O_3   0.165360 0.334650 0.250500 -0.276814
O11   O     O_3   0.334640 0.834650 0.749500 -0.288543
O12   O     O_R   0.042980 0.451640 0.330080 -0.514719
O13   O     O_3   0.665360 0.834650 0.250500 -0.290647
O14   O     O_R   0.821450 0.543440 0.674610 -0.497475
O15   O     O_R   0.178550 0.543440 0.325390 -0.498058
O16   O     O_R   0.321450 0.043440 0.674610 -0.495297
O17   O     O_R   0.678550 0.043440 0.325390 -0.493782
O18   O     O_R   0.715320 0.458650 0.668100 -0.530521
O19   O     O_R   0.284680 0.458650 0.331900 -0.535287
O20   O     O_R   0.215320 0.958650 0.668100 -0.527691
O21   O     O_R   0.784680 0.958650 0.331900 -0.537121
O22   O     O_R   0.737170 0.209590 0.674530 -0.496649
O23   O     O_R   0.457020 0.951640 0.669920 -0.522839
O24   O     O_R   0.262830 0.209590 0.325470 -0.506804
O25   O     O_R   0.237170 0.709590 0.674530 -0.501808
O26   O     O_R   0.762830 0.709590 0.325470 -0.501213
O27   O     O_R   0.832710 0.092740 0.669580 -0.518262
O28   O     O_R   0.167290 0.092740 0.330420 -0.512126
O29   O     O_R   0.332710 0.592740 0.669580 -0.519001
O30   O     O_R   0.667290 0.592740 0.330420 -0.504921
O31   O     O_R   0.946290 0.250060 0.676040 -0.518270
O32   O     O_R   0.053710 0.250060 0.323960 -0.516441
O33   O     O_R   0.446290 0.750060 0.676040 -0.515586
O34   O     O_R   0.542980 0.951640 0.330080 -0.513104
O35   O     O_R   0.553710 0.750060 0.323960 -0.516243
O36   O     O_R   0.956270 0.452200 0.830470 -0.527019
O37   O     O_R   0.043730 0.452200 0.169530 -0.524240
O38   O     O_R   0.456270 0.952200 0.830470 -0.533406
O39   O     O_R   0.543730 0.952200 0.169530 -0.518883
O40   O     O_R   0.820760 0.543950 0.823440 -0.507461
O41   O     O_R   0.179240 0.543950 0.176560 -0.530604
O42   O     O_R   0.320760 0.043950 0.823440 -0.518208
O43   O     O_R   0.679240 0.043950 0.176560 -0.527663
O44   O     O_R   0.714570 0.459210 0.828640 -0.538786
O45   O     O_R   0.736470 0.210100 0.823360 -0.519083
O46   O     O_R   0.285430 0.459210 0.171360 -0.519744
O47   O     O_R   0.214570 0.959210 0.828640 -0.537225
O48   O     O_R   0.785430 0.959210 0.171360 -0.533536
O49   O     O_R   0.263530 0.210100 0.176640 -0.512516
O50   O     O_R   0.236470 0.710100 0.823360 -0.518766
O51   O     O_R   0.763530 0.710100 0.176640 -0.507208
O52   O     O_R   0.831960 0.093290 0.830130 -0.517986

loop_
_geom_bond_atom_site_label_1
_geom_bond_atom_site_label_2
_ccdc_geom_bond_type
C73   H46   S    
C70   C140  S    
C26   C83   S    
Cr5   O15   S    
C142  C146  A    
Cr6   O16   S    
C55   H105  S    
C57   H35   S    
C130  H81   S    
C95   C99   A    
C29   C33   A    
C10   H25   S    
Cr9   O46   S    
C141  O35   A    
C5    H19   S    
C23   O7    A    
C24   C127  A    
C72   O16   A    
Cr7   O17   S    
C88   C97   A    
C60   H38   S    
C124  H53   S    
C28   C61   S    
C20   O51   A    
Cr8   O44   S    
C10   C52   S    
C40   H60   S    
C107  C124  S    
C51   H96   S    
C1    O18   A    
Cr5   O41   S    
C47   H75   S    
C45   C47   S    
C46   H7    S    
C27   C31   A    
C41   C125  S    
C28   C32   A    
C14   O41   A    
Cr4   O8    S    
C137  O1    A    
C43   H72   S    
C19   O3    A    
C39   C124  S    
C17   O45   A    
Cr5   O10   S    
C48   H92   S    
C43   C44   S    
C1    C29   S    
C69   C88   A    
C49   H90   S    
C60   H42   S    
Cr7   O39   S    
C82   C84   A    
C17   O52   A    
C17   C133  S    
Cr9   O49   S    
C100  H76   S    
C19   O50   A    
C103  C121  A    
C146  C147  A    
C70   C82   A    
C65   C91   S    
C52   H103  S    
Cr12  O31   S    
C89   O27   A    
Cr2   O6    S    
C112  C134  A    
C4    C5    A    
C6    C7    A    
C119  C123  A    
C56   H4    S    
C33   C38   A    
Cr10  O47   S    
C139  O32   A    
C9    H24   S    
C140  O23   A    
C125  H55   S    
C121  H15   S    
C122  H16   S    
C12   O40   A    
C91   O25   A    
C76   H8    S    
C14   O46   A    
C3    C11   S    
C86   C95   A    
C71   H45   S    
C98   C99   A    
C113  C135  A    
C34   C58   S    
C73   C77   A    
C31   C36   A    
C23   O38   A    
C24   H30   S    
C15   C103  S    
C48   H93   S    
C36   C64   A    
C51   H94   S    
C69   C141  S    
C10   C148  S    
C38   C62   S    
C25   O39   A    
Cr3   O29   S    
Cr2   O2    S    
Cr11  O21   S    
C83   O21   A    
C85   C86   A    
C63   C94   A    
Cr5   O12   S    
C61   O15   A    
Cr6   O11   S    
C62   H39   S    
C25   O8    A    
C104  C122  A    
Cr6   O23   S    
C78   H10   S    
C53   H101  S    
C118  C122  A    
C85   C93   A    
C31   C46   S    
C37   C65   A    
C39   H62   S    
Cr1   O9    S    
C54   H3    S    
C67   C139  S    
C110  C114  A    
C16   O43   A    
C53   H100  S    
C68   C85   A    
C63   C89   S    
C42   H64   S    
C70   C87   A    
C130  H85   S    
C74   H47   S    
C42   H66   S    
C30   C34   A    
C39   C40   S    
C66   C92   S    
Cr7   O13   S    
C44   H69   S    
C45   H79   S    
C131  H86   S    
C22   C142  S    
Cr8   O22   S    
C102  C107  A    
C32   C37   A    
C20   C136  S    
C94   H1    S    
C62   H44   S    
C11   C54   S    
C126  H56   S    
C56   H34   S    
Cr6   O42   S    
C8    H23   S    
C120  H14   S    
C67   C81   A    
C137  O31   A    
C25   C144  S    
Cr11  O51   S    
C18   O2    A    
C52   C53   S    
Cr12  O52   S    
C54   C55   S    
C35   H31   S    
C97   H51   S    
C6    H20   S    
C107  C111  A    
C8    C146  S    
Cr10  O25   S    
C74   C84   A    
C21   O5    A    
C75   C82   A    
C26   C30   A    
C129  H84   S    
C117  H2    S    
C69   C84   A    
C5    C142  A    
C75   C79   A    
C96   C100  A    
C58   H36   S    
C100  C101  A    
C18   C134  S    
Cr10  O50   S    
C98   H54   S    
C10   C11   S    
C27   C72   S    
C109  C126  S    
C110  C128  S    
C93   H50   S    
C105  H21   S    
Cr3   O7    S    
C71   C81   A    
C87   C88   A    
C96   H52   S    
C11   H26   S    
C41   C42   S    
C64   C90   S    
C123  H17   S    
C36   C59   S    
C51   H95   S    
C12   O44   A    
C44   H71   S    
C71   C76   A    
C57   H5    S    
C45   C128  S    
C19   C135  S    
C92   O26   A    
C35   H6    S    
C79   H11   S    
C24   C29   A    
C47   H77   S    
C111  C129  S    
C90   O24   A    
C13   C28   A    
C2    C27   A    
Cr3   O33   S    
Cr4   O30   S    
C83   O17   A    
C49   H89   S    
Cr6   O38   S    
Cr8   O45   S    
Cr9   O24   S    
C68   C137  S    
C55   H106  S    
C117  C134  A    
C141  O34   A    
C52   H104  S    
C95   H49   S    
C139  O12   A    
C64   C105  A    
C43   H73   S    
Cr12  O27   S    
C4    H18   S    
C6    C145  A    
C132  H88   S    
C115  C133  A    
C54   H108  S    
C108  C112  A    
C92   O30   A    
Cr10  O20   S    
C8    C48   S    
C75   H48   S    
C118  H12   S    
C50   C51   S    
C99   H65   S    
C48   C49   S    
C35   C58   S    
C40   H59   S    
C94   C138  A    
C101  H87   S    
C102  C120  A    
C16   O48   A    
C116  H32   S    
C67   C86   A    
Cr12  O9    S    
C26   C138  A    
C131  H82   S    
Cr11  O48   S    
C21   O36   A    
Cr1   O1    S    
C119  H13   S    
C1    O14   A    
Cr11  O13   S    
C124  C129  S    
C2    H28   S    
C13   C116  A    
C49   H91   S    
C15   O42   A    
C56   C60   S    
C74   C78   A    
C39   H61   S    
C127  H43   S    
C128  H57   S    
C32   C56   S    
C118  C135  A    
C22   O6    A    
C140  O33   A    
C68   C80   A    
C41   H67   S    
C46   C59   S    
C72   O20   A    
Cr11  O26   S    
C144  C148  A    
C4    C143  A    
Cr8   O18   S    
C57   C62   S    
Cr9   O19   S    
C143  C147  A    
C23   C145  S    
C58   H40   S    
C30   C35   S    
C22   O37   A    
Cr4   O4    S    
C104  C109  A    
Cr5   O37   S    
C50   H99   S    
C91   O29   A    
C13   H29   S    
C66   C127  A    
C117  C121  A    
C45   H78   S    
C44   H70   S    
Cr9   O10   S    
C125  C130  S    
Cr1   O40   S    
C38   C66   A    
C8    C9    S    
C106  C123  A    
Cr1   O14   S    
C103  C108  A    
C108  C125  S    
C20   O4    A    
C109  C113  A    
C47   H74   S    
C3    C148  A    
C114  C136  A    
C15   O47   A    
C128  C132  S    
C43   C126  S    
C7    C144  A    
C3    C145  A    
Cr7   O43   S    
C55   H107  S    
C76   C77   A    
C21   C143  S    
C78   C79   A    
C111  C133  A    
C90   O28   A    
C9    C147  S    
Cr2   O32   S    
C53   H102  S    
Cr2   O10   S    
C59   H41   S    
C132  H83   S    
C14   C104  S    
Cr1   O36   S    
C87   C96   A    
C18   O49   A    
C16   C102  S    
C129  H80   S    
C65   C116  A    
C42   H63   S    
Cr4   O13   S    
C46   H33   S    
C106  C110  A    
C33   C57   S    
C113  C131  S    
C7    H22   S    
C40   H58   S    
C114  C132  S    
C9    C50   S    
C80   C81   A    
C115  H98   S    
C50   H97   S    
Cr3   O11   S    
C2    C105  A    
Cr2   O28   S    
C138  H27   S    
Cr8   O9    S    
C119  C136  A    
C12   C106  S    
Cr3   O3    S    
Cr10  O11   S    
C126  C131  S    
C59   H37   S    
Cr7   O34   S    
C34   C63   A    
C73   C80   A    
C61   O19   A    
C41   H68   S    
C37   C60   S    
C89   O22   A    
C77   H9    S    
C115  C120  A    
C112  C130  S    
Cr12  O5    S    
Cr4   O35   S    
C93   C98   A    
C97   C101  A    
