data_mof_unit_66286.cif
_audit_creation_date              2012-12-10T19:04:56-0500
_audit_creation_method            fapswitch 2.2
_symmetry_space_group_name_H-M    P1
_symmetry_Int_Tables_number       1
_space_group_crystal_system       triclinic
_cell_length_a                    13.060164
_cell_length_b                    13.627053
_cell_length_c                    15.758055
_cell_angle_alpha                 90.021215
_cell_angle_beta                  92.534741
_cell_angle_gamma                 85.734529
_cell_volume                      2793.96905748

loop_
_atom_site_label
_atom_site_type_symbol
_atom_type_description
_atom_site_fract_x
_atom_site_fract_y
_atom_site_fract_z
_atom_type_partial_charge
Br1   Br    Br    0.272977 0.486928 0.902249 -0.405376
Br2   Br    Br    0.412045 0.305167 0.091270 -0.457977
C1    C     C_R   0.481226 0.685155 0.499105 0.891908
C2    C     C_2   0.544529 0.020502 0.501982 -0.143654
C3    C     C_2   0.455461 0.979500 0.497825 -0.139073
C4    C     C_R   0.499207 0.499951 0.661968 0.896656
C5    C     C_1   0.457514 0.875751 0.497937 0.040461
C6    C     C_1   0.542478 0.124251 0.501928 0.040703
C7    C     C_1   0.466339 0.788329 0.498374 -0.141728
C8    C     C_2   0.033120 0.473771 0.476599 -0.391108
C9    C     C_2   0.966581 0.527690 0.524775 0.609291
C10   C     C_1   0.854646 0.519782 0.517544 0.056451
C11   C     C_1   0.145283 0.480724 0.482939 0.288691
C12   C     C_3   0.396066 0.547368 0.046738 -0.433210
C13   C     C_R   0.518773 0.314845 0.500886 0.897407
C14   C     C_R   0.500773 0.500022 0.338030 0.894987
C15   C     C_3   0.393944 0.548939 0.948338 0.729692
C16   C     C_3   0.587354 0.554566 0.953485 -0.355762
C17   C     C_3   0.588148 0.555280 0.051377 -0.456407
C18   C     C_1   0.502179 0.499343 0.249284 -0.136198
C19   C     C_3   0.496515 0.497754 0.917345 -0.017446
C20   C     C_3   0.499412 0.497193 0.082571 0.065560
C21   C     C_3   0.513649 0.389703 0.049303 0.025240
C22   C     C_3   0.510548 0.390105 0.950914 0.382701
C23   C     C_1   0.501703 0.498412 0.174038 0.027999
C24   C     C_1   0.496804 0.498551 0.825897 0.095332
C25   C     C_1   0.497632 0.499258 0.750700 -0.089086
C26   C     C_1   0.533657 0.211673 0.501553 -0.142859
F1    F     F_    0.003350 0.592027 0.582446 -0.612199
F2    F     F_    0.383960 0.646001 0.920665 -0.618505
F3    F     F_    0.600867 0.343505 0.922743 -0.631824
H1    H     H_    0.386138 0.624032 0.071149 0.222011
H2    H     H_    0.663438 0.521957 0.077451 0.205031
H3    H     H_    0.446546 0.347892 0.925297 0.164380
H4    H     H_    0.330803 0.508552 0.069986 0.218084
H5    H     H_    0.589789 0.356379 0.073508 0.200339
H6    H     H_    0.382177 0.023076 0.494425 0.173091
H7    H     H_    0.617813 0.976926 0.505390 0.172430
H8    H     H_    0.003342 0.422491 0.430644 0.129264
H9    H     H_    0.661703 0.519638 0.932409 0.236027
H10   H     H_    0.580875 0.631607 0.929272 0.230244
H11   H     H_    0.579841 0.632664 0.074264 0.216416
N1    N     N_1   0.234540 0.484780 0.486630 -0.086178
N2    N     N_1   0.765460 0.515220 0.513370 -0.084472
O1    O     O_R   0.402510 0.634760 0.495110 -0.598550
O2    O     O_R   0.572960 0.644530 0.503690 -0.600781
O3    O     O_R   0.414740 0.495110 0.618560 -0.588187
O4    O     O_R   0.585180 0.504880 0.627150 -0.599207
O5    O     O_R   0.427040 0.355470 0.496310 -0.604731
O6    O     O_R   0.597490 0.365240 0.504890 -0.605410
O7    O     O_R   0.414820 0.495120 0.372850 -0.603098
O8    O     O_R   0.585260 0.504890 0.381440 -0.614846
Zn1   Zn    Zn3+2 0.386190 0.493480 0.494270 1.033814
Zn2   Zn    Zn3+2 0.613810 0.506520 0.505730 1.013665

loop_
_geom_bond_atom_site_label_1
_geom_bond_atom_site_label_2
_ccdc_geom_bond_type
C9    C10   S    
C14   O7    A    
C1    C7    S    
C3    H6    S    
C16   C19   S    
C1    O2    A    
Br1   C15   S    
C4    C25   S    
C17   H11   S    
C2    C6    S    
O3    Zn1   S    
C12   C20   S    
N1    Zn1   S    
C13   C26   S    
C22   F3    S    
O1    Zn1   S    
C10   N2    T    
O4    Zn2   S    
C15   F2    S    
C12   C15   S    
O2    Zn2   S    
C24   C25   T    
O6    Zn2   S    
C4    O4    A    
O5    Zn1   S    
C14   C18   S    
C4    O3    A    
C19   C24   S    
C2    H7    S    
C16   C17   S    
C8    C9    D    
C13   O5    A    
C14   O8    A    
C6    C26   T    
C22   H3    S    
C19   C22   S    
C18   C23   T    
C21   C22   S    
N2    Zn2   S    
C11   N1    T    
C17   C20   S    
C12   H4    S    
C9    F1    S    
C3    C5    S    
C21   H5    S    
C17   H2    S    
C13   O6    A    
C12   H1    S    
Br2   C21   S    
C5    C7    T    
C16   H9    S    
C20   C21   S    
C2    C3    D    
C20   C23   S    
C1    O1    A    
C15   C19   S    
C16   H10   S    
O8    Zn2   S    
C8    H8    S    
O7    Zn1   S    
C8    C11   S    
