data_mof_unit_45206.cif
_audit_creation_date              2012-10-26T17:46:32-0400
_audit_creation_method            fapswitch 2.2
_symmetry_space_group_name_H-M    P1
_symmetry_Int_Tables_number       1
_space_group_crystal_system       triclinic
_cell_length_a                    18.762128
_cell_length_b                    18.740188
_cell_length_c                    18.930956
_cell_angle_alpha                 109.596498
_cell_angle_beta                  109.300345
_cell_angle_gamma                 109.271389
_cell_volume                      5139.39485666

loop_
_atom_site_label
_atom_site_type_symbol
_atom_type_description
_atom_site_fract_x
_atom_site_fract_y
_atom_site_fract_z
_atom_type_partial_charge
C1    C     C_R   0.383489 0.501732 0.382085 0.546549
C2    C     C_R   0.826257 0.816376 0.575372 -0.162354
C3    C     C_R   0.273078 0.310121 0.717330 -0.102908
C4    C     C_R   0.330139 0.306168 0.783597 -0.099378
C5    C     C_R   0.078629 0.324823 0.818556 -0.162219
C6    C     C_R   0.999376 0.314406 0.813384 -0.002143
C7    C     C_R   0.920223 0.240538 0.742835 -0.032754
C8    C     C_R   0.922536 0.178612 0.678712 -0.154873
C9    C     C_R   0.001845 0.188740 0.684551 0.002835
C10   C     C_R   0.051954 0.774136 0.611257 0.036448
C11   C     C_R   0.019247 0.790684 0.668496 -0.087425
C12   C     C_R   0.075152 0.837330 0.757783 -0.113921
C13   C     C_R   0.813025 0.811376 0.496325 0.007735
C14   C     C_R   0.164256 0.867918 0.791126 -0.104792
C15   C     C_R   0.197588 0.851781 0.735210 -0.113000
C16   C     C_R   0.141950 0.805149 0.645806 -0.101541
C17   C     C_R   0.734639 0.743931 0.418916 -0.027026
C18   C     C_R   0.674485 0.680072 0.423143 -0.161564
C19   C     C_R   0.688101 0.685361 0.502252 0.000244
C20   C     C_R   0.763940 0.754829 0.579515 -0.040539
C21   C     C_R   0.630698 0.726188 0.281833 -0.098087
C22   C     C_R   0.607723 0.717391 0.199949 -0.113758
C23   C     C_R   0.665386 0.719479 0.168169 -0.111514
C24   C     C_R   0.620408 0.618813 0.501695 0.545979
C25   C     C_R   0.822157 0.784899 0.829732 -0.103628
C26   C     C_R   0.746155 0.730561 0.218325 -0.103520
C27   C     C_R   0.769174 0.739395 0.300162 -0.050353
C28   C     C_R   0.711974 0.737465 0.332982 0.045626
C29   C     C_R   0.442849 0.807589 0.518593 -0.115349
C30   C     C_R   0.375464 0.724942 0.450028 -0.090576
C31   C     C_R   0.393218 0.668555 0.397114 0.052315
C32   C     C_R   0.479015 0.696413 0.413083 -0.064660
C33   C     C_R   0.546176 0.779259 0.481524 -0.097767
C34   C     C_R   0.528149 0.834694 0.534374 -0.100629
C35   C     C_R   0.256037 0.578290 0.257634 -0.155383
C36   C     C_R   0.080830 0.262264 0.755146 -0.035225
C37   C     C_R   0.615539 0.496910 0.617756 0.552257
C38   C     C_R   0.187991 0.498146 0.185582 0.003057
C39   C     C_R   0.184499 0.419469 0.177996 -0.036672
C40   C     C_R   0.250425 0.422997 0.243065 -0.162252
C41   C     C_R   0.318359 0.503101 0.315451 -0.001102
C42   C     C_R   0.321501 0.581848 0.323305 -0.033856
C43   C     C_R   0.058795 0.271780 0.113830 -0.089681
C44   C     C_R   0.994058 0.189153 0.043272 -0.112621
C45   C     C_R   0.985225 0.166778 0.961415 -0.100954
C46   C     C_R   0.041109 0.227002 0.949999 -0.101894
C47   C     C_R   0.777546 0.152710 0.728278 -0.090732
C48   C     C_R   0.105355 0.310117 0.020196 -0.069781
C49   C     C_R   0.380091 0.381153 0.498853 0.547888
C50   C     C_R   0.114502 0.333022 0.102619 0.049425
C51   C     C_R   0.204420 0.513659 0.552286 -0.111195
C52   C     C_R   0.220267 0.447066 0.556992 -0.088441
C53   C     C_R   0.221936 0.388995 0.488435 0.049588
C54   C     C_R   0.206345 0.397557 0.414679 -0.071921
C55   C     C_R   0.189421 0.463613 0.409834 -0.101993
C56   C     C_R   0.189029 0.521935 0.478762 -0.098916
C57   C     C_R   0.174131 0.251325 0.491874 -0.162335
C58   C     C_R   0.695118 0.138267 0.715477 -0.116086
C59   C     C_R   0.185704 0.182694 0.496661 -0.001523
C60   C     C_R   0.261352 0.179419 0.502031 -0.033756
C61   C     C_R   0.809386 0.709925 0.765377 -0.105413
C62   C     C_R   0.323672 0.245160 0.501769 -0.155438
C63   C     C_R   0.312200 0.313938 0.497507 0.003197
C64   C     C_R   0.237159 0.317731 0.493119 -0.037062
C65   C     C_R   0.348587 0.125166 0.576978 -0.088938
C66   C     C_R   0.363293 0.057455 0.579830 -0.115405
C67   C     C_R   0.306265 0.971920 0.511201 -0.105577
C68   C     C_R   0.234594 0.954001 0.439503 -0.100891
C69   C     C_R   0.668529 0.197526 0.706061 -0.101988
C70   C     C_R   0.219524 0.021507 0.436520 -0.062936
C71   C     C_R   0.276207 0.107499 0.505480 0.052338
C72   C     C_2   0.744603 0.495015 0.820158 -0.179829
C73   C     C_R   0.789217 0.699262 0.683293 -0.074461
C74   C     C_2   0.820894 0.508435 0.824087 -0.140207
C75   C     C_2   0.683045 0.506500 0.758609 -0.173471
C76   C     C_2   0.676785 0.488540 0.681337 -0.131307
C77   C     C_R   0.997875 0.878036 0.382351 0.537329
C78   C     C_R   0.880807 0.879627 0.498293 0.540808
C79   C     C_R   0.000532 0.120178 0.618002 0.548362
C80   C     C_R   0.724331 0.271309 0.709425 -0.096191
C81   C     C_R   0.118933 0.117285 0.498458 0.548364
C82   C     C_R   0.001902 0.381108 0.883104 0.546444
C83   C     C_R   0.121292 0.498881 0.120099 0.548604
C84   C     C_R   0.001634 0.619121 0.120402 0.540550
C85   C     C_R   0.781653 0.763898 0.665071 0.043833
C86   C     C_R   0.885226 0.502213 0.886902 0.543733
C87   C     C_R   0.992407 0.724889 0.516208 0.016296
C88   C     C_R   0.018259 0.748109 0.461560 -0.066971
C89   C     C_R   0.960352 0.704390 0.372379 0.000923
C90   C     C_R   0.878550 0.632374 0.337038 -0.128206
C91   C     C_R   0.807022 0.286275 0.722685 -0.060391
C92   C     C_R   0.852690 0.608372 0.390424 -0.126982
C93   C     C_R   0.908750 0.654665 0.479464 -0.101457
C94   C     C_R   0.985269 0.669102 0.248126 -0.151556
C95   C     C_R   0.000167 0.686103 0.186228 -0.002843
C96   C     C_R   0.013607 0.766043 0.189030 -0.034421
C97   C     C_R   0.795395 0.839591 0.730236 -0.092610
C98   C     C_R   0.011755 0.826973 0.254206 -0.163806
C99   C     C_R   0.998385 0.810522 0.316783 -0.004375
C100  C     C_R   0.984678 0.730524 0.314151 -0.039386
C101  C     C_R   0.102611 0.863916 0.151947 -0.094560
C102  C     C_R   0.834260 0.227113 0.732432 0.051636
C103  C     C_R   0.116874 0.884197 0.091445 -0.115532
C104  C     C_R   0.056909 0.828552 0.003380 -0.107943
C105  C     C_R   0.982256 0.753010 0.975827 -0.097573
C106  C     C_R   0.966965 0.733126 0.036068 -0.055063
C107  C     C_R   0.027907 0.787660 0.124612 0.048724
C108  C     C_R   0.305870 0.287984 0.840534 -0.111078
C109  C     C_R   0.815277 0.849793 0.812196 -0.115923
C110  C     C_R   0.224479 0.273676 0.831243 -0.086274
C111  C     C_R   0.166364 0.276299 0.764006 0.050261
C112  C     C_R   0.191079 0.294621 0.706995 -0.073919
Cu1   Cu    Cu3+1 0.499580 0.561790 0.561390 0.956391
Cu2   Cu    Cu3+1 0.500420 0.438210 0.438610 0.911665
Cu3   Cu    Cu3+1 0.061410 0.999960 0.561370 0.948539
Cu4   Cu    Cu3+1 0.938590 0.000000 0.438590 0.928464
Cu5   Cu    Cu3+1 0.065060 0.561820 0.003180 0.930253
Cu6   Cu    Cu3+1 0.941450 0.438250 0.003210 0.938868
H1    H     H_    0.837709 0.792850 0.893224 0.111322
H2    H     H_    0.257977 0.638404 0.262728 0.125139
H3    H     H_    0.248221 0.362730 0.237716 0.126376
H4    H     H_    0.815381 0.660098 0.779057 0.104989
H5    H     H_    0.065438 0.288195 0.177105 0.098930
H6    H     H_    0.951034 0.142298 0.052142 0.102608
H7    H     H_    0.935426 0.102614 0.906938 0.098576
H8    H     H_    0.034836 0.208911 0.886782 0.113952
H9    H     H_    0.148565 0.356105 0.010640 0.092374
H10   H     H_    0.176321 0.573222 0.474989 0.103239
H11   H     H_    0.203676 0.558601 0.605466 0.106048
H12   H     H_    0.647548 0.712673 0.104795 0.106127
H13   H     H_    0.231613 0.440913 0.614068 0.098407
H14   H     H_    0.206347 0.352613 0.360821 0.091892
H15   H     H_    0.176174 0.469488 0.352563 0.115813
H16   H     H_    0.780451 0.641243 0.634337 0.093616
H17   H     H_    0.116261 0.253921 0.488565 0.126980
H18   H     H_    0.381790 0.242997 0.505357 0.124652
H19   H     H_    0.393191 0.191185 0.630564 0.096029
H20   H     H_    0.418985 0.071318 0.635177 0.095690
H21   H     H_    0.317799 0.919595 0.513420 0.097554
H22   H     H_    0.190965 0.887839 0.386176 0.114184
H23   H     H_    0.791074 0.732530 0.193962 0.115878
H24   H     H_    0.164244 0.007135 0.380464 0.088030
H25   H     H_    0.729112 0.480248 0.865770 0.143237
H26   H     H_    0.840643 0.532561 0.785127 0.096424
H27   H     H_    0.639982 0.526127 0.775567 0.145722
H28   H     H_    0.790586 0.890492 0.717463 0.095172
H29   H     H_    0.713395 0.460293 0.660898 0.102142
H30   H     H_    0.887139 0.634302 0.519304 0.103848
H31   H     H_    0.082972 0.800638 0.488287 0.125257
H32   H     H_    0.833642 0.596454 0.268166 0.113989
H33   H     H_    0.788764 0.553969 0.362736 0.119349
H34   H     H_    0.832061 0.749156 0.338608 0.120224
H35   H     H_    0.974527 0.607464 0.245413 0.134483
H36   H     H_    0.020703 0.887975 0.256165 0.118426
H37   H     H_    0.150134 0.907101 0.219966 0.100036
H38   H     H_    0.174693 0.942768 0.112815 0.106951
H39   H     H_    0.825625 0.908108 0.862153 0.099530
H40   H     H_    0.068310 0.843873 0.956496 0.103407
H41   H     H_    0.936472 0.709564 0.907764 0.102759
H42   H     H_    0.908311 0.674800 0.013735 0.097146
H43   H     H_    0.393322 0.317664 0.791095 0.100722
H44   H     H_    0.350280 0.285345 0.892105 0.103144
H45   H     H_    0.580211 0.898772 0.587317 0.099917
H46   H     H_    0.206481 0.260087 0.876003 0.099047
H47   H     H_    0.147331 0.297797 0.655368 0.092307
H48   H     H_    0.292690 0.325547 0.674271 0.114920
H49   H     H_    0.139260 0.381438 0.873033 0.125284
H50   H     H_    0.862142 0.121682 0.624232 0.124749
H51   H     H_    0.885361 0.869329 0.634640 0.126549
H52   H     H_    0.797269 0.106099 0.735073 0.094496
H53   H     H_    0.651707 0.080928 0.712462 0.095800
H54   H     H_    0.604551 0.186064 0.695751 0.101014
H55   H     H_    0.703261 0.316612 0.701241 0.116067
H56   H     H_    0.428904 0.850714 0.559352 0.094399
H57   H     H_    0.849378 0.343292 0.724412 0.096234
H58   H     H_    0.615264 0.626626 0.364324 0.117596
H59   H     H_    0.585272 0.724637 0.305518 0.098920
H60   H     H_    0.545161 0.708904 0.161119 0.109220
H61   H     H_    0.950634 0.768371 0.644432 0.106952
H62   H     H_    0.049306 0.849838 0.801120 0.105221
H63   H     H_    0.207456 0.903991 0.860294 0.103892
H64   H     H_    0.266629 0.875176 0.761155 0.102042
H65   H     H_    0.169247 0.792319 0.603889 0.086366
H66   H     H_    0.309598 0.704714 0.438349 0.095221
H67   H     H_    0.493527 0.654237 0.372088 0.086282
H68   H     H_    0.612151 0.800723 0.493447 0.114837
O1    O     O_R   0.410050 0.552190 0.462250 -0.491814
O2    O     O_R   0.951650 0.357670 0.913630 -0.491000
O3    O     O_R   0.145040 0.552210 0.092780 -0.515339
O4    O     O_R   0.410760 0.447830 0.358560 -0.518313
O5    O     O_R   0.040660 0.447850 0.092810 -0.500131
O6    O     O_R   0.054850 0.642400 0.092760 -0.497091
O7    O     O_R   0.950470 0.538040 0.092790 -0.522228
O8    O     O_R   0.965850 0.552220 0.913580 -0.509811
O9    O     O_R   0.861470 0.447860 0.913610 -0.500262
O10   O     O_R   0.589820 0.642360 0.551840 -0.493127
O11   O     O_R   0.590530 0.538000 0.448150 -0.518030
O12   O     O_R   0.948740 0.909840 0.358530 -0.515955
O13   O     O_R   0.589240 0.552170 0.641440 -0.498673
O14   O     O_R   0.589950 0.447810 0.537750 -0.513307
O15   O     O_R   0.409470 0.462000 0.551850 -0.502938
O16   O     O_R   0.410180 0.357640 0.448160 -0.515362
O17   O     O_R   0.052450 0.909800 0.462220 -0.514524
O18   O     O_R   0.961680 0.909780 0.551820 -0.511578
O19   O     O_R   0.857970 0.909820 0.448140 -0.504061
O20   O     O_R   0.051260 0.090120 0.641420 -0.499944
O21   O     O_R   0.947550 0.090150 0.537740 -0.513750
O22   O     O_R   0.142030 0.090140 0.551820 -0.489605
O23   O     O_R   0.038320 0.090170 0.448130 -0.517221
O24   O     O_R   0.056040 0.462030 0.913600 -0.516590

loop_
_geom_bond_atom_site_label_1
_geom_bond_atom_site_label_2
_ccdc_geom_bond_type
C101  C107  A    
C72   H25   S    
C81   O23   A    
C87   C88   A    
C98   H36   S    
C41   C42   A    
C27   H34   S    
C6    C82   S    
C31   C42   S    
C38   C83   S    
C105  H41   S    
C88   H31   S    
C95   C96   A    
C29   H56   S    
C90   H32   S    
C109  H39   S    
C47   H52   S    
C51   H11   S    
C16   H65   S    
C7    C8    A    
C83   O3    A    
C53   C54   A    
C75   H27   S    
C40   H3    S    
C4    C108  A    
C26   C27   A    
C62   C63   A    
C32   H67   S    
C19   C24   S    
Cu2   O4    S    
C83   O5    A    
Cu5   O24   S    
C78   O18   A    
C80   H55   S    
C18   C19   A    
C88   C89   A    
C5    C6    A    
C53   C64   S    
C106  H42   S    
C57   C59   A    
C106  C107  A    
C24   O10   A    
Cu3   Cu4   S    
Cu1   O1    S    
C5    C36   A    
C77   O17   A    
C97   C109  A    
C93   H30   S    
C60   C62   A    
C51   C56   A    
C9    C79   S    
C37   O14   A    
C62   H18   S    
C23   C26   A    
Cu6   O7    S    
C110  C111  A    
Cu5   O8    S    
C8    H50   S    
C54   C55   A    
C19   C20   A    
C76   H29   S    
C45   H7    S    
C8    C9    A    
C7    C102  S    
C96   C98   A    
C9    C36   A    
Cu2   O16   S    
C77   C99   S    
C70   C71   A    
Cu1   O15   S    
C26   H23   S    
C67   H21   S    
C77   O12   A    
C84   O7    A    
C36   C111  S    
Cu4   O19   S    
C22   H60   S    
C65   H19   S    
C1    O4    A    
C48   C50   A    
C66   C67   A    
C59   C60   A    
C101  C103  A    
C47   C102  A    
Cu2   O14   S    
Cu3   O22   S    
Cu3   O18   S    
C4    H43   S    
C52   H13   S    
C35   H2    S    
C92   H33   S    
C72   C75   S    
C25   H1    S    
C104  C105  A    
C46   H8    S    
C17   C18   A    
C46   C48   A    
C49   C63   S    
C1    O1    A    
C49   O15   A    
C10   C87   S    
C70   H24   S    
C89   C100  S    
C2    C20   A    
C67   C68   A    
C35   C38   A    
C72   C74   D    
C34   H45   S    
C39   C40   A    
Cu6   O2    S    
C60   C71   S    
C61   C73   A    
C65   C71   A    
C108  H44   S    
C29   C34   A    
C44   H6    S    
C51   C52   A    
C23   H12   S    
Cu3   O17   S    
C61   H4    S    
C84   C95   S    
C75   C76   D    
C29   C30   A    
Cu5   O6    S    
C86   O9    A    
Cu4   O12   S    
Cu6   O5    S    
C90   C92   A    
C99   C100  A    
C66   H20   S    
C94   C100  A    
C3    C112  A    
C20   C85   S    
C55   C56   A    
C33   C34   A    
Cu1   O13   S    
C91   H57   S    
C43   C50   A    
C25   C61   A    
C74   C86   S    
Cu6   O9    S    
C2    C13   A    
C73   C85   A    
C33   H68   S    
Cu5   O3    S    
C81   O22   A    
C1    C41   S    
C40   C41   A    
C12   H62   S    
C37   C76   S    
C12   C14   A    
C24   O11   A    
C65   C66   A    
C43   C44   A    
Cu1   O10   S    
C68   H22   S    
C11   H61   S    
C91   C102  A    
C3    C4    A    
C43   H5    S    
C27   C28   A    
C14   H63   S    
C52   C53   A    
C57   C64   A    
Cu1   Cu2   S    
C74   H26   S    
C49   O16   A    
C110  H46   S    
C15   H64   S    
C111  C112  A    
C22   C23   A    
C17   C28   S    
C30   H66   S    
C96   C107  S    
C31   C32   A    
C44   C45   A    
C59   C81   S    
C104  H40   S    
Cu4   O23   S    
C11   C12   A    
C58   C69   A    
C6    C7    A    
C25   C109  A    
Cu2   O11   S    
C79   O20   A    
C54   H14   S    
C105  C106  A    
C13   C17   A    
C37   O13   A    
C32   C33   A    
C80   C91   A    
C58   H53   S    
C89   C90   A    
C78   O19   A    
C10   C16   A    
Cu5   Cu6   S    
C86   O8    A    
C48   H9    S    
C30   C31   A    
C38   C39   A    
C94   H35   S    
C79   O21   A    
C112  H47   S    
C87   C93   A    
C21   H59   S    
C92   C93   A    
C35   C42   A    
C108  C110  A    
C84   O6    A    
C56   H10   S    
C94   C95   A    
C55   H15   S    
Cu4   O21   S    
C85   C97   A    
C10   C11   A    
C13   C78   S    
C2    H51   S    
C21   C28   A    
C63   C64   A    
C97   H28   S    
C45   C46   A    
C103  H38   S    
C39   C50   S    
C73   H16   S    
C68   C70   A    
C98   C99   A    
Cu3   O20   S    
C82   O2    A    
C103  C104  A    
C101  H37   S    
C14   C15   A    
C57   H17   S    
C69   C80   A    
C82   O24   A    
C5    H49   S    
C21   C22   A    
C69   H54   S    
C15   C16   A    
C3    H48   S    
C47   C58   A    
C18   H58   S    
