data_mof_unit_59393.cif
_audit_creation_date              2012-12-10T17:39:00-0500
_audit_creation_method            fapswitch 2.2
_symmetry_space_group_name_H-M    P1
_symmetry_Int_Tables_number       1
_space_group_crystal_system       triclinic
_cell_length_a                    11.980495
_cell_length_b                    12.785735
_cell_length_c                    23.412746
_cell_angle_alpha                 90.392769
_cell_angle_beta                  86.366084
_cell_angle_gamma                 93.996016
_cell_volume                      3570.42845271

loop_
_atom_site_label
_atom_site_type_symbol
_atom_type_description
_atom_site_fract_x
_atom_site_fract_y
_atom_site_fract_z
_atom_type_partial_charge
C1    C     C_R   0.522664 0.700084 0.496500 0.905653
C2    C     C_R   0.398308 0.470843 0.301273 -0.215661
C3    C     C_R   0.405928 0.534121 0.764916 -0.118243
C4    C     C_R   0.397558 0.467939 0.242123 -0.118718
C5    C     C_R   0.505836 0.523809 0.791335 0.290600
C6    C     C_R   0.496580 0.491811 0.208602 0.289861
C7    C     C_R   0.462604 0.188524 0.509290 -0.104823
C8    C     C_R   0.537317 0.811387 0.490335 -0.104430
C9    C     C_R   0.610742 0.970264 0.441801 0.218429
C10   C     C_R   0.388511 0.029467 0.557406 0.218698
C11   C     C_R   0.606061 0.860146 0.445646 0.176552
C12   C     C_R   0.477332 0.299881 0.503366 0.904316
C13   C     C_R   0.393369 0.139576 0.553726 0.167018
C14   C     C_R   0.470881 0.867621 0.528083 -0.309368
C15   C     C_R   0.529048 0.132369 0.471481 -0.308322
C16   C     C_R   0.500526 0.501344 0.610690 0.867528
C17   C     C_R   0.499595 0.499417 0.389384 0.867115
C18   C     C_R   0.464251 0.974057 0.521350 0.074742
C19   C     C_R   0.535326 0.025806 0.478007 0.073642
C20   C     C_R   0.952895 0.402155 0.445293 0.113828
C21   C     C_R   0.047056 0.597521 0.554889 0.112777
C22   C     C_R   0.836643 0.412377 0.451092 0.011389
C23   C     C_R   0.605800 0.506903 0.758616 0.045967
C24   C     C_R   0.163333 0.587451 0.549004 0.010820
C25   C     C_R   0.858332 0.541357 0.523442 -0.066604
C26   C     C_R   0.141648 0.458541 0.476617 -0.062588
C27   C     C_R   0.976026 0.535287 0.519955 0.022511
C28   C     C_R   0.023941 0.464519 0.480158 0.022595
C29   C     C_R   0.485651 0.403691 0.117901 0.469803
C30   C     C_R   0.500602 0.611758 0.882540 0.470129
C31   C     C_R   0.495065 0.590899 0.122247 0.523079
C32   C     C_R   0.498918 0.424883 0.877988 0.522493
C33   C     C_R   0.496698 0.597439 0.062861 -0.016160
C34   C     C_R   0.598198 0.518118 0.234249 0.049652
C35   C     C_R   0.494555 0.418212 0.937418 -0.015739
C36   C     C_R   0.493121 0.504492 0.030234 -0.034028
C37   C     C_R   0.496727 0.511113 0.970088 -0.033140
C38   C     C_R   0.486181 0.405266 0.057672 -0.053655
C39   C     C_R   0.502493 0.610302 0.942665 -0.054358
C40   C     C_R   0.504417 0.695148 0.035876 -0.228338
C41   C     C_R   0.487592 0.320471 0.964350 -0.231189
C42   C     C_R   0.508661 0.703067 0.976438 -0.012115
C43   C     C_R   0.482464 0.312591 0.023770 -0.014979
C44   C     C_3   0.998246 0.325192 0.402209 -0.953603
C45   C     C_R   0.602989 0.498557 0.699290 -0.261840
C46   C     C_3   0.001644 0.674076 0.598193 -0.951360
C47   C     C_R   0.526534 0.809959 0.952239 0.189389
C48   C     C_R   0.440788 0.879510 0.957739 -0.133177
C49   C     C_R   0.459232 0.981656 0.936499 -0.111577
C50   C     C_R   0.563473 0.015086 0.910157 -0.105938
C51   C     C_R   0.649496 0.946508 0.905073 -0.139921
C52   C     C_R   0.631398 0.844295 0.926198 -0.093997
C53   C     C_R   0.472083 0.205589 0.047852 0.185945
C54   C     C_R   0.366656 0.160297 0.067475 -0.100763
C55   C     C_R   0.356793 0.058729 0.089859 -0.141341
C56   C     C_R   0.598172 0.520626 0.293791 -0.273892
C57   C     C_R   0.451829 0.001843 0.092467 -0.104560
C58   C     C_R   0.556812 0.046050 0.072227 -0.113787
C59   C     C_R   0.567058 0.147645 0.049817 -0.128267
C60   C     C_R   0.712522 0.495248 0.785825 0.112134
C61   C     C_R   0.757283 0.574947 0.821073 -0.167907
C62   C     C_R   0.857348 0.562903 0.847170 -0.141621
C63   C     C_R   0.913886 0.471717 0.837961 -0.105849
C64   C     C_R   0.870573 0.392540 0.802502 -0.141166
C65   C     C_R   0.770407 0.404204 0.776388 -0.115832
C66   C     C_R   0.703762 0.545886 0.199626 0.114067
C67   C     C_R   0.502313 0.507891 0.672823 -0.048684
C68   C     C_R   0.746652 0.475306 0.158973 -0.164716
C69   C     C_R   0.845252 0.502966 0.125759 -0.139456
C70   C     C_R   0.902185 0.600788 0.133153 -0.108350
C71   C     C_R   0.860800 0.670981 0.173930 -0.137895
C72   C     C_R   0.762122 0.643691 0.207184 -0.109649
C73   C     C_3   0.332125 0.203248 0.599194 -0.873665
C74   C     C_3   0.667002 0.796267 0.400142 -0.889984
C75   C     C_3   0.694292 0.028580 0.399585 -0.929813
C76   C     C_3   0.304298 0.971016 0.599244 -0.928832
C77   C     C_R   0.498577 0.497199 0.327311 -0.044566
C78   C     C_R   0.403985 0.526341 0.705940 -0.227063
H1    H     H_    0.510130 0.766531 0.061060 0.177922
H2    H     H_    0.320716 0.452093 0.326583 0.157308
H3    H     H_    0.329191 0.545910 0.790427 0.138864
H4    H     H_    0.319669 0.448655 0.222104 0.139504
H5    H     H_    0.578338 0.174612 0.437558 0.175097
H6    H     H_    0.421879 0.825531 0.562163 0.174800
H7    H     H_    0.930287 0.283450 0.379007 0.243789
H8    H     H_    0.056917 0.367183 0.370112 0.245524
H9    H     H_    0.042912 0.265546 0.424300 0.249829
H10   H     H_    0.069583 0.715657 0.621478 0.242519
H11   H     H_    0.956883 0.733881 0.576283 0.250237
H12   H     H_    0.484762 0.249026 0.939117 0.177933
H13   H     H_    0.943051 0.631753 0.630205 0.248681
H14   H     H_    0.360069 0.854668 0.978549 0.122719
H15   H     H_    0.393034 0.035149 0.940859 0.132604
H16   H     H_    0.577792 0.094202 0.893867 0.145970
H17   H     H_    0.730307 0.972653 0.884899 0.129777
H18   H     H_    0.698790 0.791925 0.922355 0.111279
H19   H     H_    0.292579 0.203811 0.065623 0.119356
H20   H     H_    0.275501 0.024125 0.105212 0.130702
H21   H     H_    0.443962 0.923426 0.109998 0.147945
H22   H     H_    0.630125 0.001493 0.073775 0.132300
H23   H     H_    0.181841 0.405658 0.446935 0.152243
H24   H     H_    0.648662 0.181242 0.034153 0.120480
H25   H     H_    0.715534 0.646766 0.827886 0.156896
H26   H     H_    0.891261 0.624464 0.874371 0.129062
H27   H     H_    0.991409 0.462547 0.858155 0.125541
H28   H     H_    0.914525 0.322017 0.795325 0.131786
H29   H     H_    0.737360 0.341913 0.749334 0.140366
H30   H     H_    0.704510 0.398657 0.153320 0.159627
H31   H     H_    0.877709 0.448404 0.094401 0.131594
H32   H     H_    0.978533 0.622066 0.107415 0.125537
H33   H     H_    0.905061 0.746660 0.179692 0.130534
H34   H     H_    0.818137 0.594242 0.553121 0.155491
H35   H     H_    0.730499 0.699170 0.238324 0.136498
H36   H     H_    0.343698 0.171855 0.642368 0.244122
H37   H     H_    0.364699 0.286236 0.600923 0.245451
H38   H     H_    0.241434 0.200288 0.591594 0.243701
H39   H     H_    0.654188 0.826833 0.356929 0.240840
H40   H     H_    0.757940 0.800117 0.407226 0.244719
H41   H     H_    0.635249 0.713013 0.398937 0.243972
H42   H     H_    0.742758 0.091495 0.422247 0.239788
H43   H     H_    0.757639 0.978928 0.379167 0.253717
H44   H     H_    0.649142 0.063466 0.365217 0.243683
H45   H     H_    0.219233 0.634093 0.575207 0.133757
H46   H     H_    0.256637 0.907813 0.576389 0.240037
H47   H     H_    0.348775 0.936496 0.633979 0.243808
H48   H     H_    0.240268 0.020532 0.619146 0.254327
H49   H     H_    0.780737 0.365661 0.424928 0.137518
H50   H     H_    0.679589 0.485229 0.673925 0.162644
H51   H     H_    0.675788 0.541389 0.313883 0.162777
H52   H     H_    0.325466 0.534289 0.686391 0.163479
N1    N     N_R   0.491647 0.495453 0.148038 -0.352193
N2    N     N_R   0.502397 0.520340 0.852187 -0.351385
N3    N     N_R   0.207800 0.519350 0.510590 -0.122022
N4    N     N_R   0.792200 0.480650 0.489410 -0.123262
O1    O     O_R   0.421690 0.658830 0.502820 -0.618620
O2    O     O_2   0.496299 0.702674 0.854169 -0.564207
O3    O     O_2   0.497578 0.679162 0.154309 -0.582526
O4    O     O_2   0.498678 0.336685 0.845890 -0.581122
O5    O     O_R   0.578310 0.341170 0.497180 -0.619405
O6    O     O_R   0.609320 0.646410 0.496030 -0.614553
O7    O     O_R   0.390680 0.353590 0.503970 -0.614720
O8    O     O_R   0.406170 0.506240 0.587240 -0.633159
O9    O     O_R   0.593830 0.493760 0.412760 -0.631706
O10   O     O_R   0.593790 0.493820 0.580450 -0.620089
O11   O     O_R   0.406210 0.506180 0.419550 -0.618080
O12   O     O_2   0.481800 0.312275 0.146582 -0.562678
Zn1   Zn    Zn3+2 0.374720 0.508290 0.504530 0.941743
Zn2   Zn    Zn3+2 0.625280 0.491710 0.495470 0.940120

loop_
_geom_bond_atom_site_label_1
_geom_bond_atom_site_label_2
_ccdc_geom_bond_type
C24   N3    A    
C66   C68   A    
C34   C56   A    
C23   C45   A    
C75   H44   S    
C76   H48   S    
C14   C18   A    
C17   O11   A    
C14   H6    S    
O10   Zn2   S    
O6    Zn2   S    
C53   C59   A    
C46   H11   S    
C53   C54   A    
C15   C19   A    
C74   H41   S    
C73   H38   S    
C22   N4    A    
C36   C37   A    
C16   O10   A    
C26   H23   S    
C45   H50   S    
C57   H21   S    
C33   C36   A    
C12   O7    A    
C18   C19   A    
C31   N1    A    
C70   H32   S    
C25   H34   S    
O11   Zn1   S    
C69   H31   S    
C43   C53   S    
C5    N2    S    
C66   C72   A    
C68   C69   A    
C71   H33   S    
C29   C38   A    
C45   C67   A    
C31   C33   A    
C54   H19   S    
C70   C71   A    
N3    Zn1   S    
C9    C75   S    
C31   O3    S    
C44   H9    S    
C62   H26   S    
C56   H51   S    
C61   C62   A    
C40   C42   A    
C41   H12   S    
C21   C27   A    
C76   H47   S    
C41   C43   A    
C34   C66   S    
O9    Zn2   S    
C67   C78   A    
C10   C76   S    
C44   H8    S    
C20   C44   S    
C9    C19   A    
C39   C42   A    
C46   H10   S    
C23   C60   S    
C74   H40   S    
O5    Zn2   S    
C40   H1    S    
C33   C40   A    
C51   C52   A    
C76   H46   S    
C32   C35   A    
C58   H22   S    
C4    C6    A    
C29   O12   S    
O7    Zn1   S    
C50   H16   S    
C15   H5    S    
C46   H13   S    
C20   C28   A    
C58   C59   A    
C72   H35   S    
C10   C13   A    
C24   H45   S    
C73   H36   S    
C6    C34   A    
C1    C8    S    
C60   C61   A    
C16   O8    A    
C32   O4    S    
C62   C63   A    
C47   C48   A    
C5    C23   A    
C17   C77   S    
C50   C51   A    
C12   O5    A    
C4    H4    S    
C16   C67   S    
C25   N4    A    
C9    C11   A    
C1    O6    A    
C48   C49   A    
C20   C22   A    
C60   C65   A    
O1    Zn1   S    
C55   C57   A    
C7    C12   S    
C63   H27   S    
C44   H7    S    
C32   N2    A    
C35   C37   A    
C21   C46   S    
C74   H39   S    
C54   C55   A    
C8    C14   A    
C61   H25   S    
C75   H43   S    
C59   H24   S    
O8    Zn1   S    
C75   H42   S    
C13   C73   S    
C6    N1    S    
C3    C5    A    
C11   C74   S    
C64   H28   S    
C47   C52   A    
C3    H3    S    
C25   C27   A    
N4    Zn2   S    
C26   C28   A    
C73   H37   S    
C17   O9    A    
C64   C65   A    
C36   C38   A    
C78   H52   S    
C38   C43   A    
C37   C39   A    
C26   N3    A    
C30   O2    S    
C22   H49   S    
C29   N1    A    
C10   C18   A    
C8    C11   A    
C30   N2    A    
C2    C4    A    
C55   H20   S    
C7    C15   A    
C30   C39   A    
C52   H18   S    
C42   C47   S    
C69   C70   A    
C35   C41   A    
C2    H2    S    
C56   C77   A    
C63   C64   A    
C7    C13   A    
C71   C72   A    
C49   C50   A    
C48   H14   S    
C21   C24   A    
C27   C28   A    
C2    C77   A    
C68   H30   S    
C49   H15   S    
C57   C58   A    
C1    O1    A    
C3    C78   A    
C65   H29   S    
C51   H17   S    
