data_mof_unit_58355.cif
_audit_creation_date              2012-12-11T15:49:35-0500
_audit_creation_method            fapswitch 2.2
_symmetry_space_group_name_H-M    P1
_symmetry_Int_Tables_number       1
_space_group_crystal_system       triclinic
_cell_length_a                    8.281732
_cell_length_b                    19.121196
_cell_length_c                    27.013906
_cell_angle_alpha                 95.810993
_cell_angle_beta                  92.708131
_cell_angle_gamma                 85.184736
_cell_volume                      4237.58666193

loop_
_atom_site_label
_atom_site_type_symbol
_atom_type_description
_atom_site_fract_x
_atom_site_fract_y
_atom_site_fract_z
_atom_type_partial_charge
Ba1   Ba    Ba6+2 0.854000 0.466860 0.523710 1.746884
Ba2   Ba    Ba6+2 0.335820 0.533080 0.476290 1.713330
C1    C     C_3   0.699453 0.233569 0.706538 0.299909
C2    C     C_3   0.671674 0.280926 0.664124 0.907000
C3    C     C_3   0.577866 0.663084 0.629486 0.655546
C4    C     C_3   0.653798 0.691377 0.679322 -0.345122
C5    C     C_3   0.050428 0.720845 0.338015 0.329751
C6    C     C_3   0.105169 0.743556 0.289307 0.217496
C7    C     C_3   0.623800 0.701504 0.333276 0.678683
C8    C     C_3   0.571486 0.779588 0.345812 -0.304498
C9    C     C_R   0.000049 0.443051 0.178320 0.598758
C10   C     C_R   0.931552 0.567494 0.179976 0.587176
C11   C     C_2   0.748727 0.530113 0.269539 -0.018697
C12   C     C_3   0.206946 0.267565 0.654334 0.263478
C13   C     C_3   0.702360 0.523164 0.322290 -0.048669
C14   C     C_1   0.983443 0.488690 0.342995 0.030504
C15   C     C_2   0.023961 0.484918 0.295466 -0.096176
C16   C     C_2   0.902209 0.508529 0.255901 0.215487
C17   C     C_R   0.021450 0.501379 0.102502 -0.078173
C18   C     C_R   0.037554 0.439704 0.127426 -0.035384
C19   C     C_R   0.090170 0.375773 0.100927 -0.051280
C20   C     C_R   0.968961 0.565737 0.129210 -0.036515
C21   C     C_2   0.848509 0.524653 0.357840 -0.295405
C22   C     C_2   0.359307 0.491561 0.643544 0.203835
C23   C     C_3   0.173279 0.247628 0.705656 -0.276783
C24   C     C_R   0.135696 0.429842 0.972103 0.018959
C25   C     C_R   0.083691 0.559102 0.975280 0.019917
C26   C     C_R   0.127124 0.493065 0.948135 0.052056
C27   C     C_R   0.172825 0.365306 0.942811 -0.095443
C28   C     C_R   0.204823 0.363094 0.892511 -0.045892
C29   C     C_R   0.201625 0.425015 0.868776 -0.028848
C30   C     C_R   0.162424 0.490173 0.896423 -0.080142
C31   C     C_R   0.158507 0.552376 0.872335 -0.036875
C32   C     C_R   0.196366 0.548719 0.821391 0.598093
C33   C     C_R   0.236328 0.422791 0.817817 0.602954
C34   C     C_3   0.184596 0.318802 0.419185 0.296706
C35   C     C_2   0.419985 0.446517 0.726799 -0.130864
C36   C     C_3   0.448405 0.434202 0.671603 -0.134119
C37   C     C_1   0.213484 0.516637 0.657837 0.071570
C38   C     C_2   0.166687 0.514726 0.704276 -0.159177
C39   C     C_2   0.278496 0.480961 0.742412 0.224782
C40   C     C_R   0.105831 0.432935 0.024084 0.019009
C41   C     C_R   0.057361 0.498663 0.050850 0.052132
C42   C     C_R   0.044043 0.561665 0.026534 0.020086
C43   C     C_R   0.123605 0.372345 0.050629 -0.096694
C44   C     C_R   0.953800 0.627111 0.104579 -0.060939
C45   C     C_3   0.198991 0.239358 0.406027 -0.381523
C46   C     C_R   0.082094 0.620527 0.949919 -0.096962
C47   C     C_R   0.118658 0.617112 0.899822 -0.057787
C48   C     C_R   0.990328 0.625273 0.054606 -0.096715
C49   C     C_R   0.413148 0.295999 0.526090 0.037940
C50   C     C_R   0.540011 0.272911 0.494649 -0.008418
C51   C     C_R   0.582376 0.199067 0.484726 0.258395
C52   C     C_R   0.490375 0.150098 0.504718 -0.019887
C53   C     C_R   0.347787 0.174994 0.530783 0.291677
C54   C     C_R   0.309279 0.247946 0.540480 -0.102022
C55   C     C_R   0.579677 0.033633 0.538411 0.413886
C56   C     C_3   0.004355 0.678100 0.575893 0.321848
C57   C     C_R   0.627139 0.960758 0.530353 -0.145469
C58   C     C_R   0.642895 0.927084 0.481924 0.018665
C59   C     C_R   0.610125 0.966841 0.441264 -0.090235
C60   C     C_R   0.559160 0.038772 0.448822 -0.091524
C61   C     C_R   0.543434 0.072949 0.497238 0.095268
C62   C     C_R   0.834516 0.824129 0.450929 -0.135781
C63   C     C_R   0.883578 0.751671 0.448117 -0.025340
C64   C     C_R   0.645849 0.730476 0.491560 0.046381
C65   C     C_R   0.596950 0.802704 0.494981 -0.110334
C66   C     C_R   0.689560 0.850108 0.474254 0.006164
C67   C     C_3   0.981518 0.757991 0.585969 -0.383182
C68   C     C_R   0.785163 0.705199 0.466601 -0.260216
C69   C     C_3   0.693916 0.372552 0.375148 0.294327
C70   C     C_3   0.694134 0.350174 0.319194 0.182388
H1    H     H_    0.291294 0.224777 0.377468 0.126249
H2    H     H_    0.235352 0.212005 0.439385 0.038327
H3    H     H_    0.080208 0.221566 0.391263 0.135996
H4    H     H_    0.888104 0.657404 0.562442 -0.047981
H5    H     H_    0.094277 0.664998 0.546655 0.094687
H6    H     H_    0.888091 0.773166 0.614050 0.125531
H7    H     H_    0.942313 0.781963 0.551309 0.069523
H8    H     H_    0.097773 0.779036 0.600084 0.123441
H9    H     H_    0.621977 0.424011 0.382286 0.041217
H10   H     H_    0.826254 0.209621 0.706638 0.079518
H11   H     H_    0.742979 0.294145 0.312135 0.073737
H12   H     H_    0.775101 0.382165 0.301035 0.046929
H13   H     H_    0.539497 0.296872 0.662052 -0.390746
H14   H     H_    0.617616 0.189847 0.700857 0.006936
H15   H     H_    0.650579 0.613758 0.617692 0.041019
H16   H     H_    0.590507 0.742773 0.692909 0.109389
H17   H     H_    0.783804 0.698772 0.675183 0.100641
H18   H     H_    0.285107 0.249674 0.729808 0.101480
H19   H     H_    0.034725 0.663252 0.333000 -0.001293
H20   H     H_    0.933375 0.750966 0.346576 0.017047
H21   H     H_    0.227242 0.718054 0.280250 0.077404
H22   H     H_    0.019179 0.726199 0.258706 0.139734
H23   H     H_    0.678529 0.811073 0.351166 0.077084
H24   H     H_    0.240508 0.323008 0.658029 -0.016318
H25   H     H_    0.492506 0.799692 0.315176 0.102209
H26   H     H_    0.105605 0.327512 0.119077 0.128197
H27   H     H_    0.504521 0.421653 0.752887 0.125063
H28   H     H_    0.232745 0.312037 0.872151 0.125156
H29   H     H_    0.176000 0.314829 0.957340 0.072947
H30   H     H_    0.165572 0.320987 0.033862 0.073254
H31   H     H_    0.656170 0.545268 0.241972 0.090888
H32   H     H_    0.055143 0.672793 0.967835 0.071362
H33   H     H_    0.309199 0.231165 0.639595 0.069856
H34   H     H_    0.972551 0.675038 0.038965 0.072406
H35   H     H_    0.849114 0.561134 0.391309 0.062147
H36   H     H_    0.491891 0.822486 0.516107 0.088796
H37   H     H_    0.653563 0.930277 0.561879 0.065839
H38   H     H_    0.530993 0.067914 0.416735 0.112654
H39   H     H_    0.912888 0.860306 0.437787 0.090063
H40   H     H_    0.826520 0.650040 0.466760 0.044444
H41   H     H_    0.134282 0.193146 0.702751 0.112969
H42   H     H_    0.305055 0.336463 0.431316 0.023965
H43   H     H_    0.099556 0.331519 0.449907 0.072792
N1    N     N_R   0.946615 0.506486 0.204042 -0.427517
N2    N     N_R   0.235718 0.484305 0.794614 -0.417863
O1    O     O_2   0.913240 0.537010 0.617740 -0.496983
O2    O     O_3   0.626455 0.320525 0.398243 -0.669536
O3    O     O_3   0.067276 0.260550 0.623431 -0.521427
O4    O     O_2   0.276450 0.462960 0.382230 -0.434048
O5    O     O_3   0.044470 0.462980 0.442430 -0.493593
O6    O     O_3   0.519740 0.589470 0.411120 -0.473279
O7    O     O_3   0.127445 0.350547 0.376669 -0.636509
O8    O     O_3   0.632420 0.583650 0.524140 -0.469970
O9    O     O_3   0.111040 0.625070 0.435230 -0.477348
O10   O     O_2   0.208487 0.749552 0.472216 -0.482176
O11   O     O_3   0.166510 0.735847 0.376189 -0.589242
O12   O     O_3   0.145240 0.536960 0.557560 -0.407324
O13   O     O_3   0.557280 0.416300 0.475860 -0.403323
O14   O     O_2   0.376710 0.670070 0.522470 -0.419455
O15   O     O_3   0.585240 0.712510 0.594966 -0.676778
O16   O     O_2   0.364832 0.545938 0.327489 -0.460321
O17   O     O_3   0.484011 0.664271 0.326196 -0.600526
O18   O     O_2   0.012591 0.389190 0.199487 -0.585514
O19   O     O_2   0.266154 0.365785 0.793986 -0.621488
O20   O     O_2   0.886151 0.623541 0.202813 -0.591691
O21   O     O_2   0.196434 0.603048 0.801148 -0.590167
O22   O     O_3   0.669960 0.410470 0.588880 -0.442829
O23   O     O_2   0.765273 0.475887 0.675902 -0.496328
O24   O     O_3   0.058134 0.649845 0.620180 -0.618970
O25   O     O_3   0.768973 0.338400 0.673905 -0.577998
O26   O     O_2   0.812980 0.329910 0.477500 -0.489725
O27   O     O_3   0.078660 0.374870 0.564770 -0.469455
O28   O     O_2   0.973419 0.250424 0.530593 -0.408031
P1    P     P_3+3 0.082480 0.557670 0.610090 1.095788
P2    P     P_3+3 0.635220 0.340300 0.462910 1.039826
P3    P     P_3+3 0.108955 0.282822 0.564463 1.084232
P4    P     P_3+3 0.107220 0.442270 0.389900 1.015819
P5    P     P_3+3 0.090742 0.716645 0.432170 0.959750
P6    P     P_3+3 0.664624 0.414757 0.654021 0.999758
P7    P     P_3+3 0.563409 0.673659 0.533385 0.993871
P8    P     P_3+3 0.521844 0.580015 0.346013 1.012751
O29   O     O_3   0.716311 0.241414 0.619623 -0.706759
H44   H     H_    0.686063 0.271844 0.592552 0.292654
H45   H     H_    0.820258 0.377164 0.389101 -0.042260
O30   O     O_3   0.537302 0.359780 0.297760 -0.705915
H46   H     H_    0.476218 0.320935 0.307169 0.328147
O31   O     O_3   0.416143 0.650319 0.635671 -0.735887
H47   H     H_    0.354977 0.696862 0.643041 0.309417
H48   H     H_    0.644924 0.653237 0.707300 0.103362
O32   O     O_3   0.673423 0.272619 0.752659 -0.728516
H49   H     H_    0.554523 0.283353 0.754765 0.312298
O33   O     O_3   0.104948 0.817173 0.291931 -0.711550
H50   H     H_    0.201579 0.830310 0.312812 0.321619
O34   O     O_3   0.711675 0.692341 0.289643 -0.752931
H51   H     H_    0.634680 0.703111 0.261609 0.327757
H52   H     H_    0.704266 0.684448 0.364679 -0.070300
H53   H     H_    0.503157 0.786822 0.380606 0.102595
H54   H     H_    0.144932 0.464530 0.284843 0.138337
H55   H     H_    0.912849 0.677407 0.123970 0.124703
H56   H     H_    0.115655 0.666006 0.882600 0.123431
H57   H     H_    0.050043 0.540039 0.715460 0.123653
O35   O     O_3   0.417108 0.511327 0.600423 -0.654562
H58   H     H_    0.531840 0.519401 0.606724 0.318726
O36   O     O_3   0.568866 0.067487 0.585936 -0.698410
H59   H     H_    0.598217 0.032765 0.610399 0.302504
O37   O     O_3   0.712932 0.172070 0.456635 -0.706267
H60   H     H_    0.762717 0.209898 0.442151 0.324776
H61   H     H_    0.620612 0.941814 0.403626 0.088528
H62   H     H_    0.076485 0.284795 0.722738 0.171095
O38   O     O_3   0.240721 0.130248 0.545699 -0.676914
H63   H     H_    0.262362 0.082498 0.528427 0.304521
O39   O     O_3   0.387333 0.366782 0.540529 -0.661721
H64   H     H_    0.365564 0.371047 0.576450 0.276983

loop_
_geom_bond_atom_site_label_1
_geom_bond_atom_site_label_2
_ccdc_geom_bond_type
C25   C46   A    
C2    O29   S    
C53   C54   A    
O30   H46   S    
C10   C20   A    
C17   C18   A    
O27   P3    S    
C22   O35   S    
C51   O37   S    
C22   C37   D    
O37   H60   S    
O14   P7    D    
C56   H4    S    
C5    C6    S    
C64   C68   A    
Ba2   O6    S    
O39   H64   S    
C8    H53   S    
O26   P2    D    
C23   H18   S    
C60   C61   A    
C11   C16   D    
O16   P8    D    
C3    C4    S    
C62   C66   A    
C7    O34   S    
C34   O7    S    
C35   C36   S    
Ba1   O8    S    
C49   C54   A    
Ba1   O12   S    
O10   P5    D    
C2    O25   S    
C28   C29   A    
C10   N1    Am   
C65   H36   S    
C55   C57   A    
O17   P8    S    
C52   C61   S    
C69   H45   S    
O2    P2    S    
C63   C68   A    
C46   H32   S    
C28   H28   S    
Ba2   O12   S    
C4    H16   S    
C44   H55   S    
C34   C45   S    
C15   C16   S    
Ba1   Ba2   S    
C63   P5    S    
O35   H58   S    
C12   H33   S    
C56   H5    S    
C57   H37   S    
O38   H63   S    
C25   C42   A    
C3    O15   S    
O31   H47   S    
C17   C41   A    
C14   C15   D    
C3    O31   S    
C22   C36   S    
O36   H59   S    
C14   P4    S    
C5    O11   S    
C11   H31   S    
C7    C8    S    
C1    O32   S    
C7    O17   S    
Ba2   P4    S    
C13   C21   S    
C64   C65   A    
C5    H19   S    
C57   C58   A    
C1    H14   S    
C67   H6    S    
C12   H24   S    
C23   H62   S    
C55   C61   A    
C19   C43   A    
Ba2   O5    S    
C33   N2    Am   
C9    C18   A    
C65   C66   A    
O5    P4    S    
O1    P1    D    
C17   C20   A    
C6    H22   S    
C45   H1    S    
C49   O39   S    
C6    O33   S    
C16   N1    S    
C37   C38   D    
C15   H54   S    
C62   H39   S    
C2    H13   S    
C51   C52   A    
C32   O21   D    
C70   O30   S    
C49   C50   A    
C58   C59   A    
C40   C43   A    
O25   P6    S    
C54   P3    S    
C8    H25   S    
C41   C42   A    
C64   P7    S    
C27   C28   A    
Ba1   O26   S    
O8    P7    S    
C9    O18   D    
C55   O36   S    
C29   C30   A    
C60   H38   S    
C4    H48   S    
C26   C30   A    
C21   H35   S    
C1    H10   S    
Ba2   O14   S    
O12   P1    S    
C27   H29   S    
C9    N1    Am   
O23   P6    D    
O29   H44   S    
C70   H12   S    
C68   H40   S    
O24   P1    S    
C24   C27   A    
C23   H41   S    
Ba2   O9    S    
O11   P5    S    
C38   C39   S    
C20   C44   A    
Ba1   O13   S    
C14   C21   D    
C12   O3    S    
C11   C13   S    
O34   H51   S    
O15   P7    S    
C29   C33   A    
Ba1   P2    S    
C40   C41   A    
C1    C2    S    
C36   P6    S    
C35   H27   S    
O28   P3    D    
C50   C51   A    
C24   C40   A    
O32   H49   S    
O6    P8    S    
Ba2   O4    S    
C42   C48   A    
C52   C53   A    
O33   H50   S    
O13   P2    S    
O4    P4    D    
C7    H52   S    
C6    H21   S    
C45   H2    S    
Ba1   O22   S    
C33   O19   D    
C47   H56   S    
C56   C67   S    
O3    P3    S    
C50   P2    S    
C4    H17   S    
C44   C48   A    
C24   C26   A    
C69   O2    S    
C62   C63   A    
C45   H3    S    
C69   C70   S    
Ba1   O27   S    
C30   C31   A    
C19   H26   S    
O9    P5    S    
C56   O24   S    
C38   H57   S    
C8    H23   S    
C32   N2    Am   
C46   C47   A    
C5    H20   S    
C37   P1    S    
O22   P6    S    
Ba2   O13   S    
C53   O38   S    
C31   C32   A    
C34   H42   S    
Ba1   O1    S    
C12   C23   S    
C35   C39   D    
C59   C60   A    
C13   P8    S    
C70   H11   S    
C67   H7    S    
C43   H30   S    
C3    H15   S    
Ba2   O8    S    
Ba1   P1    S    
C18   C19   A    
C58   C66   S    
C59   H61   S    
C25   C26   A    
C48   H34   S    
C10   O20   D    
C67   H8    S    
C39   N2    S    
C34   H43   S    
C31   C47   A    
Ba1   O5    S    
O7    P4    S    
C69   H9    S    
