data_mof_unit_58455.cif
_audit_creation_date              2012-12-11T15:08:36-0500
_audit_creation_method            fapswitch 2.2
_symmetry_space_group_name_H-M    P1
_symmetry_Int_Tables_number       1
_space_group_crystal_system       triclinic
_cell_length_a                    25.979288
_cell_length_b                    27.456275
_cell_length_c                    8.371226
_cell_angle_alpha                 90.000015
_cell_angle_beta                  96.217595
_cell_angle_gamma                 89.975812
_cell_volume                      5936.02494113

loop_
_atom_site_label
_atom_site_type_symbol
_atom_type_description
_atom_site_fract_x
_atom_site_fract_y
_atom_site_fract_z
_atom_type_partial_charge
Ba1   Ba    Ba6+2 0.999910 0.465960 0.844870 1.657638
Ba2   Ba    Ba6+2 0.999910 0.534040 0.344870 1.647485
Ba3   Ba    Ba6+2 0.499910 0.965960 0.844870 1.658096
Ba4   Ba    Ba6+2 0.499910 0.034040 0.344870 1.657562
C1    C     C_3   0.045866 0.240447 0.664868 0.284027
C2    C     C_3   0.044468 0.759461 0.155819 0.307746
C3    C     C_3   0.540957 0.737866 0.659052 0.282176
C4    C     C_3   0.530950 0.269102 0.123686 0.308857
C5    C     C_R   0.886349 0.390088 0.150345 0.089629
C6    C     C_R   0.886112 0.609643 0.650054 0.080484
C7    C     C_R   0.386245 0.890182 0.149804 0.090757
C8    C     C_R   0.386444 0.109849 0.649395 0.082558
C9    C     C_R   0.847241 0.356515 0.097516 -0.106329
C10   C     C_R   0.847325 0.643367 0.596240 -0.104700
C11   C     C_R   0.347013 0.856746 0.096997 -0.100014
C12   C     C_R   0.347822 0.143674 0.595113 -0.103083
C13   C     C_R   0.837544 0.315348 0.191666 0.034955
C14   C     C_R   0.837094 0.684182 0.691223 0.019992
C15   C     C_R   0.336859 0.815866 0.191885 0.049300
C16   C     C_R   0.337598 0.184556 0.689822 0.029758
C17   C     C_R   0.867658 0.308947 0.341330 -0.022511
C18   C     C_R   0.866782 0.690283 0.841713 -0.064981
C19   C     C_R   0.366948 0.809572 0.341694 -0.012038
C20   C     C_R   0.367092 0.190559 0.840722 -0.083891
C21   C     C_R   0.905554 0.343350 0.396311 0.037618
C22   C     C_R   0.904548 0.655792 0.896769 0.049909
C23   C     C_R   0.405056 0.843800 0.395995 0.036733
C24   C     C_R   0.404901 0.156116 0.895870 0.020434
C25   C     C_R   0.798860 0.230705 0.161551 -0.094864
C26   C     C_R   0.797195 0.768233 0.666783 -0.101266
C27   C     C_R   0.296641 0.731752 0.171508 -0.085665
C28   C     C_R   0.297718 0.268645 0.666667 -0.100552
C29   C     C_R   0.255518 0.700186 0.123103 -0.164825
C30   C     C_R   0.256396 0.300027 0.619189 -0.154840
C31   C     C_R   0.757601 0.199129 0.113653 -0.162003
C32   C     C_R   0.755747 0.799502 0.619475 -0.149712
C33   C     C_R   0.208707 0.717715 0.042997 0.021754
C34   C     C_R   0.209191 0.282277 0.542508 0.026381
C35   C     C_R   0.709667 0.217047 0.042775 0.021473
C36   C     C_R   0.708308 0.781554 0.545015 0.026966
C37   C     C_R   0.204069 0.768351 0.010910 0.399421
C38   C     C_R   0.203509 0.231376 0.515021 0.403426
C39   C     C_R   0.703876 0.267957 0.020187 0.407652
C40   C     C_R   0.702508 0.730570 0.519792 0.403100
C41   C     C_R   0.745702 0.299446 0.070831 -0.134612
C42   C     C_R   0.745533 0.699498 0.567089 -0.150512
C43   C     C_R   0.245777 0.799872 0.062858 -0.140826
C44   C     C_R   0.246382 0.200191 0.562628 -0.151033
C45   C     C_3   0.001881 0.274839 0.137481 0.277170
C46   C     C_3   0.980568 0.708393 0.579279 0.408537
C47   C     C_3   0.500253 0.774581 0.133386 0.275169
C48   C     C_3   0.481574 0.209668 0.581862 0.474019
C49   C     C_R   0.793721 0.281286 0.139401 0.004757
C50   C     C_R   0.792893 0.717919 0.639844 0.011801
C51   C     C_R   0.292771 0.781964 0.140212 0.008545
C52   C     C_R   0.293519 0.218404 0.637892 0.011713
C53   C     C_R   0.137590 0.686873 0.837066 -0.076717
C54   C     C_R   0.137725 0.313111 0.337340 -0.086505
C55   C     C_R   0.637394 0.187476 0.838341 -0.085234
C56   C     C_R   0.636376 0.811894 0.340240 -0.086108
C57   C     C_R   0.097852 0.653989 0.786968 -0.003943
C58   C     C_R   0.097438 0.345541 0.288724 -0.035272
C59   C     C_R   0.597315 0.154834 0.788287 -0.016942
C60   C     C_R   0.596352 0.844580 0.290788 -0.039450
C61   C     C_R   0.114430 0.609845 0.038004 0.065622
C62   C     C_R   0.114691 0.390121 0.538467 0.062979
C63   C     C_R   0.614880 0.109763 0.037683 0.087930
C64   C     C_R   0.614381 0.889851 0.539187 0.070387
C65   C     C_R   0.154036 0.643146 0.089660 -0.134277
C66   C     C_R   0.154692 0.357080 0.589281 -0.143703
C67   C     C_R   0.655199 0.142417 0.088112 -0.105050
C68   C     C_R   0.654207 0.856696 0.590388 -0.130343
C69   C     C_R   0.165572 0.682730 0.990815 0.007718
C70   C     C_R   0.166099 0.317427 0.490461 0.017147
C71   C     C_R   0.666297 0.182371 0.990515 0.019609
C72   C     C_R   0.665119 0.816602 0.492761 0.018612
C73   C     C_R   0.085335 0.616831 0.889710 -0.308664
C74   C     C_R   0.085076 0.382761 0.391381 -0.291638
C75   C     C_R   0.585024 0.117493 0.890889 -0.280463
C76   C     C_R   0.584372 0.882147 0.392818 -0.293940
C77   C     C_3   0.965161 0.235709 0.062404 0.262851
C78   C     C_3   0.954277 0.758052 0.568277 0.308742
C79   C     C_3   0.463077 0.736177 0.055845 0.264873
C80   C     C_3   0.455195 0.259155 0.561503 0.294587
C81   C     C_3   0.149645 0.469632 0.224760 0.403784
C82   C     C_3   0.149163 0.529894 0.729609 0.386607
C83   C     C_3   0.647096 0.968603 0.220040 0.359551
C84   C     C_3   0.647267 0.031364 0.717378 0.371218
C85   C     C_3   0.196968 0.437211 0.216952 0.320978
C86   C     C_3   0.199397 0.558652 0.761477 0.311837
C87   C     C_3   0.695107 0.936304 0.230560 0.274356
C88   C     C_3   0.696514 0.061688 0.746104 0.278691
C89   C     C_3   0.847259 0.531392 0.980312 0.303402
C90   C     C_3   0.848232 0.467810 0.487783 0.306103
C91   C     C_3   0.347364 0.031387 0.979313 0.303123
C92   C     C_3   0.347792 0.968333 0.483851 0.305491
C93   C     C_3   0.800885 0.561761 0.018301 0.240906
C94   C     C_3   0.800929 0.438167 0.521663 0.242859
C95   C     C_3   0.300932 0.061858 0.016220 0.242180
C96   C     C_3   0.300216 0.938606 0.514299 0.241866
C97   C     C_3   0.018816 0.288573 0.619220 0.442105
C98   C     C_3   0.017454 0.711414 0.110989 0.369121
C99   C     C_3   0.516432 0.787384 0.618450 0.431582
C100  C     C_3   0.496724 0.227530 0.054252 0.381824
C101  C     C_R   0.915803 0.382605 0.298066 -0.261793
C102  C     C_R   0.915036 0.616698 0.798594 -0.267325
C103  C     C_R   0.415623 0.882784 0.297461 -0.263877
C104  C     C_R   0.415456 0.117034 0.797709 -0.250236
H1    H     H_    0.041906 0.318128 0.683190 0.007019
H2    H     H_    0.040876 0.681972 0.174506 -0.001346
H3    H     H_    0.540742 0.815599 0.685372 0.009393
H4    H     H_    0.522366 0.198257 0.015705 -0.109599
H5    H     H_    0.190342 0.401635 0.274109 -0.078259
H6    H     H_    0.190886 0.595168 0.808612 -0.075967
H7    H     H_    0.684502 0.899137 0.265698 -0.020967
H8    H     H_    0.686165 0.100743 0.752959 -0.060282
H9    H     H_    0.201452 0.431049 0.087398 0.019039
H10   H     H_    0.215841 0.563297 0.644889 0.007203
H11   H     H_    0.708353 0.932883 0.108398 0.006016
H12   H     H_    0.719028 0.056569 0.641098 0.023105
H13   H     H_    0.850461 0.532506 0.849474 -0.001554
H14   H     H_    0.854083 0.464530 0.359123 -0.017133
H15   H     H_    0.350713 0.032264 0.848557 0.000493
H16   H     H_    0.353738 0.966227 0.355007 -0.011781
H17   H     H_    0.882782 0.546737 0.047743 0.047011
H18   H     H_    0.882582 0.453490 0.563827 0.062859
H19   H     H_    0.382838 0.046817 0.046774 0.045388
H20   H     H_    0.381983 0.953241 0.558881 0.057513
H21   H     H_    0.764707 0.543011 0.967818 0.034819
H22   H     H_    0.766296 0.453163 0.447667 0.025195
H23   H     H_    0.264787 0.042838 0.966883 0.035181
H24   H     H_    0.265546 0.955075 0.444641 0.029610
H25   H     H_    0.801669 0.563803 0.151716 0.038115
H26   H     H_    0.795878 0.442473 0.651587 0.035451
H27   H     H_    0.301802 0.064475 0.149551 0.037367
H28   H     H_    0.295826 0.940810 0.645245 0.034190
H29   H     H_    0.017948 0.294127 0.487645 -0.124522
H30   H     H_    0.016118 0.706056 0.978848 -0.023663
H31   H     H_    0.515852 0.793960 0.487354 -0.116632
H32   H     H_    0.471268 0.241415 0.948902 0.010726
H33   H     H_    0.085108 0.241215 0.623915 0.020483
H34   H     H_    0.085276 0.756661 0.128115 0.030143
H35   H     H_    0.580814 0.737734 0.622818 0.025697
H36   H     H_    0.554318 0.282417 0.028807 0.038872
H37   H     H_    0.050283 0.237076 0.797962 0.046339
H38   H     H_    0.044232 0.765251 0.287497 0.038199
H39   H     H_    0.543547 0.732747 0.791591 0.041146
H40   H     H_    0.557399 0.254510 0.226420 0.054092
H41   H     H_    0.176238 0.637632 0.205291 0.085409
H42   H     H_    0.177206 0.362766 0.704311 0.083615
H43   H     H_    0.678157 0.136293 0.202169 0.073641
H44   H     H_    0.676985 0.862628 0.704831 0.082547
H45   H     H_    0.260734 0.661623 0.146783 0.080895
H46   H     H_    0.261802 0.338708 0.639984 0.083885
H47   H     H_    0.763447 0.160347 0.130607 0.077311
H48   H     H_    0.761228 0.838243 0.638660 0.091879
H49   H     H_    0.835026 0.215361 0.215061 0.129149
H50   H     H_    0.833089 0.783637 0.722413 0.074817
H51   H     H_    0.331711 0.716602 0.233012 0.117010
H52   H     H_    0.333435 0.283927 0.723967 0.070811
H53   H     H_    0.823934 0.362953 0.984231 0.070227
H54   H     H_    0.824620 0.637188 0.481788 0.071027
H55   H     H_    0.323965 0.863166 0.983277 0.068296
H56   H     H_    0.325223 0.137486 0.480505 0.070273
H57   H     H_    0.740212 0.338418 0.060874 0.065186
H58   H     H_    0.742908 0.660605 0.550396 0.065476
H59   H     H_    0.240895 0.838742 0.046472 0.065747
H60   H     H_    0.243739 0.161376 0.544168 0.064558
H61   H     H_    0.147702 0.714460 0.753789 0.082217
H62   H     H_    0.147943 0.285747 0.253197 0.107356
H63   H     H_    0.647269 0.215485 0.756107 0.075388
H64   H     H_    0.646320 0.784184 0.256869 0.108171
H65   H     H_    0.859506 0.279128 0.419391 0.055081
H66   H     H_    0.858366 0.719871 0.920345 0.058893
H67   H     H_    0.358552 0.780110 0.420801 0.047738
H68   H     H_    0.358503 0.220025 0.919600 0.052283
H69   H     H_    0.055146 0.591137 0.849164 0.072141
H70   H     H_    0.054787 0.408408 0.351094 0.069709
H71   H     H_    0.554486 0.092089 0.850916 0.062646
H72   H     H_    0.554249 0.907916 0.352127 0.068383
H73   H     H_    0.944508 0.409346 0.341789 0.056735
H74   H     H_    0.943688 0.589913 0.842550 0.058462
H75   H     H_    0.444431 0.909447 0.341067 0.056343
H76   H     H_    0.443973 0.090167 0.841992 0.055472
H77   H     H_    0.978122 0.305443 0.176771 -0.015702
H78   H     H_    0.958597 0.683810 0.491087 0.015202
H79   H     H_    0.476773 0.805606 0.171196 -0.006639
H80   H     H_    0.458092 0.183262 0.504049 0.005207
H81   H     H_    0.026190 0.259284 0.242361 0.015745
H82   H     H_    0.979013 0.694000 0.702797 -0.074299
H83   H     H_    0.523259 0.758360 0.239775 0.017218
H84   H     H_    0.482311 0.198338 0.709519 -0.153664
H85   H     H_    0.939079 0.252688 0.963994 0.103503
H86   H     H_    0.912214 0.752029 0.575428 -0.062970
H87   H     H_    0.441439 0.752362 0.947016 0.114786
H88   H     H_    0.414689 0.254728 0.591221 -0.090103
H89   H     H_    0.987486 0.207097 0.005359 0.007134
H90   H     H_    0.959659 0.774960 0.450355 0.042271
H91   H     H_    0.485089 0.704653 0.013713 -0.010142
H92   H     H_    0.454306 0.270718 0.433890 0.096333
H93   H     H_    0.141449 0.473123 0.351056 -0.026967
H94   H     H_    0.131894 0.525400 0.843725 -0.012434
H95   H     H_    0.633239 0.971330 0.340014 -0.018800
H96   H     H_    0.628215 0.029640 0.829239 -0.012664
H97   H     H_    0.116244 0.452459 0.151582 -0.041686
H98   H     H_    0.122062 0.550196 0.641753 -0.035596
H99   H     H_    0.616774 0.951666 0.133919 -0.005378
H100  H     H_    0.620919 0.048939 0.621094 -0.010821
O1    O     O_2   0.898940 0.431940 0.867860 -0.462501
O2    O     O_2   0.898940 0.568060 0.367860 -0.461650
O3    O     O_2   0.398940 0.931940 0.867860 -0.461659
O4    O     O_2   0.398940 0.068060 0.367860 -0.461552
O5    O     O_3   0.160829 0.484475 0.667390 -0.624438
O6    O     O_3   0.160862 0.515540 0.165102 -0.605100
O7    O     O_3   0.660746 0.984579 0.670634 -0.623104
O8    O     O_3   0.660360 0.014857 0.167911 -0.619252
O9    O     O_3   0.034067 0.289579 0.022398 -0.630006
O10   O     O_3   0.031971 0.712720 0.543212 -0.613444
O11   O     O_3   0.533781 0.788955 0.021371 -0.630368
O12   O     O_3   0.531957 0.212480 0.535946 -0.590908
O13   O     O_3   0.058810 0.523750 0.066650 -0.495023
O14   O     O_3   0.058810 0.476250 0.566650 -0.493682
O15   O     O_3   0.558810 0.023750 0.066650 -0.497567
O16   O     O_3   0.558810 0.976250 0.566650 -0.498474
O17   O     O_3   0.941140 0.476130 0.123050 -0.491798
O18   O     O_3   0.941140 0.523870 0.623050 -0.494807
O19   O     O_3   0.441140 0.976130 0.123050 -0.493302
O20   O     O_3   0.441140 0.023870 0.623050 -0.495348
O21   O     O_3   0.982430 0.389880 0.635700 -0.493363
O22   O     O_3   0.982430 0.610120 0.135700 -0.491663
O23   O     O_3   0.482430 0.889880 0.635700 -0.492526
O24   O     O_3   0.482430 0.110120 0.135700 -0.469462
O25   O     O_2   0.897146 0.350046 0.725276 -0.458809
O26   O     O_2   0.896829 0.649928 0.225790 -0.483190
O27   O     O_2   0.395961 0.851255 0.723374 -0.462246
O28   O     O_2   0.395434 0.147736 0.222527 -0.480842
O29   O     O_3   0.837757 0.483449 0.025182 -0.682843
O30   O     O_3   0.837789 0.516455 0.522174 -0.679909
O31   O     O_3   0.337815 0.983532 0.025045 -0.682465
O32   O     O_3   0.337709 0.016632 0.523306 -0.680113
O33   O     O_3   0.968311 0.287723 0.665005 -0.595404
O34   O     O_3   0.967278 0.712283 0.159332 -0.608689
O35   O     O_3   0.466037 0.787910 0.664779 -0.600919
O36   O     O_3   0.466359 0.210815 0.171842 -0.595861
O37   O     O_2   0.100770 0.431440 0.821660 -0.458554
O38   O     O_2   0.100770 0.568560 0.321660 -0.463354
O39   O     O_2   0.600770 0.931440 0.821660 -0.458721
O40   O     O_2   0.600770 0.068560 0.321660 -0.466405
O41   O     O_3   0.017130 0.389790 0.053700 -0.462923
O42   O     O_3   0.017130 0.610210 0.553700 -0.487819
O43   O     O_3   0.517130 0.889790 0.053700 -0.465990
O44   O     O_3   0.517130 0.110210 0.553700 -0.488439
O45   O     O_2   0.103548 0.352157 0.960436 -0.495211
O46   O     O_2   0.100756 0.651838 0.453569 -0.500482
O47   O     O_2   0.603685 0.851907 0.963396 -0.493616
O48   O     O_2   0.601334 0.151047 0.455615 -0.487305
P1    P     P_3+3 0.893960 0.447890 0.040050 0.982725
P2    P     P_3+3 0.893960 0.552110 0.540050 0.977413
P3    P     P_3+3 0.393960 0.947890 0.040050 0.982018
P4    P     P_3+3 0.393960 0.052110 0.540050 0.977008
P5    P     P_3+3 0.105800 0.447360 0.649510 0.997964
P6    P     P_3+3 0.105800 0.552640 0.149510 1.003600
P7    P     P_3+3 0.605800 0.947360 0.649510 1.002308
P8    P     P_3+3 0.605800 0.052640 0.149510 1.009591
P9    P     P_3+3 0.064130 0.344216 0.083508 0.938299
P10   P     P_3+3 0.063088 0.656786 0.583733 0.940612
P11   P     P_3+3 0.563639 0.843669 0.084414 0.934867
P12   P     P_3+3 0.563035 0.156929 0.583535 0.958946
P13   P     P_3+3 0.936884 0.657037 0.103820 0.955832
P14   P     P_3+3 0.937526 0.342476 0.604576 0.982216
P15   P     P_3+3 0.436286 0.156575 0.104452 0.967699
P16   P     P_3+3 0.436660 0.843168 0.604120 0.978253
O49   O     O_3   0.240857 0.460075 0.299326 -0.629615
C105  C     C_3   0.286449 0.438276 0.255023 0.297178
H101  H     H_    0.289184 0.443731 0.124239 0.049581
H102  H     H_    0.287028 0.398559 0.282874 0.020292
C106  C     C_3   0.333403 0.462341 0.349079 -0.171859
H103  H     H_    0.331581 0.502394 0.329536 0.126345
H104  H     H_    0.332757 0.455107 0.479498 0.115075
C107  C     C_3   0.384006 0.443042 0.296196 -0.525462
H105  H     H_    0.387342 0.403206 0.318144 0.141101
H106  H     H_    0.417235 0.461529 0.365647 0.137111
H107  H     H_    0.385767 0.450447 0.166393 0.137580
O50   O     O_3   0.233712 0.533425 0.875524 -0.625722
C108  C     C_3   0.284270 0.553006 0.881923 0.292812
H108  H     H_    0.302848 0.548887 0.007163 0.070399
H109  H     H_    0.284635 0.592780 0.854183 0.007948
C109  C     C_3   0.316170 0.524490 0.769611 -0.190979
H110  H     H_    0.316453 0.485243 0.802419 0.124388
H111  H     H_    0.298326 0.528120 0.643493 0.127428
C110  C     C_3   0.371838 0.542904 0.780066 -0.530482
H112  H     H_    0.372571 0.582317 0.750370 0.138081
H113  H     H_    0.393182 0.522663 0.693128 0.144769
H114  H     H_    0.391669 0.536976 0.902732 0.138633
O51   O     O_3   0.732976 0.954212 0.350605 -0.645081
C111  C     C_3   0.776303 0.972077 0.280845 0.289902
H115  H     H_    0.764342 0.001230 0.192120 0.095374
H116  H     H_    0.795451 0.941880 0.220749 0.022674
C112  C     C_3   0.814862 0.993622 0.412315 -0.175780
H117  H     H_    0.796464 0.024771 0.469139 0.116851
H118  H     H_    0.825683 0.965452 0.505291 0.123638
C113  C     C_3   0.863704 0.011506 0.345052 -0.532821
H119  H     H_    0.882939 0.981076 0.287247 0.139304
H120  H     H_    0.891008 0.026175 0.444599 0.147909
H121  H     H_    0.854059 0.040862 0.255534 0.135310
O52   O     O_3   0.724748 0.047313 0.892429 -0.646776
C114  C     C_3   0.776716 0.063256 0.899514 0.279632
H122  H     H_    0.789262 0.075029 0.024586 0.045457
H123  H     H_    0.781966 0.095544 0.821684 0.017589
C115  C     C_3   0.811137 0.020861 0.857622 -0.181661
H124  H     H_    0.813198 0.993207 0.954897 0.100031
H125  H     H_    0.793901 0.003085 0.745504 0.135122
C116  C     C_3   0.865742 0.037903 0.835428 -0.525418
H126  H     H_    0.864750 0.064302 0.734608 0.138560
H127  H     H_    0.889704 0.006182 0.807411 0.142946
H128  H     H_    0.883760 0.055368 0.947143 0.138551
O53   O     O_3   0.802918 0.608355 0.948993 -0.671604
C117  C     C_3   0.765759 0.638711 0.009462 0.149839
H129  H     H_    0.777750 0.647716 0.137546 0.050867
H130  H     H_    0.726451 0.622077 0.994684 0.014755
H131  H     H_    0.763388 0.673374 0.941255 0.069798
O54   O     O_3   0.807898 0.388880 0.482743 -0.670325
C118  C     C_3   0.766464 0.361200 0.530318 0.163746
H132  H     H_    0.728564 0.374203 0.470771 0.016137
H133  H     H_    0.766672 0.361589 0.663260 0.034166
H134  H     H_    0.771241 0.322827 0.493318 0.065477
O55   O     O_3   0.302734 0.108158 0.944673 -0.670046
C119  C     C_3   0.265433 0.138659 0.003784 0.151741
H135  H     H_    0.277533 0.148427 0.131180 0.050754
H136  H     H_    0.226241 0.121769 0.990612 0.012922
H137  H     H_    0.262695 0.172928 0.933469 0.069960
O56   O     O_3   0.306139 0.890040 0.465551 -0.673565
C120  C     C_3   0.265191 0.861708 0.513022 0.152093
H138  H     H_    0.226896 0.875877 0.460668 0.020236
H139  H     H_    0.267344 0.859686 0.646220 0.040730
H140  H     H_    0.268844 0.824041 0.467955 0.064299
O57   O     O_3   0.934061 0.216886 0.176623 -0.688899
C121  C     C_3   0.957088 0.175254 0.254338 0.269122
H141  H     H_    0.943454 0.173133 0.375324 0.125368
H142  H     H_    0.000192 0.177539 0.273058 0.062095
C122  C     C_3   0.939840 0.128716 0.162746 -0.220960
H143  H     H_    0.897406 0.123894 0.164228 0.115342
H144  H     H_    0.948048 0.131418 0.035583 0.115376
C123  C     C_3   0.968114 0.084308 0.238895 -0.513580
H145  H     H_    0.010492 0.087895 0.233603 0.130886
H146  H     H_    0.954501 0.050880 0.172778 0.145924
H147  H     H_    0.960488 0.080566 0.366262 0.133635
O58   O     O_3   0.975679 0.787685 0.696620 -0.616892
C124  C     C_3   0.949960 0.833211 0.694531 0.315678
H148  H     H_    0.947736 0.844276 0.821297 0.096154
H149  H     H_    0.909216 0.832108 0.636259 -0.008251
C125  C     C_3   0.980854 0.871664 0.613023 -0.197067
H150  H     H_    0.021090 0.873097 0.673468 0.130812
H151  H     H_    0.982456 0.861588 0.485198 0.104258
C126  C     C_3   0.956142 0.921962 0.620291 -0.521956
H152  H     H_    0.916116 0.921529 0.557970 0.141944
H153  H     H_    0.979316 0.948972 0.559890 0.143187
H154  H     H_    0.954955 0.933332 0.747313 0.128465
O59   O     O_3   0.426501 0.723033 0.161631 -0.689212
C127  C     C_3   0.440785 0.679596 0.246008 0.262632
H155  H     H_    0.426014 0.682200 0.365382 0.116292
H156  H     H_    0.483558 0.674553 0.269090 0.067046
C128  C     C_3   0.415587 0.635412 0.157069 -0.217071
H157  H     H_    0.373140 0.641339 0.132826 0.125264
H158  H     H_    0.431520 0.630802 0.040050 0.109973
C129  C     C_3   0.425320 0.588945 0.255992 -0.512804
H159  H     H_    0.467514 0.581437 0.277881 0.132203
H160  H     H_    0.406121 0.557671 0.190047 0.140456
H161  H     H_    0.409208 0.592519 0.373090 0.135507
O60   O     O_3   0.482614 0.293519 0.663439 -0.653906
C130  C     C_3   0.453411 0.336887 0.664661 0.277038
H162  H     H_    0.417126 0.330168 0.720881 0.043405
H163  H     H_    0.443612 0.351115 0.540329 0.030005
C131  C     C_3   0.485136 0.375374 0.763331 -0.167123
H164  H     H_    0.497189 0.360943 0.885655 0.151835
H165  H     H_    0.520448 0.383830 0.704717 0.110021
C132  C     C_3   0.454077 0.422084 0.777684 -0.517181
H166  H     H_    0.442060 0.437511 0.656799 0.133477
H167  H     H_    0.478327 0.449362 0.848970 0.139666
H168  H     H_    0.419102 0.414710 0.839306 0.140653
O61   O     O_3   0.156517 0.786956 0.946532 -0.666355
C133  C     C_3   0.161177 0.817994 0.813382 0.290374
H169  H     H_    0.136383 0.802989 0.708377 0.072770
H170  H     H_    0.201017 0.820322 0.776144 -0.018141
C134  C     C_3   0.141091 0.868807 0.849004 -0.169806
H171  H     H_    0.099344 0.866316 0.865083 0.123537
H172  H     H_    0.162054 0.883061 0.962075 0.106272
C135  C     C_3   0.147658 0.904402 0.712772 -0.519871
H173  H     H_    0.189397 0.910803 0.703250 0.126592
H174  H     H_    0.129413 0.939765 0.737953 0.139586
H175  H     H_    0.128797 0.890022 0.596843 0.127280
O62   O     O_3   0.155987 0.215361 0.437854 -0.679314
C136  C     C_3   0.146670 0.164698 0.442766 0.268612
H176  H     H_    0.104069 0.159696 0.433759 0.084749
H177  H     H_    0.161729 0.147730 0.559243 0.017850
C137  C     C_3   0.165419 0.139335 0.296514 -0.198000
H178  H     H_    0.142802 0.153097 0.185294 0.111838
H179  H     H_    0.206708 0.147784 0.288235 0.099098
C138  C     C_3   0.158979 0.084232 0.305771 -0.509005
H180  H     H_    0.182449 0.069625 0.414055 0.140523
H181  H     H_    0.172411 0.067026 0.197595 0.133914
H182  H     H_    0.117625 0.074726 0.310811 0.127685
O63   O     O_3   0.655279 0.286573 0.967438 -0.676825
C139  C     C_3   0.656875 0.318487 0.834929 0.266953
H183  H     H_    0.629535 0.304284 0.734434 0.080965
H184  H     H_    0.695406 0.320938 0.788086 -0.011486
C140  C     C_3   0.638494 0.369155 0.879353 -0.166968
H185  H     H_    0.598478 0.366535 0.913722 0.116294
H186  H     H_    0.663816 0.383520 0.984127 0.108098
C141  C     C_3   0.639094 0.404642 0.739248 -0.512358
H187  H     H_    0.679309 0.409882 0.709066 0.125339
H188  H     H_    0.623619 0.440441 0.773185 0.138295
H189  H     H_    0.614631 0.390741 0.631849 0.125181
O64   O     O_3   0.654562 0.714357 0.446235 -0.679077
C142  C     C_3   0.646069 0.663539 0.448285 0.267942
H190  H     H_    0.603565 0.657859 0.438798 0.084443
H191  H     H_    0.661247 0.646288 0.564150 0.018906
C143  C     C_3   0.665387 0.639245 0.300983 -0.197959
H192  H     H_    0.641851 0.652363 0.190523 0.112286
H193  H     H_    0.706183 0.649338 0.291327 0.099359
C144  C     C_3   0.661438 0.583923 0.309902 -0.508907
H194  H     H_    0.685964 0.570026 0.417208 0.140557
H195  H     H_    0.675140 0.567506 0.200898 0.133503
H196  H     H_    0.620627 0.572771 0.316506 0.128367
O65   O     O_3   0.017162 0.201538 0.589830 -0.646958
C145  C     C_3   0.030444 0.157632 0.671722 0.131844
H197  H     H_    0.012365 0.156090 0.785934 0.044324
H198  H     H_    0.073104 0.152713 0.696368 0.004953
H199  H     H_    0.015065 0.126757 0.595594 0.050010
O66   O     O_3   0.018962 0.797622 0.066081 -0.599550
C146  C     C_3   0.038359 0.842696 0.126895 0.185840
H200  H     H_    0.081433 0.844299 0.134789 0.035396
H201  H     H_    0.025349 0.849978 0.246859 0.011293
H202  H     H_    0.022654 0.872038 0.044334 0.045490
O67   O     O_3   0.511310 0.701157 0.574373 -0.648043
C147  C     C_3   0.519899 0.656035 0.653273 0.131533
H203  H     H_    0.500231 0.655200 0.764732 0.044102
H204  H     H_    0.561892 0.648029 0.681977 0.005478
H205  H     H_    0.502878 0.626770 0.572816 0.053284
O68   O     O_3   0.499468 0.307051 0.172727 -0.640637
C148  C     C_3   0.530764 0.342110 0.259476 0.135210
H206  H     H_    0.561050 0.356532 0.187800 0.018712
H207  H     H_    0.548736 0.326849 0.375472 0.070538
H208  H     H_    0.505927 0.373145 0.287753 0.065364

loop_
_geom_bond_atom_site_label_1
_geom_bond_atom_site_label_2
_ccdc_geom_bond_type
O3    P3    D    
Ba3   O16   S    
C83   C87   S    
O65   C145  S    
C61   P6    S    
C66   H42   S    
O57   C121  S    
C21   C101  A    
C120  H138  S    
C46   C78   S    
Ba4   O24   S    
O31   P3    S    
O50   C108  S    
C137  H179  S    
C78   H90   S    
C58   P9    S    
C2    H38   S    
C91   C95   S    
C4    C100  S    
C95   O55   S    
O33   P14   S    
Ba1   O13   S    
C105  H101  S    
C140  C141  S    
C48   C80   S    
C5    C9    A    
C132  H168  S    
C7    C11   A    
C8    C12   A    
C66   C70   A    
C139  C140  S    
C82   H94   S    
C143  H193  S    
O48   P12   D    
Ba4   P4    S    
C85   O49   S    
O18   P2    S    
C84   H100  S    
C55   H63   S    
C107  H106  S    
O15   P8    S    
C40   C42   A    
O16   P7    S    
C85   H5    S    
C61   C73   A    
C104  H76   S    
C118  H132  S    
C109  C110  S    
C39   O63   S    
Ba4   O44   S    
O13   P6    S    
C82   C86   S    
C8    C104  A    
C97   H29   S    
C148  H208  S    
C86   O50   S    
C56   C72   A    
Ba2   O13   S    
C13   C17   A    
C100  H32   S    
C45   O9    S    
C25   C49   A    
C28   C30   A    
C15   C19   A    
C22   P13   S    
O1    P1    D    
C126  H152  S    
C12   C16   A    
C125  H150  S    
C93   O53   S    
O52   C114  S    
C91   O31   S    
C139  H183  S    
C88   H8    S    
C90   H14   S    
C111  H115  S    
C17   H65   S    
O61   C133  S    
C75   H71   S    
C77   O57   S    
C20   H68   S    
C47   C79   S    
O14   P5    S    
C78   O58   S    
C147  H203  S    
C120  H140  S    
C11   H55   S    
C138  H181  S    
O46   P10   D    
C117  H131  S    
C89   H13   S    
C60   P11   S    
C96   H24   S    
C53   C57   A    
C136  H176  S    
C25   C31   A    
C55   C59   A    
C1    C97   S    
C26   C32   A    
C56   C60   A    
C4    O68   S    
C107  H105  S    
C108  H109  S    
Ba1   O37   S    
C62   C66   A    
C24   C104  A    
Ba3   P3    S    
C100  O36   S    
O58   C124  S    
O10   P10   S    
C2    C98   S    
C79   H87   S    
C77   H85   S    
O59   C127  S    
Ba3   O20   S    
O39   P7    D    
C134  H172  S    
Ba1   O18   S    
C124  H148  S    
C93   H25   S    
C16   C52   S    
O37   P5    D    
C3    H35   S    
O60   C130  S    
C81   H97   S    
C146  H201  S    
C91   H19   S    
Ba2   P6    S    
C12   H56   S    
C96   O56   S    
C110  H113  S    
Ba3   O43   S    
C29   H45   S    
C116  H127  S    
C5    C101  A    
C138  H180  S    
C125  C126  S    
C40   O64   S    
Ba4   O19   S    
C53   C69   A    
C131  H164  S    
C117  H130  S    
C111  C112  S    
C89   O29   S    
C135  H173  S    
C83   O8    S    
C142  H191  S    
C98   O34   S    
C35   C71   S    
C62   P5    S    
C147  H205  S    
C86   H6    S    
C41   C49   A    
C3    C99   S    
C106  H103  S    
C127  H155  S    
C3    H39   S    
C122  H144  S    
Ba3   O3    S    
C136  C137  S    
C113  H120  S    
C1    H37   S    
Ba1   O1    S    
O34   P13   S    
O56   C120  S    
C6    C10   A    
Ba3   O23   S    
O25   P14   D    
C100  H4    S    
C1    O65   S    
C47   O11   S    
C73   H69   S    
O5    P5    S    
C118  H133  S    
C131  C132  S    
C109  H111  S    
C37   O61   S    
C143  C144  S    
C146  H200  S    
C26   H50   S    
Ba4   P8    S    
C130  C131  S    
O23   P16   S    
C37   C43   A    
O24   P15   S    
C38   C44   A    
C84   H96   S    
C39   C41   A    
C129  H161  S    
C141  H187  S    
C126  H153  S    
C85   H9    S    
C144  H196  S    
C121  H142  S    
C128  C129  S    
C87   H11   S    
C6    C102  A    
Ba3   Ba4   S    
C46   H78   S    
C89   C93   S    
C47   H83   S    
C54   C70   A    
C38   O62   S    
C34   C70   S    
C91   H15   S    
C17   C21   A    
Ba3   O15   S    
C14   C18   A    
C58   C74   A    
C20   C24   A    
C119  H135  S    
O20   P4    S    
C124  C125  S    
Ba4   O15   S    
C9    C13   A    
C114  C115  S    
C88   H12   S    
C81   O6    S    
C88   O52   S    
C80   H88   S    
C135  H175  S    
C92   C96   S    
C111  H116  S    
C105  H102  S    
C140  H186  S    
C33   C37   A    
C112  C113  S    
C57   P10   S    
C132  H167  S    
Ba2   O22   S    
C36   C40   A    
C45   H77   S    
C123  H145  S    
C106  C107  S    
C48   H80   S    
C101  H73   S    
C127  C128  S    
C96   H28   S    
C54   C58   A    
C133  H169  S    
C84   O7    S    
C5    P1    S    
C105  C106  S    
C92   O32   S    
C107  H107  S    
C22   C102  A    
C3    O67   S    
C11   C15   A    
C144  H194  S    
O11   P11   S    
C86   H10   S    
C77   H89   S    
C148  H207  S    
C19   H67   S    
C145  H197  S    
C90   C94   S    
C97   H1    S    
C130  H162  S    
Ba2   O14   S    
O68   C148  S    
C92   H20   S    
C99   H3    S    
C45   C77   S    
C129  H159  S    
C80   O60   S    
O44   P12   S    
C67   H43   S    
C68   H44   S    
C125  H151  S    
C128  H157  S    
C65   C69   A    
C2    H34   S    
C59   P12   S    
O38   P6    D    
C81   H93   S    
C30   H46   S    
O54   C118  S    
C60   C76   A    
C4    H40   S    
Ba3   O39   S    
C119  H137  S    
C83   H95   S    
C147  H204  S    
Ba2   O2    S    
Ba1   P1    S    
C120  H139  S    
C62   C74   A    
C114  H122  S    
O7    P7    S    
C137  H178  S    
O42   P10   S    
Ba1   O41   S    
O51   C111  S    
C81   C85   S    
C25   H49   S    
C133  C134  S    
O27   P16   D    
O4    P4    D    
O28   P15   D    
C29   C33   A    
Ba1   O14   S    
C10   H54   S    
C31   C35   A    
C112  H117  S    
C108  H108  S    
C26   C50   A    
O21   P14   S    
C123  H147  S    
C23   C103  A    
C42   C50   A    
C63   C75   A    
O32   P4    S    
O8    P8    S    
O9    P9    S    
O29   P1    S    
O64   C142  S    
C98   H2    S    
C121  C122  S    
C13   C49   S    
C32   H48   S    
O26   P13   D    
C134  H171  S    
C15   C51   S    
C115  H124  S    
C42   H58   S    
C74   H70   S    
O6    P6    S    
C31   H47   S    
O62   C136  S    
O22   P13   S    
O2    P2    D    
C65   H41   S    
Ba2   O38   S    
O55   C119  S    
C116  H126  S    
C61   C65   A    
C87   O51   S    
C87   H7    S    
C63   C67   A    
C46   H82   S    
C89   H17   S    
C78   H86   S    
C47   H79   S    
O17   P1    S    
C36   C72   S    
C135  H174  S    
C18   C22   A    
C2    O66   S    
C27   C51   A    
C41   H57   S    
C28   C52   A    
Ba2   O17   S    
C7    P3    S    
C115  C116  S    
C64   C76   A    
C138  H182  S    
O36   P15   S    
C10   C14   A    
O63   C139  S    
C137  C138  S    
C68   C72   A    
C82   H98   S    
C127  H156  S    
C63   P8    S    
C59   C75   A    
C122  H143  S    
C80   H92   S    
C136  H177  S    
C113  H121  S    
O47   P11   D    
C76   H72   S    
C54   H62   S    
C139  H184  S    
C34   C38   A    
C108  C109  S    
Ba2   O42   S    
C98   H30   S    
C45   H81   S    
O41   P9    S    
Ba1   Ba2   S    
C48   H84   S    
O66   C146  S    
C102  H74   S    
O35   P16   S    
C90   O30   S    
Ba4   O40   S    
C16   C20   A    
O40   P8    D    
C130  H163  S    
C99   O35   S    
C140  H185  S    
C6    P2    S    
C19   C23   A    
C97   O33   S    
C141  H188  S    
C21   P14   S    
C64   C68   A    
C134  C135  S    
C110  H112  S    
C23   P16   S    
C124  H149  S    
C24   P15   S    
C128  H158  S    
C94   H22   S    
C18   H66   S    
C146  H202  S    
C53   H61   S    
C90   H18   S    
C48   O12   S    
C92   H16   S    
C95   H27   S    
C56   H64   S    
C84   C88   S    
C32   C36   A    
C110  H114  S    
C141  H189  S    
C119  H136  S    
C57   C73   A    
C116  H128  S    
C35   C39   A    
O45   P9    D    
Ba4   O16   S    
C46   O10   S    
C103  H75   S    
C114  H123  S    
O43   P11   S    
C117  H129  S    
C99   H31   S    
C43   H59   S    
C1    H33   S    
C142  H190  S    
C44   H60   S    
C27   C29   A    
O49   C105  S    
C142  C143  S    
C4    H36   S    
C112  H118  S    
C83   H99   S    
C132  H166  S    
C79   O59   S    
Ba1   P5    S    
Ba2   P2    S    
C123  H146  S    
Ba3   P7    S    
C106  H104  S    
C7    C103  A    
C79   H91   S    
O12   P12   S    
C115  H125  S    
C55   C71   A    
C43   C51   A    
C143  H192  S    
C122  C123  S    
C44   C52   A    
C33   C69   S    
C113  H119  S    
C133  H170  S    
C30   C34   A    
C9    H53   S    
O19   P3    S    
C94   H26   S    
Ba4   O4    S    
C95   H23   S    
C118  H134  S    
C109  H110  S    
C82   O5    S    
C93   H21   S    
C67   C71   A    
C148  H206  S    
C145  H198  S    
C131  H165  S    
O30   P2    S    
O53   C117  S    
C129  H160  S    
C14   C50   S    
O67   C147  S    
Ba1   O21   S    
C126  H154  S    
C94   O54   S    
C144  H195  S    
C121  H141  S    
C8    P4    S    
C64   P7    S    
C27   H51   S    
C28   H52   S    
C145  H199  S    
