data_mof_unit_42394.cif
_audit_creation_date              2012-12-11T14:08:04-0500
_audit_creation_method            fapswitch 2.2
_symmetry_space_group_name_H-M    P1
_symmetry_Int_Tables_number       1
_space_group_crystal_system       triclinic
_cell_length_a                    10.936392
_cell_length_b                    10.859248
_cell_length_c                    18.594875
_cell_angle_alpha                 90.590302
_cell_angle_beta                  90.27716
_cell_angle_gamma                 60.183095
_cell_volume                      1915.90052437

loop_
_atom_site_label
_atom_site_type_symbol
_atom_type_description
_atom_site_fract_x
_atom_site_fract_y
_atom_site_fract_z
_atom_type_partial_charge
C1    C     C_R   0.308072 0.614482 0.612265 0.563575
C2    C     C_3   0.684907 0.583691 0.800834 -0.221702
C3    C     C_3   0.732537 0.696099 0.806554 0.050415
C4    C     C_3   0.685966 0.658695 0.672547 0.055632
C5    C     C_3   0.839527 0.630250 0.681498 -0.233260
C6    C     C_3   0.666992 0.555577 0.722386 -0.224388
C7    C     C_2   0.680284 0.149571 0.669456 -0.090927
C8    C     C_2   0.691704 0.163611 0.826777 -0.146229
C9    C     C_2   0.805539 0.108379 0.783639 -0.211034
C10   C     C_2   0.795124 0.133618 0.705549 -0.024615
C11   C     C_2   0.301312 0.612826 0.689431 -0.073124
C12   C     C_R   0.657807 0.626494 0.599159 0.535440
C13   C     C_2   0.195279 0.674204 0.839850 0.247215
C14   C     C_2   0.230569 0.552498 0.804161 -0.151385
C15   C     C_2   0.261430 0.533094 0.726330 -0.149989
C16   C     C_2   0.605209 0.602628 0.310217 -0.067381
C17   C     C_2   0.633509 0.659726 0.158330 -0.140245
C18   C     C_2   0.696560 0.529041 0.186622 -0.152461
C19   C     C_2   0.696549 0.501435 0.264779 0.226398
C20   C     C_2   0.629180 0.201642 0.317297 -0.066529
C21   C     C_2   0.637231 0.210152 0.162599 -0.080719
C22   C     C_2   0.514745 0.263462 0.197919 -0.019967
C23   C     C_R   0.629995 0.225106 0.601269 0.558903
C24   C     C_2   0.515758 0.282362 0.275671 -0.173582
C25   C     C_2   0.113263 0.688006 0.346587 -0.103547
C26   C     C_2   0.045417 0.725046 0.195141 -0.096588
C27   C     C_2   0.003947 0.834864 0.240779 -0.172199
C28   C     C_2   0.057015 0.814315 0.314541 -0.149352
C29   C     C_R   0.702948 0.102771 0.897612 0.552670
C30   C     C_R   0.758004 0.712999 0.883225 0.552978
C31   C     C_R   0.121693 0.705793 0.908490 0.564144
C32   C     C_R   0.672308 0.116926 0.100621 0.566264
C33   C     C_R   0.691901 0.687099 0.094197 0.552947
C34   C     C_R   0.214501 0.652274 0.404280 0.557620
C35   C     C_R   0.022264 0.749767 0.119110 0.578936
C36   C     C_R   0.611919 0.583610 0.388083 0.598997
C37   C     C_R   0.614265 0.232706 0.393283 0.560821
C38   C     C_3   0.617817 0.838765 0.773163 -0.237720
C39   C     C_3   0.583319 0.813977 0.695771 -0.244194
C40   C     C_3   0.869261 0.644476 0.761797 -0.246090
Cr1   Cr    Cr6+3 0.393010 0.398050 0.501480 1.005680
Cr2   Cr    Cr6+3 0.398820 0.707980 0.501630 1.030168
Cr3   Cr    Cr6+3 0.708140 0.393940 0.496850 1.059945
Cr4   Cr    Cr6+3 0.937950 0.938450 0.008940 1.003785
Cr5   Cr    Cr6+3 0.626180 0.937030 0.994750 1.029067
Cr6   Cr    Cr6+3 0.937790 0.625760 0.001410 1.030668
H1    H     H_    0.656769 0.915843 0.772743 0.125913
H2    H     H_    0.746374 0.443616 0.708906 0.133550
H3    H     H_    0.953335 0.539980 0.781767 0.127329
H4    H     H_    0.917298 0.521854 0.662070 0.140310
H5    H     H_    0.909363 0.036882 0.805365 0.185105
H6    H     H_    0.587164 0.234837 0.805794 0.103596
H7    H     H_    0.605611 0.127875 0.696897 0.077983
H8    H     H_    0.220202 0.469573 0.830813 0.101292
H9    H     H_    0.241737 0.456338 0.698393 0.140002
H10   H     H_    0.519422 0.888270 0.805321 0.134179
H11   H     H_    0.332684 0.681266 0.714754 0.141947
H12   H     H_    0.769825 0.440286 0.153317 0.145310
H13   H     H_    0.555286 0.752485 0.187120 0.100137
H14   H     H_    0.520316 0.702452 0.290889 0.054718
H15   H     H_    0.417007 0.361688 0.300021 0.135178
H16   H     H_    0.726503 0.210845 0.188199 0.102901
H17   H     H_    0.730403 0.121910 0.295979 0.091733
H18   H     H_    0.947907 0.942832 0.220686 0.132929
H19   H     H_    0.472535 0.836119 0.693303 0.135438
H20   H     H_    0.067279 0.900141 0.338599 0.151075
H21   H     H_    0.105065 0.615474 0.212148 0.101081
H22   H     H_    0.095445 0.604108 0.326443 0.090585
H23   H     H_    0.592519 0.888744 0.658685 0.125563
H24   H     H_    0.908750 0.720837 0.767524 0.131520
H25   H     H_    0.854431 0.707244 0.648970 0.138561
H26   H     H_    0.764307 0.481225 0.825010 0.144669
H27   H     H_    0.585311 0.619298 0.830883 0.113573
H28   H     H_    0.562870 0.564568 0.714718 0.088078
O1    O     O_R   0.507110 0.256280 0.580300 -0.535075
O2    O     O_R   0.524640 0.695370 0.425100 -0.512267
O3    O     O_R   0.735890 0.504390 0.415980 -0.469445
O4    O     O_R   0.690560 0.277820 0.422350 -0.471387
O5    O     O_3   0.499990 0.499990 0.499980 -0.310820
O6    O     O_R   0.089190 0.825870 0.932320 -0.502364
O7    O     O_R   0.819070 0.053960 0.931440 -0.499560
O8    O     O_R   0.607070 0.076440 0.916460 -0.514910
O9    O     O_R   0.647110 0.806550 0.917690 -0.512479
O10   O     O_R   0.837080 0.593860 0.915300 -0.525586
O11   O     O_R   0.064770 0.636080 0.932550 -0.523879
O12   O     O_R   0.280830 0.527190 0.577940 -0.499448
O13   O     O_R   0.068250 0.829200 0.092940 -0.501658
O14   O     O_R   0.799650 0.057040 0.080330 -0.540095
O15   O     O_R   0.586130 0.079760 0.077080 -0.456598
O16   O     O_R   0.627700 0.809630 0.066580 -0.490926
O17   O     O_R   0.816140 0.597180 0.075920 -0.520214
O18   O     O_R   0.045360 0.639170 0.081440 -0.468067
O19   O     O_3   0.833980 0.833750 0.001700 -0.292755
O20   O     O_R   0.261360 0.738990 0.584270 -0.468866
O21   O     O_R   0.532590 0.694780 0.574370 -0.523250
O22   O     O_R   0.744470 0.503750 0.577000 -0.521111
O23   O     O_R   0.698520 0.277230 0.571620 -0.452746
O24   O     O_R   0.498530 0.256920 0.419280 -0.520047
O25   O     O_R   0.272880 0.527780 0.428680 -0.507538
O26   O     O_R   0.252780 0.739630 0.423250 -0.511009
C41   C     C_2   0.918223 0.130809 0.670697 0.276596
H29   H     H_    0.981760 0.164235 0.701077 0.074751
O27   O     O_2   0.954742 0.083555 0.609863 -0.469274
O28   O     O_3   0.186708 0.791040 0.804849 -0.571496
C42   C     C_3   0.279905 0.832101 0.836176 0.003910
H30   H     H_    0.371802 0.796572 0.800572 0.111003
H31   H     H_    0.321288 0.786621 0.890305 0.138466
C43   C     C_3   0.207230 0.993281 0.841290 -0.360714
H32   H     H_    0.111544 0.035375 0.875397 0.174101
H33   H     H_    0.280087 0.025693 0.865462 0.099364
H34   H     H_    0.176812 0.039635 0.786801 0.136475
O29   O     O_3   0.792850 0.369158 0.292247 -0.542824
C44   C     C_3   0.932021 0.328909 0.271165 -0.005228
H35   H     H_    0.949584 0.421398 0.266361 0.127811
H36   H     H_    0.956653 0.270518 0.219005 0.124739
C45   C     C_3   0.034288 0.230073 0.327303 -0.343005
H37   H     H_    0.018972 0.137404 0.334425 0.152023
H38   H     H_    0.144384 0.192185 0.309792 0.090081
H39   H     H_    0.016010 0.286994 0.379563 0.175648
C46   C     C_2   0.377492 0.303520 0.163158 0.258206
H40   H     H_    0.290784 0.313019 0.195502 0.075874
O30   O     O_2   0.357443 0.333601 0.099474 -0.473699

loop_
_geom_bond_atom_site_label_1
_geom_bond_atom_site_label_2
_ccdc_geom_bond_type
C7    C10   D    
C24   H15   S    
C31   O11   A    
Cr5   O8    S    
C1    C11   S    
Cr5   O19   S    
C31   O6    A    
Cr5   O9    S    
C19   O29   S    
C45   H37   S    
Cr3   O4    S    
C22   C46   S    
Cr1   O12   S    
C42   H31   S    
C26   C27   D    
C41   H29   S    
C40   H24   S    
C26   H21   S    
C36   O3    A    
C33   O17   A    
C38   C39   S    
Cr6   O18   S    
C35   O13   A    
C40   H3    S    
C32   O14   A    
C43   H32   S    
C17   C18   D    
C18   C19   S    
C16   H14   S    
C30   O9    A    
O29   C44   S    
Cr4   O19   S    
C36   O2    A    
C11   C15   D    
C18   H12   S    
C20   C24   D    
C3    C38   S    
C45   H38   S    
C8    C9    D    
C9    H5    S    
C34   O26   A    
Cr1   O25   S    
C12   O21   A    
C4    C12   S    
Cr4   O13   S    
Cr5   O15   S    
C9    C10   S    
C8    H6    S    
C25   C34   S    
Cr6   O11   S    
C35   O18   A    
Cr2   O5    S    
C41   O27   D    
C21   C22   D    
C39   H19   S    
C2    C6    S    
C25   H22   S    
C17   C33   S    
C2    H26   S    
O28   C42   S    
C21   C32   S    
C46   O30   D    
C6    H28   S    
C42   C43   S    
Cr2   O21   S    
Cr4   O6    S    
C4    C6    S    
Cr4   O7    S    
C1    O20   A    
Cr6   O17   S    
C25   C28   D    
C15   H9    S    
C3    C30   S    
C28   H20   S    
C29   O7    A    
Cr2   O26   S    
Cr1   O1    S    
C32   O15   A    
C14   C15   S    
C4    C39   S    
Cr3   O22   S    
C39   H23   S    
C37   O24   A    
C13   O28   S    
Cr5   O16   S    
C38   H1    S    
C2    H27   S    
C6    H2    S    
C17   H13   S    
Cr6   O10   S    
C23   O23   A    
C3    C40   S    
C22   C24   S    
C5    H4    S    
C8    C29   S    
C46   H40   S    
C44   H35   S    
C42   H30   S    
C1    O12   A    
C14   H8    S    
Cr2   O20   S    
C13   C31   S    
C10   C41   S    
Cr3   O23   S    
C23   O1    A    
C4    C5    S    
Cr1   O5    S    
C45   H39   S    
Cr3   O3    S    
C34   O25   A    
C37   O4    A    
Cr2   O2    S    
C43   H34   S    
C44   C45   S    
C20   H17   S    
C2    C3    S    
C29   O8    A    
C5    H25   S    
C11   H11   S    
C33   O16   A    
C16   C36   S    
C20   C37   S    
Cr6   O19   S    
C16   C19   D    
C7    C23   S    
C43   H33   S    
Cr4   O14   S    
C30   O10   A    
C27   H18   S    
C26   C35   S    
C38   H10   S    
C5    C40   S    
C27   C28   S    
C7    H7    S    
Cr1   O24   S    
C12   O22   A    
C21   H16   S    
C13   C14   D    
Cr3   O5    S    
C44   H36   S    
