data_mof_unit_5588.cif
_audit_creation_date              2012-10-26T21:08:11-0400
_audit_creation_method            fapswitch 2.2
_symmetry_space_group_name_H-M    P1
_symmetry_Int_Tables_number       1
_space_group_crystal_system       triclinic
_cell_length_a                    15.846225
_cell_length_b                    10.887399
_cell_length_c                    9.637408
_cell_angle_alpha                 91.361682
_cell_angle_beta                  90.323831
_cell_angle_gamma                 93.857318
_cell_volume                      1658.40703875

loop_
_atom_site_label
_atom_site_type_symbol
_atom_type_description
_atom_site_fract_x
_atom_site_fract_y
_atom_site_fract_z
_atom_type_partial_charge
C1    C     C_R   0.507577 0.263551 0.498167 0.549253
C2    C     C_R   0.583792 0.082803 0.862201 -0.108639
C3    C     C_R   0.544868 0.966584 0.882042 -0.115814
C4    C     C_R   0.340102 0.500168 0.499706 0.556759
C5    C     C_R   0.510536 0.897904 0.768931 -0.095551
C6    C     C_R   0.514858 0.944863 0.632662 0.018938
C7    C     C_R   0.538602 0.071313 0.619560 0.029299
C8    C     C_R   0.519620 0.130234 0.494609 -0.024845
C9    C     C_R   0.500482 0.057526 0.373056 0.032479
C10   C     C_R   0.490650 0.930787 0.382203 -0.140170
C11   C     C_R   0.497310 0.872662 0.509063 -0.026715
C12   C     C_3   0.083459 0.506198 0.499268 0.058887
C13   C     C_R   0.620093 0.655240 0.147412 -0.132349
C14   C     C_R   0.686574 0.719827 0.079183 0.044843
C15   C     C_R   0.687462 0.715819 0.933731 0.089536
C16   C     C_R   0.497607 0.737691 0.502732 0.540983
C17   C     C_R   0.620865 0.652249 0.861416 -0.115182
C18   C     C_R   0.559061 0.575629 0.927926 0.080157
C19   C     C_R   0.559203 0.575681 0.076610 0.092802
C20   C     C_R   0.440540 0.431205 0.071267 0.247486
C21   C     C_R   0.442675 0.428229 0.923231 0.188976
C22   C     C_R   0.659954 0.500981 0.500418 0.539285
C23   C     C_3   0.975985 0.591006 0.593933 -0.106716
C24   C     C_3   0.966934 0.391553 0.536300 -0.066180
C25   C     C_3   0.022853 0.422332 0.409926 0.153400
C26   C     C_1   0.250538 0.502516 0.499322 -0.014545
C27   C     C_1   0.749684 0.502449 0.501358 -0.011052
C28   C     C_3   0.027115 0.479267 0.624545 0.152382
C29   C     C_3   0.983758 0.264320 0.233440 -0.311080
C30   C     C_3   0.288805 0.393568 0.122474 -0.264228
C31   C     C_2   0.754449 0.789198 0.162794 0.580755
C32   C     C_3   0.748672 0.899306 0.826071 -0.268071
C33   C     C_2   0.383221 0.339606 0.847928 0.633467
C34   C     C_3   0.916939 0.504393 0.501727 0.002181
C35   C     C_3   0.997132 0.424877 0.864228 -0.307541
C36   C     C_2   0.493623 0.107066 0.232138 0.563333
C37   C     C_3   0.032659 0.617913 0.465196 -0.142230
C38   C     C_3   0.971676 0.532386 0.372719 -0.076846
C39   C     C_1   0.175083 0.504508 0.499079 -0.041460
C40   C     C_1   0.825295 0.503597 0.501865 -0.049929
C41   C     C_R   0.580699 0.135232 0.732362 -0.062608
Cu1   Cu    Cu3+1 0.499990 0.499990 0.640660 0.961941
Cu2   Cu    Cu3+1 0.500010 0.500010 0.359340 0.972593
H1    H     H_    0.543412 0.927918 0.984560 0.140526
H2    H     H_    0.612488 0.225443 0.720794 0.137726
H3    H     H_    0.615383 0.133360 0.947617 0.164646
H4    H     H_    0.094350 0.276850 0.351253 0.254151
H5    H     H_    0.011581 0.204546 0.153322 0.148418
H6    H     H_    0.943146 0.328204 0.180305 0.151798
H7    H     H_    0.944549 0.205467 0.304281 0.148394
H8    H     H_    0.388072 0.317083 0.229124 0.310551
H9    H     H_    0.259771 0.407400 0.225452 0.148590
H10   H     H_    0.250598 0.318134 0.067468 0.180599
H11   H     H_    0.285746 0.480076 0.064126 0.168436
H12   H     H_    0.478335 0.811057 0.793201 0.158496
H13   H     H_    0.873757 0.866898 0.172554 0.328309
H14   H     H_    0.772682 0.720418 0.772262 0.246727
H15   H     H_    0.809209 0.937927 0.782484 0.151750
H16   H     H_    0.698018 0.906976 0.747320 0.140072
H17   H     H_    0.734932 0.953772 0.921232 0.173903
H18   H     H_    0.266828 0.303384 0.764752 0.334160
H19   H     H_    0.107573 0.515694 0.793665 0.267619
H20   H     H_    0.028774 0.399967 0.961689 0.157748
H21   H     H_    0.953580 0.345748 0.829630 0.150688
H22   H     H_    0.960409 0.506601 0.885578 0.150049
H23   H     H_    0.478356 0.876734 0.287316 0.163126
H24   H     H_    0.426515 0.107860 0.053946 0.371603
H25   H     H_    0.619148 0.668463 0.256672 0.212629
H26   H     H_    0.619783 0.667030 0.752838 0.191286
H27   H     H_    0.939770 0.299048 0.564981 0.102844
H28   H     H_    0.947580 0.553227 0.268061 0.128456
H29   H     H_    0.060540 0.709924 0.436176 0.121406
H30   H     H_    0.955374 0.659583 0.671544 0.123946
N1    N     N_R   0.500800 0.501210 0.147910 -0.231772
N2    N     N_R   0.500830 0.501290 0.852040 -0.293189
N3    N     N_2   0.050840 0.332509 0.310308 -0.527163
N4    N     N_2   0.375064 0.358532 0.138074 -0.498071
N5    N     N_2   0.756302 0.771638 0.858276 -0.463690
N6    N     N_2   0.060277 0.452188 0.759818 -0.507688
O1    O     O_R   0.499990 0.319640 0.618810 -0.478109
O2    O     O_R   0.833376 0.820682 0.104576 -0.671781
O3    O     O_2   0.402467 0.234042 0.826821 -0.521801
O4    O     O_R   0.302422 0.373124 0.812347 -0.712797
O5    O     O_2   0.550686 0.175505 0.186639 -0.515539
O6    O     O_R   0.423794 0.069434 0.148607 -0.712076
O7    O     O_R   0.500000 0.319660 0.381240 -0.480023
O8    O     O_R   0.379070 0.499980 0.618770 -0.453496
O9    O     O_R   0.379080 0.500000 0.381190 -0.510819
O10   O     O_R   0.500000 0.680340 0.618760 -0.541592
O11   O     O_R   0.500010 0.680360 0.381190 -0.525678
O12   O     O_R   0.620920 0.500000 0.618810 -0.535439
O13   O     O_R   0.620930 0.500020 0.381230 -0.499454
O14   O     O_2   0.741827 0.817309 0.284250 -0.556460

loop_
_geom_bond_atom_site_label_1
_geom_bond_atom_site_label_2
_ccdc_geom_bond_type
Cu1   O1    S    
C18   N2    A    
C1    C8    S    
C32   H15   S    
C14   C31   S    
C24   H27   S    
H13   O2    S    
C4    O8    A    
C29   H6    S    
C2    H3    S    
C16   O11   A    
C30   H11   S    
Cu1   N2    S    
C20   N4    S    
C12   C28   S    
C34   C40   S    
Cu2   O9    S    
H4    N3    S    
C18   C19   A    
C5    C6    A    
C26   C39   T    
C15   N5    S    
C21   C33   S    
C35   H22   S    
C2    C41   A    
Cu1   O12   S    
C12   C37   S    
C28   N6    S    
C38   H28   S    
C30   N4    S    
C8    C9    A    
C9    C36   S    
C22   O12   A    
C35   H21   S    
C9    C10   A    
Cu2   N1    S    
C16   O10   A    
C13   C14   A    
C23   H30   S    
C29   H7    S    
C10   H23   S    
C30   H10   S    
C3    H1    S    
H24   O6    S    
Cu2   O11   S    
C13   C19   A    
C29   H5    S    
H19   N6    S    
C7    C8    A    
C24   C25   S    
H18   O4    S    
C6    C11   A    
C29   N3    S    
C31   O14   D    
C24   C34   S    
H8    N4    S    
C37   C38   S    
C25   C38   S    
C11   C16   S    
C27   C40   T    
C23   C34   S    
C17   C18   A    
C20   N1    A    
C23   C28   S    
C33   O4    S    
C22   C27   S    
Cu1   Cu2   S    
C32   H17   S    
C33   O3    D    
C1    O7    A    
C15   C17   A    
C30   H9    S    
C17   H26   S    
C41   H2    S    
C34   C38   S    
Cu2   O7    S    
H14   N5    S    
C5    H12   S    
C19   N1    A    
C24   C28   S    
C3    C5    A    
C4    C26   S    
C6    C7    A    
C4    O9    A    
C36   O6    S    
C21   N2    A    
Cu2   O13   S    
C31   O2    S    
C12   C25   S    
C25   N3    S    
Cu1   O10   S    
C12   C39   S    
C2    C3    A    
C23   C37   S    
C36   O5    D    
C35   N6    S    
C7    C41   A    
C10   C11   A    
C32   N5    S    
C20   C21   A    
C37   H29   S    
C1    O1    A    
C22   O13   A    
C14   C15   A    
C35   H20   S    
Cu1   O8    S    
C32   H16   S    
C13   H25   S    
