data_mof_unit_26593.cif
_audit_creation_date              2012-12-11T14:54:35-0500
_audit_creation_method            fapswitch 2.2
_symmetry_space_group_name_H-M    P1
_symmetry_Int_Tables_number       1
_space_group_crystal_system       triclinic
_cell_length_a                    19.051636
_cell_length_b                    10.934084
_cell_length_c                    18.824801
_cell_angle_alpha                 89.742765
_cell_angle_beta                  89.573293
_cell_angle_gamma                 90.211687
_cell_volume                      3921.25997018

loop_
_atom_site_label
_atom_site_type_symbol
_atom_type_description
_atom_site_fract_x
_atom_site_fract_y
_atom_site_fract_z
_atom_type_partial_charge
C1    C     C_R   0.729818 0.375370 0.645516 0.554103
C2    C     C_R   0.229814 0.823796 0.451279 0.203862
C3    C     C_R   0.958886 0.554667 0.476137 0.245493
C4    C     C_3   0.444771 0.882600 0.572370 -0.090770
C5    C     C_3   0.591447 0.967525 0.379749 -0.092184
C6    C     C_3   0.935396 0.382698 0.603012 -0.061482
C7    C     C_3   0.969921 0.362773 0.429792 -0.086005
C8    C     C_3   0.599829 0.720939 0.033743 -0.103974
C9    C     C_3   0.413426 0.783228 0.948308 -0.093911
C10   C     C_3   0.090818 0.269340 0.052772 -0.096970
C11   C     C_3   0.898357 0.235518 0.953869 -0.111115
C12   C     C_3   0.981996 0.023609 0.371850 -0.102305
C13   C     C_R   0.190143 0.382377 0.534445 0.221324
C14   C     C_3   0.082204 0.067919 0.558740 -0.098278
C15   C     C_3   0.477802 0.584089 0.412809 -0.127439
C16   C     C_3   0.581200 0.546406 0.563439 -0.098070
C17   C     C_R   0.735593 0.319440 0.451081 0.209980
C18   C     C_R   0.708412 0.835129 0.468518 -0.159841
C19   C     C_R   0.226060 0.804375 0.524190 -0.017012
C20   C     C_R   0.194633 0.366411 0.460840 -0.137149
C21   C     C_R   0.731457 0.300473 0.524081 -0.040486
C22   C     C_R   0.756666 0.903940 0.428419 -0.006241
C23   C     C_R   0.244759 0.897306 0.571744 0.015430
C24   C     C_R   0.248430 0.423833 0.422347 0.021272
C25   C     C_R   0.269075 0.378994 0.353007 0.551515
C26   C     C_R   0.744156 0.396825 0.571435 0.013383
C27   C     C_R   0.801559 0.986325 0.461736 -0.073265
C28   C     C_R   0.268791 0.010097 0.547342 -0.182639
C29   C     C_R   0.293535 0.505354 0.456098 -0.066553
C30   C     C_R   0.762060 0.512701 0.546786 -0.117170
C31   C     C_R   0.801840 0.994162 0.534095 -0.179231
C32   C     C_R   0.273955 0.030162 0.474778 -0.148769
C33   C     C_R   0.294256 0.511620 0.528855 -0.183148
C34   C     C_R   0.767544 0.532330 0.474340 -0.101552
C35   C     C_R   0.751413 0.930612 0.574705 0.061023
C36   C     C_R   0.230209 0.876237 0.645855 0.541672
C37   C     C_R   0.253887 0.938422 0.426808 0.035679
C38   C     C_R   0.243775 0.448098 0.569209 0.051934
C39   C     C_R   0.753218 0.437459 0.426477 0.059300
C40   C     C_R   0.561441 0.063465 0.980638 -0.134649
C41   C     C_R   0.541644 0.065836 0.051775 -0.127793
C42   C     C_R   0.971108 0.556846 0.952807 -0.113457
C43   C     C_R   0.953735 0.554593 0.023907 -0.116343
C44   C     C_R   0.505854 0.167392 0.078984 0.050434
C45   C     C_R   0.546099 0.161938 0.936102 0.038287
C46   C     C_R   0.959407 0.660215 0.064763 0.036653
C47   C     C_R   0.771193 0.873625 0.355302 0.550132
C48   C     C_R   0.996906 0.664466 0.921698 0.044900
C49   C     C_R   0.495103 0.269751 0.035578 -0.122040
C50   C     C_R   0.515375 0.267362 0.964516 -0.129376
C51   C     C_R   0.983366 0.769080 0.033598 -0.131180
C52   C     C_R   0.001971 0.771248 0.962094 -0.119771
C53   C     C_R   0.532542 0.154356 0.645685 0.581273
C54   C     C_R   0.468549 0.155397 0.352845 0.548036
C55   C     C_R   0.030306 0.656305 0.647985 0.584087
C56   C     C_R   0.963770 0.652908 0.355927 0.602642
C57   C     C_R   0.824673 0.919162 0.950586 0.226583
C58   C     C_3   0.503271 0.393154 0.458174 0.187065
C59   C     C_R   0.184353 0.934067 0.042454 0.220128
C60   C     C_R   0.315325 0.440081 0.958531 0.223213
C61   C     C_R   0.680256 0.425519 0.045715 0.245383
C62   C     C_R   0.830708 0.901147 0.023390 -0.192309
C63   C     C_R   0.181038 0.929358 0.969253 -0.182592
C64   C     C_R   0.317797 0.438613 0.031775 -0.182503
C65   C     C_R   0.677232 0.420199 0.972061 -0.182996
C66   C     C_R   0.775845 0.850193 0.063147 0.002534
C67   C     C_R   0.240720 0.903792 0.927835 0.021575
C68   C     C_R   0.258555 0.407515 0.072796 0.021804
C69   C     C_3   0.501711 0.395953 0.539540 0.179734
C70   C     C_R   0.737010 0.391759 0.931303 0.015998
C71   C     C_R   0.713607 0.809936 0.028716 0.260077
C72   C     C_R   0.305924 0.882892 0.959898 0.259424
C73   C     C_R   0.194130 0.381562 0.040303 0.258777
C74   C     C_R   0.799733 0.358463 0.965156 0.253641
C75   C     C_R   0.706075 0.838248 0.955725 -0.189020
C76   C     C_R   0.310125 0.896111 0.033954 -0.180428
C77   C     C_R   0.190242 0.393446 0.966144 -0.180681
C78   C     C_R   0.802685 0.366946 0.039545 -0.188736
C79   C     C_R   0.759103 0.900710 0.918629 0.030366
C80   C     C_3   0.026921 0.879297 0.448365 0.175679
C81   C     C_R   0.249917 0.923007 0.074742 0.028427
C82   C     C_R   0.250283 0.423405 0.925636 0.027280
C83   C     C_R   0.745237 0.410080 0.078618 0.033067
C84   C     C_R   0.741534 0.970290 0.647230 0.572000
C85   C     C_R   0.258689 0.969952 0.352641 0.518861
C86   C     C_R   0.239428 0.476444 0.644626 0.566282
C87   C     C_R   0.758445 0.469189 0.352354 0.523744
C88   C     C_R   0.726829 0.371684 0.855363 0.570384
C89   C     C_R   0.271257 0.377317 0.146786 0.579142
C90   C     C_R   0.228449 0.876028 0.853533 0.579064
C91   C     C_3   0.027638 0.888500 0.529091 0.192380
C92   C     C_R   0.787890 0.832889 0.139778 0.557315
C93   C     C_R   0.563511 0.153100 0.860665 0.550763
C94   C     C_R   0.469178 0.157439 0.147185 0.544259
C95   C     C_R   0.031375 0.656765 0.852879 0.553661
C96   C     C_R   0.938852 0.653277 0.139115 0.543301
C97   C     C_R   0.742719 0.966029 0.852486 0.562616
C98   C     C_R   0.258837 0.970312 0.146018 0.582437
C99   C     C_R   0.241225 0.469825 0.854002 0.582576
C100  C     C_R   0.757717 0.467131 0.147331 0.566594
C101  C     C_R   0.497414 0.162632 0.423694 -0.059507
C102  C     C_R   0.702751 0.853454 0.541562 0.230464
C103  C     C_R   0.503272 0.155574 0.573752 -0.040908
C104  C     C_R   0.984766 0.650272 0.430040 -0.014894
C105  C     C_R   0.999795 0.668382 0.578084 -0.031964
C106  C     C_R   0.479687 0.263834 0.464462 -0.016578
C107  C     C_R   0.484051 0.262380 0.537429 -0.070583
C108  C     C_R   0.024086 0.744036 0.459415 -0.041881
C109  C     C_R   0.031695 0.751937 0.531665 -0.024009
C110  C     C_R   0.507097 0.045878 0.532943 0.271492
C111  C     C_R   0.514236 0.052630 0.459091 0.268056
C112  C     C_R   0.961971 0.569657 0.550493 0.262197
Cr1   Cr    Cr6+3 0.771950 0.169480 0.750100 1.045797
Cr2   Cr    Cr6+3 0.383410 0.010620 0.249390 1.023186
Cr3   Cr    Cr6+3 0.116590 0.510620 0.750610 1.046469
Cr4   Cr    Cr6+3 0.883410 0.510620 0.249390 1.014398
Cr5   Cr    Cr6+3 0.228050 0.169480 0.249900 1.052058
Cr6   Cr    Cr6+3 0.271950 0.669480 0.750100 1.057372
Cr7   Cr    Cr6+3 0.728050 0.669480 0.249900 1.049410
Cr8   Cr    Cr6+3 0.614930 0.323340 0.749170 1.050243
Cr9   Cr    Cr6+3 0.385070 0.323340 0.250830 1.050643
Cr10  Cr    Cr6+3 0.114930 0.823340 0.749170 1.044431
Cr11  Cr    Cr6+3 0.885070 0.823340 0.250830 1.020479
Cr12  Cr    Cr6+3 0.616590 0.010620 0.750610 1.067739
H1    H     H_    0.878493 0.928749 0.049376 0.109857
H2    H     H_    0.457702 0.448967 0.563661 0.122475
H3    H     H_    0.077606 0.906504 0.422223 0.144256
H4    H     H_    0.978205 0.922362 0.554426 0.121235
H5    H     H_    0.675195 0.767486 0.443517 0.116741
H6    H     H_    0.205058 0.718438 0.544073 0.139934
H7    H     H_    0.157923 0.306084 0.434501 0.104746
H8    H     H_    0.715488 0.211421 0.544067 0.138132
H9    H     H_    0.838608 0.042143 0.432165 0.179866
H10   H     H_    0.282139 0.082408 0.584069 0.118388
H11   H     H_    0.331394 0.558893 0.426371 0.187281
H12   H     H_    0.130487 0.942468 0.944867 0.121380
H13   H     H_    0.771035 0.587365 0.583299 0.151097
H14   H     H_    0.838795 0.057743 0.557361 0.134330
H15   H     H_    0.292444 0.118432 0.455726 0.130358
H16   H     H_    0.332800 0.571199 0.552989 0.131803
H17   H     H_    0.783106 0.621976 0.455161 0.130536
H18   H     H_    0.587267 0.984089 0.959366 0.113454
H19   H     H_    0.551345 0.986352 0.084722 0.140738
H20   H     H_    0.968602 0.472313 0.923301 0.173576
H21   H     H_    0.938435 0.469045 0.047786 0.129585
H22   H     H_    0.468548 0.349510 0.055782 0.110908
H23   H     H_    0.367605 0.457721 0.056516 0.119312
H24   H     H_    0.505225 0.346261 0.931429 0.140662
H25   H     H_    0.988813 0.851268 0.064719 0.128757
H26   H     H_    0.022817 0.854591 0.939179 0.112752
H27   H     H_    0.418735 0.870929 0.520029 0.129993
H28   H     H_    0.411880 0.940074 0.608084 0.117268
H29   H     H_    0.448907 0.790716 0.597163 0.128042
H30   H     H_    0.610959 0.878090 0.361032 0.141876
H31   H     H_    0.633452 0.015741 0.409338 0.155453
H32   H     H_    0.579806 0.020682 0.331092 0.134339
H33   H     H_    0.992262 0.365319 0.594772 0.128213
H34   H     H_    0.627340 0.436785 0.946760 0.116735
H35   H     H_    0.902981 0.326366 0.566889 0.145449
H36   H     H_    0.922466 0.352482 0.657908 0.143787
H37   H     H_    0.982087 0.302223 0.475239 0.057129
H38   H     H_    0.020186 0.398184 0.406779 0.114671
H39   H     H_    0.944760 0.305274 0.388727 0.141381
H40   H     H_    0.921681 0.974504 0.941830 0.290452
H41   H     H_    0.085183 0.974968 0.051464 0.290174
H42   H     H_    0.414465 0.484305 0.950157 0.288988
H43   H     H_    0.580702 0.462076 0.054600 0.296846
H44   H     H_    0.608554 0.657040 0.988891 0.109119
H45   H     H_    0.658445 0.817011 0.927519 0.114087
H46   H     H_    0.573596 0.805371 0.015894 0.075808
H47   H     H_    0.563211 0.676380 0.071958 0.152384
H48   H     H_    0.387656 0.705783 0.977091 0.116401
H49   H     H_    0.448604 0.835040 0.984131 0.100755
H50   H     H_    0.446749 0.743351 0.905821 0.151233
H51   H     H_    0.120383 0.193389 0.027283 0.126112
H52   H     H_    0.055069 0.313366 0.014193 0.092872
H53   H     H_    0.057769 0.228722 0.095586 0.148175
H54   H     H_    0.865006 0.163452 0.978974 0.145377
H55   H     H_    0.935555 0.272678 0.993229 0.064901
H56   H     H_    0.360846 0.893042 0.059299 0.138687
H57   H     H_    0.930087 0.192949 0.911084 0.166273
H58   H     H_    0.011950 0.987985 0.325421 0.135040
H59   H     H_    0.012236 0.097206 0.398459 0.066499
H60   H     H_    0.933201 0.065139 0.351350 0.140849
H61   H     H_    0.037548 0.094037 0.593956 0.101739
H62   H     H_    0.076336 0.108600 0.504965 0.089269
H63   H     H_    0.130620 0.105808 0.582372 0.204068
H64   H     H_    0.529080 0.582477 0.384052 0.119135
H65   H     H_    0.481955 0.636662 0.462930 0.115214
H66   H     H_    0.440501 0.633452 0.378103 0.151801
H67   H     H_    0.139809 0.386523 0.940447 0.136874
H68   H     H_    0.536268 0.602346 0.582847 0.103824
H69   H     H_    0.595998 0.571724 0.508105 0.092860
H70   H     H_    0.626120 0.570691 0.597216 0.203712
H71   H     H_    0.611857 0.776996 0.547113 0.340163
H72   H     H_    0.212797 0.756986 0.356854 0.324497
H73   H     H_    0.096668 0.313609 0.538558 0.284115
H74   H     H_    0.725032 0.248703 0.356670 0.320440
H75   H     H_    0.850699 0.346782 0.067046 0.118966
H76   H     H_    0.556393 0.398680 0.432811 0.128363
O1    O     O_R   0.787510 0.042610 0.670410 -0.553063
O2    O     O_R   0.454250 0.051070 0.169440 -0.532314
O3    O     O_R   0.045750 0.551070 0.830560 -0.530787
O4    O     O_R   0.954250 0.551070 0.169440 -0.501018
O5    O     O_R   0.681210 0.959150 0.825320 -0.548897
O6    O     O_R   0.318790 0.959150 0.174680 -0.529530
O7    O     O_R   0.181210 0.459150 0.825320 -0.531660
O8    O     O_R   0.818790 0.459150 0.174680 -0.555085
O9    O     O_3   0.667820 0.167810 0.749960 -0.306092
O10   O     O_3   0.332180 0.167810 0.250040 -0.270972
O11   O     O_3   0.167820 0.667810 0.749960 -0.281532
O12   O     O_R   0.212490 0.042610 0.329590 -0.527071
O13   O     O_3   0.832180 0.667810 0.250040 -0.304363
O14   O     O_R   0.765670 0.292090 0.675090 -0.517060
O15   O     O_R   0.234330 0.292090 0.324910 -0.516618
O16   O     O_R   0.265670 0.792090 0.675090 -0.528690
O17   O     O_R   0.734330 0.792090 0.324910 -0.526008
O18   O     O_R   0.670220 0.409020 0.668560 -0.477195
O19   O     O_R   0.329780 0.409020 0.331440 -0.482171
O20   O     O_R   0.170220 0.909020 0.668560 -0.460093
O21   O     O_R   0.829780 0.909020 0.331440 -0.496266
O22   O     O_R   0.556580 0.251590 0.674980 -0.451935
O23   O     O_R   0.287510 0.542610 0.670410 -0.546828
O24   O     O_R   0.443420 0.251590 0.325020 -0.466693
O25   O     O_R   0.056580 0.751590 0.674980 -0.483416
O26   O     O_R   0.943420 0.751590 0.325020 -0.454126
O27   O     O_R   0.545890 0.049670 0.670030 -0.451220
O28   O     O_R   0.454110 0.049670 0.329970 -0.481969
O29   O     O_R   0.045890 0.549670 0.670030 -0.485926
O30   O     O_R   0.954110 0.549670 0.329970 -0.492795
O31   O     O_R   0.681340 0.957860 0.676500 -0.428855
O32   O     O_R   0.318660 0.957860 0.323500 -0.498271
O33   O     O_R   0.181340 0.457860 0.676500 -0.438571
O34   O     O_R   0.712490 0.542610 0.329590 -0.535829
O35   O     O_R   0.818660 0.457860 0.323500 -0.476025
O36   O     O_R   0.787380 0.044010 0.830940 -0.439381
O37   O     O_R   0.212620 0.044010 0.169060 -0.445491
O38   O     O_R   0.287380 0.544010 0.830940 -0.438065
O39   O     O_R   0.712620 0.544010 0.169060 -0.420403
O40   O     O_R   0.765540 0.293390 0.823910 -0.447202
O41   O     O_R   0.234460 0.293390 0.176090 -0.451794
O42   O     O_R   0.265540 0.793390 0.823910 -0.450402
O43   O     O_R   0.734460 0.793390 0.176090 -0.434870
O44   O     O_R   0.670090 0.410410 0.829090 -0.547992
O45   O     O_R   0.556450 0.252890 0.823790 -0.504912
O46   O     O_R   0.329910 0.410410 0.170910 -0.545223
O47   O     O_R   0.170090 0.910410 0.829090 -0.545713
O48   O     O_R   0.829910 0.910410 0.170910 -0.539607
O49   O     O_3   0.512862 0.931969 0.564410 -0.508758
O50   O     O_3   0.531386 0.946510 0.422734 -0.544603
O51   O     O_3   0.916916 0.506810 0.596274 -0.558259
O52   O     O_3   0.922031 0.455668 0.449715 -0.531765
O53   O     O_3   0.881270 0.959103 0.910304 -0.684170
O54   O     O_3   0.124736 0.954037 0.083084 -0.679833
O55   O     O_3   0.375158 0.462581 0.918363 -0.676310
O56   O     O_R   0.443550 0.252890 0.176210 -0.502545
O57   O     O_3   0.621177 0.449000 0.086345 -0.667485
O58   O     O_3   0.663078 0.746779 0.069154 -0.509075
O59   O     O_3   0.364406 0.862708 0.916584 -0.528803
O60   O     O_3   0.135646 0.357574 0.083080 -0.531531
O61   O     O_3   0.858147 0.330135 0.923646 -0.552876
O62   O     O_3   0.964636 0.928187 0.419709 -0.572075
O63   O     O_3   0.089928 0.940486 0.554561 -0.555877
O64   O     O_3   0.451069 0.465678 0.426425 -0.571191
O65   O     O_3   0.568142 0.419719 0.568467 -0.548794
O66   O     O_3   0.649485 0.799912 0.580529 -0.682544
O67   O     O_R   0.056450 0.752890 0.823790 -0.504076
O68   O     O_3   0.207525 0.731189 0.407046 -0.730624
O69   O     O_3   0.133913 0.336279 0.572495 -0.713056
O70   O     O_3   0.720470 0.222539 0.406868 -0.749633
O71   O     O_R   0.943550 0.752890 0.176210 -0.512566
O72   O     O_R   0.545750 0.051070 0.830560 -0.499337

loop_
_geom_bond_atom_site_label_1
_geom_bond_atom_site_label_2
_ccdc_geom_bond_type
C3    C104  A    
C44   C49   A    
Cr1   O36   S    
C71   C75   A    
C21   C26   A    
C49   C50   A    
C34   H17   S    
C48   C95   S    
C40   H18   S    
Cr12  O5    S    
C82   C99   S    
C57   C79   A    
C54   C101  S    
H40   O53   S    
C11   H57   S    
C61   O57   S    
C72   C76   A    
C35   C102  A    
C45   C93   S    
C36   O20   A    
C6    H35   S    
C100  O8    A    
C73   O60   S    
C57   C62   A    
Cr7   O39   S    
C98   O37   A    
C16   H69   S    
C89   O46   A    
C111  O50   S    
C60   C64   A    
Cr11  O21   S    
C58   H76   S    
C36   O16   A    
C87   O34   A    
Cr10  O20   S    
C6    O51   S    
C55   C105  S    
C103  C110  A    
C28   H10   S    
C64   C68   A    
C37   C85   S    
Cr5   O10   S    
C53   C103  S    
C4    O49   S    
C67   C72   A    
Cr3   O7    S    
C17   C39   A    
Cr11  O48   S    
C14   H62   S    
C92   O43   A    
C12   H59   S    
Cr12  O9    S    
C33   H16   S    
C95   O3    A    
C5    H30   S    
C88   O40   A    
C44   C94   S    
C29   C33   A    
C104  C108  A    
C101  C106  A    
C87   O35   A    
C108  C109  A    
C100  O39   A    
H41   O54   S    
C18   C102  A    
Cr5   O15   S    
H71   O66   S    
C55   O29   A    
C110  C111  A    
C15   O64   S    
C8    H44   S    
C24   C29   A    
C99   O38   A    
C60   C82   A    
C78   C83   A    
Cr1   O40   S    
C12   H58   S    
C20   C24   A    
Cr3   O3    S    
C70   C74   A    
Cr2   O2    S    
C9    H49   S    
C1    O18   A    
C94   O2    A    
C89   O41   A    
Cr1   O1    S    
C16   H68   S    
C42   C43   A    
C74   C78   A    
C16   O65   S    
C8    H47   S    
C69   O65   S    
Cr4   O30   S    
Cr6   O38   S    
C19   H6    S    
C11   O61   S    
C22   C47   S    
C15   H65   S    
C45   C50   A    
Cr5   O37   S    
C30   H13   S    
C66   C92   S    
C59   O54   S    
C8    O58   S    
Cr9   O19   S    
C85   O32   A    
Cr2   O6    S    
Cr1   O14   S    
C90   O42   A    
Cr4   O4    S    
C8    H46   S    
C81   C98   S    
C96   O4    A    
C110  O49   S    
C10   H52   S    
C40   C45   A    
C4    H28   S    
C7    H38   S    
C63   C67   A    
C86   O33   A    
H74   O70   S    
C91   H4    S    
C62   C66   A    
C27   C31   A    
C34   C39   A    
C27   H9    S    
C10   H51   S    
C28   C32   A    
C80   O62   S    
C3    O52   S    
C56   C104  S    
C32   H15   S    
C61   C83   A    
Cr11  O26   S    
C14   H61   S    
C30   C34   A    
C91   C109  S    
C17   O70   S    
C78   H75   S    
C12   O62   S    
Cr12  O72   S    
C68   C73   A    
C5    H31   S    
Cr10  O25   S    
C7    H39   S    
C46   C51   A    
C60   O55   S    
C17   C21   A    
C51   C52   A    
C99   O7    A    
Cr6   O11   S    
C58   C106  S    
C77   H67   S    
C42   H20   S    
C19   C23   A    
C21   H8    S    
C75   H45   S    
C43   H21   S    
C86   O23   A    
C13   O69   S    
C7    H37   S    
Cr7   O34   S    
C54   O24   A    
C66   C71   A    
C25   O15   A    
C3    C112  A    
C35   C84   S    
C2    O68   S    
C90   O47   A    
Cr2   O28   S    
C68   C89   S    
C56   O30   A    
C9    H50   S    
C11   H54   S    
C42   C48   A    
C32   C37   A    
C24   C25   S    
C31   H14   S    
C47   O17   A    
C54   O28   A    
C13   C38   A    
Cr4   O8    S    
C93   O45   A    
C92   O48   A    
Cr8   O18   S    
C40   C41   A    
C29   H11   S    
C15   H66   S    
C38   C86   S    
C69   H2    S    
Cr7   O13   S    
C83   C100  S    
Cr11  O13   S    
C64   H23   S    
C102  O66   S    
C1    C26   S    
C41   C44   A    
C31   C35   A    
H72   O68   S    
C23   C28   A    
Cr8   O45   S    
C20   H7    S    
H73   O69   S    
C85   O12   A    
Cr8   O44   S    
Cr3   O33   S    
C6    H33   S    
C91   O63   S    
C112  O51   S    
C97   O36   A    
H42   O55   S    
C50   H24   S    
Cr8   O9    S    
C84   O1    A    
C105  C109  A    
Cr9   O46   S    
Cr8   O22   S    
C13   C20   A    
C58   O64   S    
C2    C19   A    
C18   C22   A    
C10   H53   S    
C5    O50   S    
C105  C112  A    
Cr5   O12   S    
C70   C88   S    
C59   C81   A    
Cr11  O71   S    
Cr4   O13   S    
C76   H56   S    
C9    H48   S    
C76   C81   A    
C88   O44   A    
C62   H1    S    
C6    H36   S    
Cr9   O56   S    
C58   C69   S    
C79   C97   S    
C80   H3    S    
C56   O26   A    
C101  C111  A    
C5    H32   S    
C15   H64   S    
C80   C108  S    
C59   C63   A    
C33   C38   A    
Cr3   O11   S    
C7    O52   S    
C22   C27   A    
C103  C107  A    
C63   H12   S    
Cr2   O10   S    
C80   C91   S    
C9    O59   S    
C53   O22   A    
Cr1   O9    S    
C75   C79   A    
C53   O27   A    
Cr9   O10   S    
Cr2   O32   S    
C14   H63   S    
C84   O31   A    
C2    C37   A    
C55   O25   A    
C71   O58   S    
C12   H60   S    
C93   O72   A    
C46   C96   S    
C77   C82   A    
C4    H27   S    
Cr4   O35   S    
Cr9   O24   S    
Cr10  O67   S    
C49   H22   S    
C4    H29   S    
C25   O19   A    
C10   O60   S    
C67   C90   S    
C57   O53   S    
C94   O56   A    
C43   C46   A    
Cr3   O29   S    
Cr12  O31   S    
C16   H70   S    
C14   O63   S    
Cr6   O23   S    
C96   O71   A    
C74   O61   S    
C61   C65   A    
C95   O67   A    
C48   C52   A    
C11   H55   S    
C51   H25   S    
C72   O59   S    
C52   H26   S    
C23   C36   S    
C106  C107  A    
C1    O14   A    
Cr7   O17   S    
C73   C77   A    
Cr10  O11   S    
C98   O6    A    
C18   H5    S    
Cr6   O16   S    
Cr12  O27   S    
H43   O57   S    
C97   O5    A    
C65   C70   A    
Cr7   O43   S    
C69   C107  S    
C47   O21   A    
C41   H19   S    
C39   C87   S    
Cr6   O42   S    
C65   H34   S    
Cr10  O47   S    
C26   C30   A    
Cr5   O41   S    
