data_mof_unit_60726.cif
_audit_creation_date              2013-03-05T16:51:02-0500
_audit_creation_method            fapswitch 2.2
_symmetry_space_group_name_H-M    P1
_symmetry_Int_Tables_number       1
_space_group_crystal_system       triclinic
_cell_length_a                    13.696546
_cell_length_b                    15.090837
_cell_length_c                    15.850766
_cell_angle_alpha                 90.018947
_cell_angle_beta                  89.96894
_cell_angle_gamma                 82.974451
_cell_volume                      3251.63232665

loop_
_atom_site_label
_atom_site_type_symbol
_atom_site_description
_atom_site_fract_x
_atom_site_fract_y
_atom_site_fract_z
_atom_type_partial_charge
O1    O     O_R   0.500000 0.426350 0.621980 -0.596526
O2    O     O_R   0.500000 0.573650 0.378020 -0.596526
O3    O     O_R   0.499960 0.573690 0.621980 -0.612439
O4    O     O_R   0.500040 0.426310 0.378020 -0.612440
C1    C     C_R   0.499979 0.500032 0.661117 0.903214
C2    C     C_R   0.500021 0.499967 0.338883 0.903211
O5    O     O_R   0.640370 0.415730 0.499980 -0.601935
O6    O     O_R   0.359630 0.584270 0.500020 -0.601937
O7    O     O_R   0.640330 0.563060 0.499980 -0.588240
O8    O     O_R   0.359670 0.436940 0.500020 -0.588231
C3    C     C_R   0.685994 0.484133 0.499983 0.895292
C4    C     C_R   0.314005 0.515867 0.500017 0.895290
Zn1   Zn    Zn3+2 0.500030 0.401620 0.500000 1.042920
Zn2   Zn    Zn3+2 0.499970 0.598380 0.500000 1.042916
C5    C     C_1   0.210924 0.528143 0.499823 -0.089846
C6    C     C_1   0.789075 0.471853 0.500181 -0.089850
C7    C     C_2   0.019846 0.538903 0.499709 0.166230
C8    C     C_2   0.980155 0.461078 0.500303 0.166221
C9    C     C_1   0.876353 0.464127 0.500402 0.063709
C10   C     C_1   0.123647 0.535862 0.499605 0.063726
H1    H     H_    0.504846 0.356519 0.922261 0.165275
H2    H     H_    0.495155 0.643481 0.077739 0.165275
C11   C     C_R   0.502730 0.419056 0.043695 -0.158291
C12   C     C_R   0.497271 0.580943 0.956305 -0.158290
H3    H     H_    0.504841 0.356473 0.077566 0.159970
H4    H     H_    0.495160 0.643527 0.922434 0.159971
C13   C     C_R   0.499997 0.499974 0.086854 0.150748
C14   C     C_R   0.500003 0.500026 0.913145 0.150748
C15   C     C_R   0.497267 0.580917 0.043792 -0.149863
C16   C     C_R   0.502733 0.419082 0.956208 -0.149863
C17   C     C_1   0.500004 0.499950 0.175641 -0.040322
C18   C     C_1   0.499997 0.500050 0.824358 -0.040321
C19   C     C_1   0.499988 0.500054 0.749519 -0.136157
C20   C     C_1   0.500012 0.499946 0.250481 -0.136159
H5    H     H_    0.598315 0.905730 0.605214 0.200884
H6    H     H_    0.401685 0.094269 0.394785 0.200884
C21   C     C_R   0.555969 0.039974 0.559953 0.434331
C22   C     C_R   0.444031 0.960026 0.440047 0.434331
C23   C     C_R   0.500539 0.094937 0.500631 -0.100076
C24   C     C_R   0.499461 0.905063 0.499369 -0.100076
C25   C     C_R   0.444851 0.053628 0.440982 -0.241944
C26   C     C_R   0.555149 0.946371 0.559018 -0.241945
C27   C     C_1   0.500153 0.192897 0.500227 0.223596
C28   C     C_1   0.499847 0.807102 0.499772 0.223592
N1    N     N_1   0.500030 0.729450 0.499980 -0.072580
N2    N     N_1   0.499970 0.270550 0.500020 -0.072579
N3    N     N_R   0.038334 0.374499 0.498802 0.214072
O9    O     O_R   0.003011 0.306182 0.531874 -0.320897
O10   O     O_R   0.117666 0.360338 0.453070 -0.369654
N4    N     N_R   0.961662 0.625480 0.501213 0.214059
O11   O     O_R   0.996957 0.693791 0.468101 -0.320908
O12   O     O_R   0.882365 0.639646 0.546988 -0.369641
Cl1   Cl    Cl    0.627504 0.086462 0.636594 -0.541464
Cl2   Cl    Cl    0.372497 0.913538 0.363405 -0.541466

loop_
_geom_bond_atom_site_label_1
_geom_bond_atom_site_label_2
_geom_bond_distance
_ccdc_geom_bond_type
C7    N4    1.444950 S    
N4    O12   1.301541 A    
O7    Zn2   1.931124 S    
H2    C15   1.083854 S    
C11   C13   1.395981 A    
C13   C15   1.395985 A    
C3    C6    1.401318 S    
N3    O9    1.301472 A    
C22   Cl2   1.759768 S    
C4    C5    1.401317 S    
O5    Zn1   1.959646 S    
O6    C4    1.270380 A    
C21   Cl1   1.759766 S    
C8    N3    1.444961 S    
C24   C26   1.407487 A    
N4    O11   1.301472 A    
C17   C20   1.186257 T    
C21   C23   1.412722 A    
N3    O10   1.301544 A    
C18   C19   1.186257 T    
C22   C24   1.412721 A    
O7    C3    1.275775 A    
H6    C25   1.083486 S    
O2    C2    1.273065 A    
O3    Zn2   1.969174 S    
O8    C4    1.275772 A    
C6    C9    1.186809 T    
O1    C1    1.273064 A    
C14   C18   1.407344 S    
C14   C16   1.395986 A    
C12   H4    1.083845 S    
O5    C3    1.270373 A    
Zn2   N1    1.978057 S    
C11   H3    1.083845 S    
C7    C8    1.353186 D    
C5    C10   1.186809 T    
O2    Zn2   1.969033 S    
C27   N2    1.171543 T    
O1    Zn1   1.969033 S    
C13   C17   1.407344 S    
C11   C16   1.386738 A    
C12   C14   1.395983 A    
C24   C28   1.477679 S    
C7    C10   1.416829 S    
C28   N1    1.171543 T    
C23   C25   1.407485 A    
C22   C25   1.414033 A    
O4    C2    1.273097 A    
C8    C9    1.416830 S    
H1    C16   1.083853 S    
C23   C27   1.477680 S    
C21   C26   1.414032 A    
H5    C26   1.083486 S    
Zn1   N2    1.978057 S    
O6    Zn2   1.959646 S    
C12   C15   1.386739 A    
C2    C20   1.401244 S    
O4    Zn1   1.969174 S    
O3    C1    1.273096 A    
O8    Zn1   1.931124 S    
C1    C19   1.401244 S    
