data_mof_unit_6517.cif
_audit_creation_date              2012-12-10T17:21:14-0500
_audit_creation_method            fapswitch 2.2
_symmetry_space_group_name_H-M    P1
_symmetry_Int_Tables_number       1
_space_group_crystal_system       triclinic
_cell_length_a                    9.647132
_cell_length_b                    10.777732
_cell_length_c                    13.872573
_cell_angle_alpha                 93.544565
_cell_angle_beta                  84.569423
_cell_angle_gamma                 90.548889
_cell_volume                      1433.15872293

loop_
_atom_site_label
_atom_site_type_symbol
_atom_type_description
_atom_site_fract_x
_atom_site_fract_y
_atom_site_fract_z
_atom_type_partial_charge
C1    C     C_R   0.499831 0.737414 0.504577 0.772203
C2    C     C_R   0.594498 0.932974 0.449745 -0.201839
C3    C     C_R   0.594273 0.060867 0.450002 -0.219490
C4    C     C_R   0.477070 0.500385 0.682809 0.782553
C5    C     C_R   0.498587 0.130015 0.512960 -0.112780
C6    C     C_R   0.868982 0.359171 0.356086 -0.136069
C7    C     C_R   0.942636 0.320611 0.269685 -0.306354
C8    C     C_R   0.085153 0.326668 0.262527 -0.268976
C9    C     C_R   0.153221 0.356149 0.346095 0.535067
C10   C     C_R   0.082286 0.429684 0.426653 0.091213
C11   C     C_R   0.932594 0.430283 0.428643 0.157809
C12   C     C_1   0.462957 0.499635 0.786133 -0.174754
C13   C     C_R   0.918017 0.566978 0.567911 -0.045368
C14   C     C_R   0.065399 0.566665 0.568103 -0.059644
C15   C     C_R   0.499100 0.263310 0.504803 0.805927
C16   C     C_R   0.522921 0.499691 0.317205 0.845412
C17   C     C_1   0.536860 0.498680 0.213824 -0.165441
C18   C     C_2   0.557333 0.497285 0.022947 -0.161862
C19   C     C_2   0.442085 0.498204 0.976908 -0.162729
C20   C     C_1   0.452325 0.498912 0.873102 0.000585
C21   C     C_1   0.547237 0.497884 0.126798 0.001512
C22   C     C_3   0.265208 0.169879 0.347869 -0.316376
C23   C     C_R   0.319942 0.880769 0.653075 -0.183085
C24   C     C_R   0.231219 0.950043 0.720639 -0.143857
C25   C     C_R   0.229890 0.078972 0.720132 -0.131526
C26   C     C_R   0.317446 0.139479 0.652165 -0.181443
C27   C     C_R   0.406450 0.071122 0.581617 0.085592
C28   C     C_R   0.407421 0.939815 0.581856 0.101844
C29   C     C_R   0.499762 0.871925 0.512927 -0.097532
Cu1   Cu    Cu3+1 0.359340 0.500010 0.500010 0.968527
Cu2   Cu    Cu3+1 0.640660 0.499990 0.499990 0.942302
H1    H     H_    0.339620 0.498919 0.016905 0.155486
H2    H     H_    0.162363 0.132527 0.773682 0.135148
H3    H     H_    0.316426 0.239850 0.657346 0.152392
H4    H     H_    0.666202 0.106046 0.398316 0.146124
H5    H     H_    0.856505 0.622435 0.623643 0.133958
H6    H     H_    0.221336 0.129194 0.281730 0.146604
H7    H     H_    0.200991 0.142297 0.414093 0.174009
H8    H     H_    0.369464 0.127782 0.346810 0.182311
H9    H     H_    0.762651 0.331701 0.362268 0.203286
H10   H     H_    0.889684 0.277337 0.210803 0.173079
H11   H     H_    0.142545 0.286984 0.197139 0.163487
H12   H     H_    0.113075 0.621740 0.623969 0.127962
H13   H     H_    0.659789 0.496686 0.982952 0.155102
H14   H     H_    0.666535 0.881067 0.397953 0.156188
H15   H     H_    0.321159 0.781329 0.659095 0.139822
H16   H     H_    0.164771 0.903537 0.774601 0.130964
N1    N     N_R   0.852210 0.498790 0.499090 -0.185464
N2    N     N_R   0.148080 0.498710 0.499060 -0.187106
O1    O     O_R   0.381190 0.680360 0.500010 -0.584936
O2    O     O_R   0.618760 0.680340 0.500000 -0.573687
O3    O     O_R   0.364420 0.499990 0.637850 -0.596095
O4    O     O_R   0.601990 0.499960 0.637840 -0.571635
O5    O     O_R   0.381240 0.319660 0.500000 -0.527558
O6    O     O_R   0.618810 0.319640 0.499990 -0.601561
O7    O     O_R   0.398010 0.500040 0.362160 -0.524281
O8    O     O_R   0.635580 0.500010 0.362150 -0.598313
O9    O     O_3   0.280810 0.301005 0.348582 -0.546706

loop_
_geom_bond_atom_site_label_1
_geom_bond_atom_site_label_2
_ccdc_geom_bond_type
C22   O9    S    
C13   N1    A    
C23   C24   A    
C16   O7    A    
C6    C7    A    
C18   H13   S    
C4    O4    A    
C4    C12   S    
C18   C21   S    
Cu1   O5    S    
C9    C10   A    
C19   C20   S    
C3    H4    S    
C16   O8    A    
C24   H16   S    
C1    C29   S    
C2    C3    A    
Cu1   O1    S    
C7    C8    A    
C23   H15   S    
C5    C27   A    
C13   C14   A    
Cu2   O4    S    
C1    O2    A    
Cu2   O8    S    
C11   N1    A    
C10   N2    A    
C12   C20   T    
C4    O3    A    
C2    C29   A    
C22   H8    S    
C28   C29   A    
Cu1   N2    S    
C8    H11   S    
C9    O9    S    
Cu2   N1    S    
C7    H10   S    
C2    H14   S    
C26   C27   A    
Cu1   Cu2   S    
C6    H9    S    
C5    C15   S    
C14   N2    A    
C16   C17   S    
C10   C11   A    
C19   H1    S    
C22   H7    S    
C15   O5    A    
C6    C11   A    
C24   C25   A    
C13   H5    S    
C18   C19   D    
C1    O1    A    
C25   H2    S    
C27   C28   A    
Cu1   O3    S    
C8    C9    A    
Cu2   O6    S    
C25   C26   A    
C23   C28   A    
C22   H6    S    
Cu1   O7    S    
C26   H3    S    
C17   C21   T    
Cu2   O2    S    
C14   H12   S    
C3    C5    A    
C15   O6    A    
