data_mof_unit_44139.cif
_audit_creation_date              2012-12-10T18:12:09-0500
_audit_creation_method            fapswitch 2.2
_symmetry_space_group_name_H-M    P1
_symmetry_Int_Tables_number       1
_space_group_crystal_system       triclinic
_cell_length_a                    18.658891
_cell_length_b                    18.765294
_cell_length_c                    18.839214
_cell_angle_alpha                 109.635864
_cell_angle_beta                  109.433641
_cell_angle_gamma                 109.533205
_cell_volume                      5065.9822933

loop_
_atom_site_label
_atom_site_type_symbol
_atom_type_description
_atom_site_fract_x
_atom_site_fract_y
_atom_site_fract_z
_atom_type_partial_charge
C1    C     C_R   0.620298 0.620006 0.500465 0.950672
C2    C     C_R   0.405387 0.756163 0.216717 0.363044
C3    C     C_R   0.372582 0.812873 0.235314 -0.281205
C4    C     C_R   0.378784 0.498581 0.380013 0.819774
C5    C     C_R   0.306279 0.792854 0.256795 0.489888
C6    C     C_R   0.272311 0.715418 0.259475 -0.233118
C7    C     C_R   0.304906 0.658282 0.240891 0.005224
C8    C     C_R   0.774679 0.731360 0.569329 0.422739
C9    C     C_R   0.837111 0.795731 0.568261 -0.244163
C10   C     C_R   0.812556 0.814511 0.501058 -0.101644
C11   C     C_R   0.724931 0.769742 0.434847 -0.107439
C12   C     C_R   0.172915 0.174943 0.242067 0.366653
C13   C     C_R   0.662110 0.705259 0.435276 -0.239231
C14   C     C_R   0.687075 0.686253 0.501941 -0.156660
C15   C     C_R   0.674975 0.502020 0.762617 0.292214
C16   C     C_R   0.379131 0.379808 0.499085 0.885893
C17   C     C_R   0.747835 0.517088 0.832712 0.259586
C18   C     C_R   0.812222 0.502582 0.817661 -0.198537
C19   C     C_R   0.809754 0.482981 0.738526 -0.240385
C20   C     C_R   0.744155 0.479284 0.673587 -0.132863
C21   C     C_R   0.678479 0.491351 0.686093 -0.196573
C22   C     C_R   0.239387 0.316049 0.493407 -0.238901
C23   C     C_R   0.165523 0.429143 0.197956 -0.146085
C24   C     C_R   0.174484 0.248939 0.488625 -0.180741
C25   C     C_R   0.188130 0.182849 0.497617 -0.025903
C26   C     C_R   0.267336 0.182804 0.509899 0.031397
C27   C     C_R   0.328759 0.247282 0.507397 -0.111325
C28   C     C_R   0.616840 0.496490 0.620022 1.033990
C29   C     C_R   0.314592 0.313322 0.499827 -0.002529
C30   C     C_R   0.002192 0.620294 0.122516 0.939697
C31   C     C_R   0.120808 0.502524 0.122583 0.868573
C32   C     C_R   0.999772 0.379566 0.879345 0.905470
C33   C     C_R   0.879562 0.501556 0.881659 0.984340
C34   C     C_R   0.187610 0.505067 0.191576 -0.107112
C35   C     C_R   0.999244 0.879046 0.380178 0.848321
C36   C     C_R   0.879296 0.879711 0.499861 0.980456
C37   C     C_R   0.000253 0.120083 0.619861 0.963193
C38   C     C_R   0.120717 0.118574 0.498780 0.842104
C39   C     C_R   0.019981 0.765072 0.193225 0.023068
C40   C     C_R   0.229198 0.209292 0.212518 0.160475
C41   C     C_R   0.015881 0.826961 0.254146 -0.164483
C42   C     C_R   0.998380 0.811360 0.315387 -0.085644
C43   C     C_R   0.983884 0.733322 0.316509 -0.043129
C44   C     C_R   0.985583 0.669351 0.253242 -0.054428
C45   C     C_R   0.273584 0.578548 0.247763 0.059914
C46   C     C_R   0.003940 0.686120 0.191616 -0.053914
C47   C     C_R   0.068984 0.336077 0.796046 -0.185546
C48   C     C_R   0.070867 0.272659 0.733597 -0.054424
C49   C     C_R   0.000345 0.185801 0.686102 -0.194033
C50   C     C_R   0.930054 0.162512 0.702653 0.434495
C51   C     C_R   0.930598 0.227126 0.766319 -0.232815
C52   C     C_R   0.237285 0.284750 0.205995 0.343540
C53   C     C_R   0.999527 0.313302 0.812571 -0.122865
C54   C     C_R   0.208586 0.336989 0.249957 -0.139708
C55   C     C_R   0.159012 0.305613 0.286548 -0.104758
C56   C     C_R   0.334283 0.574852 0.310935 -0.226824
C57   C     C_R   0.139310 0.223531 0.278550 -0.306094
C58   C     C_R   0.289955 0.119984 0.528911 0.096703
C59   C     C_R   0.368960 0.151849 0.603756 -0.172583
C60   C     C_R   0.389490 0.093959 0.624917 -0.110646
C61   C     C_R   0.331058 0.003907 0.572213 -0.109638
C62   C     C_R   0.252628 0.971601 0.497642 -0.046653
C63   C     C_R   0.232966 0.029092 0.474793 -0.063900
C64   C     C_R   0.965380 0.717199 0.382003 0.121968
C65   C     C_R   0.032700 0.729978 0.455453 -0.102102
C66   C     C_R   0.013929 0.708429 0.513803 -0.137029
C67   C     C_R   0.312655 0.498066 0.314099 -0.055891
C68   C     C_R   0.927788 0.672791 0.498327 -0.082870
C69   C     C_R   0.860458 0.659413 0.424901 -0.136094
C70   C     C_R   0.879270 0.682663 0.367441 -0.192219
C71   C     C_R   0.965544 0.584503 0.249996 0.122685
C72   C     C_R   0.878185 0.521922 0.216594 -0.059264
C73   C     C_R   0.857047 0.438002 0.203144 -0.141120
C74   C     C_R   0.922738 0.415942 0.222192 -0.109879
C75   C     C_R   0.010021 0.478453 0.256890 -0.081625
C76   C     C_R   0.031685 0.562754 0.271302 -0.169810
C77   C     C_R   0.147732 0.299824 0.720714 0.087847
C78   C     C_R   0.229137 0.423092 0.255474 0.109807
C79   C     C_R   0.164833 0.360371 0.691928 -0.177031
C80   C     C_R   0.241138 0.392030 0.686768 -0.128089
C81   C     C_R   0.300476 0.362933 0.709484 -0.048191
C82   C     C_R   0.284021 0.302748 0.738179 -0.123918
C83   C     C_R   0.208547 0.272110 0.744913 -0.097636
C84   C     C_R   0.124023 0.354507 0.331500 0.151578
C85   C     C_R   0.179430 0.441735 0.400361 -0.199154
C86   C     C_R   0.147939 0.483976 0.447704 -0.153718
C87   C     C_R   0.061032 0.439382 0.427775 -0.099144
C88   C     C_R   0.005352 0.352635 0.360072 -0.156670
C89   C     C_R   0.371820 0.679323 0.219992 -0.217559
C90   C     C_R   0.036202 0.310651 0.311602 -0.170423
H1    H     H_    0.399089 0.872981 0.233945 0.229712
H2    H     H_    0.388932 0.247675 0.513962 0.155119
H3    H     H_    0.034041 0.778218 0.146173 0.199393
H4    H     H_    0.028072 0.887877 0.254707 0.187595
H5    H     H_    0.123034 0.402992 0.833197 0.181019
H6    H     H_    0.877461 0.210338 0.780289 0.207796
H7    H     H_    0.098836 0.197867 0.303619 0.217616
H8    H     H_    0.100591 0.371702 0.153273 0.178665
H9    H     H_    0.400054 0.631131 0.356000 0.154469
H10   H     H_    0.398043 0.635971 0.206760 0.192580
H11   H     H_    0.192611 0.010871 0.295785 0.392466
H12   H     H_    0.221504 0.699845 0.276688 0.153548
H13   H     H_    0.328995 0.004790 0.371579 0.389563
H14   H     H_    0.931172 0.746952 0.761347 0.397381
H15   H     H_    0.564375 0.385866 0.805934 0.341946
H16   H     H_    0.881918 0.687230 0.984171 0.362389
H17   H     H_    0.360998 0.177516 0.318920 0.353313
H18   H     H_    0.413943 0.221613 0.646580 0.154040
H19   H     H_    0.450165 0.119017 0.682874 0.151882
H20   H     H_    0.346305 0.959182 0.589408 0.141934
H21   H     H_    0.206627 0.901968 0.458083 0.168695
H22   H     H_    0.172176 0.002980 0.416538 0.121500
H23   H     H_    0.905091 0.830506 0.619218 0.234351
H24   H     H_    0.099264 0.755761 0.466870 0.120403
H25   H     H_    0.065947 0.718398 0.570453 0.141097
H26   H     H_    0.913169 0.655390 0.543099 0.185193
H27   H     H_    0.793678 0.631175 0.412609 0.163063
H28   H     H_    0.826596 0.671728 0.310561 0.151756
H29   H     H_    0.826252 0.537309 0.198345 0.150822
H30   H     H_    0.789490 0.389524 0.176201 0.151924
H31   H     H_    0.905725 0.350151 0.209306 0.139167
H32   H     H_    0.060674 0.461168 0.271113 0.151577
H33   H     H_    0.099140 0.609984 0.296090 0.109261
H34   H     H_    0.705269 0.783666 0.382463 0.209589
H35   H     H_    0.253762 0.372853 0.060741 0.383632
H36   H     H_    0.119557 0.383712 0.674459 0.144534
H37   H     H_    0.254064 0.438801 0.664706 0.152883
H38   H     H_    0.359114 0.386984 0.704778 0.209847
H39   H     H_    0.330317 0.280685 0.756242 0.156460
H40   H     H_    0.198527 0.228268 0.770621 0.168696
H41   H     H_    0.845582 0.951655 0.680982 0.394918
H42   H     H_    0.247981 0.476015 0.420618 0.150680
H43   H     H_    0.191448 0.550894 0.500890 0.145046
H44   H     H_    0.036874 0.471976 0.464828 0.138538
H45   H     H_    0.594132 0.670173 0.383855 0.168530
H46   H     H_    0.937950 0.318034 0.344620 0.150227
H47   H     H_    0.991714 0.243440 0.259158 0.156924
H48   H     H_    0.434253 0.817255 0.098033 0.356297
H49   H     H_    0.859307 0.471483 0.727500 0.169091
H50   H     H_    0.744846 0.467086 0.613462 0.208711
H51   H     H_    0.230550 0.369280 0.490952 0.163981
H52   H     H_    0.115241 0.250817 0.481923 0.164839
O1    O     O_R   0.591640 0.539900 0.448310 -0.603222
O2    O     O_R   0.948270 0.908330 0.356580 -0.594916
O3    O     O_R   0.960090 0.908280 0.551610 -0.612084
O4    O     O_R   0.591610 0.643330 0.551710 -0.588274
O5    O     O_R   0.856650 0.908310 0.448190 -0.591285
O6    O     O_R   0.051730 0.091500 0.643240 -0.613424
O7    O     O_R   0.948290 0.091530 0.539820 -0.590206
O8    O     O_R   0.143350 0.091510 0.551630 -0.634190
O9    O     O_R   0.039910 0.091550 0.448210 -0.612928
O10   O     O_R   0.408400 0.448280 0.356670 -0.572794
O11   O     O_R   0.408370 0.551710 0.460080 -0.653728
O12   O     O_R   0.051750 0.643320 0.091550 -0.606496
O13   O     O_R   0.408390 0.356670 0.448290 -0.653785
O14   O     O_R   0.408360 0.460100 0.551690 -0.598714
O15   O     O_R   0.591630 0.448290 0.539920 -0.635409
O16   O     O_R   0.591600 0.551720 0.643330 -0.536922
O17   O     O_R   0.948300 0.539910 0.091570 -0.586013
O18   O     O_2   0.049538 0.035608 0.226610 -0.314925
O19   O     O_2   0.125188 0.006182 0.146229 -0.184860
O20   O     O_3   0.209520 0.072760 0.314112 -0.569263
O21   O     O_2   0.218406 0.867069 0.201491 -0.266037
O22   O     O_2   0.209110 0.839537 0.317518 -0.396260
O23   O     O_R   0.039910 0.448280 0.091610 -0.633182
O24   O     O_3   0.354782 0.967406 0.357355 -0.515042
O25   O     O_2   0.760482 0.714768 0.700659 -0.264339
O26   O     O_2   0.787751 0.611368 0.608704 -0.379207
O27   O     O_3   0.917549 0.769960 0.721417 -0.546694
O28   O     O_2   0.570736 0.563730 0.792442 -0.190140
O29   O     O_2   0.498112 0.413376 0.674303 -0.416883
O30   O     O_3   0.567013 0.442859 0.831599 -0.464634
O31   O     O_2   0.713398 0.609998 0.950617 -0.165644
O32   O     O_2   0.749361 0.501203 0.969876 -0.248237
O33   O     O_3   0.873999 0.646090 0.006610 -0.597143
O34   O     O_R   0.143370 0.551700 0.091590 -0.613980
O35   O     O_2   0.244638 0.089889 0.100231 -0.150476
O36   O     O_2   0.378519 0.231578 0.207180 -0.245266
O37   O     O_3   0.324562 0.125429 0.259631 -0.446935
O38   O     O_2   0.370792 0.373029 0.187093 -0.254444
O39   O     O_2   0.256172 0.226611 0.064076 -0.198836
O40   O     O_3   0.221044 0.350784 0.087711 -0.572245
O41   O     O_2   0.778300 0.048583 0.679520 -0.298821
O42   O     O_2   0.799216 0.014120 0.553223 -0.257493
O43   O     O_3   0.889716 0.994985 0.676930 -0.564307
O44   O     O_2   0.576779 0.826770 0.274235 -0.233288
O45   O     O_R   0.948300 0.356650 0.908390 -0.622032
O46   O     O_2   0.478983 0.700811 0.126454 -0.272459
O47   O     O_3   0.491383 0.850955 0.152900 -0.491468
O48   O     O_R   0.051750 0.460070 0.908380 -0.633249
O49   O     O_R   0.856690 0.448280 0.908350 -0.588396
O50   O     O_R   0.960140 0.551690 0.908340 -0.616091
O51   O     O_R   0.051710 0.908290 0.460000 -0.640167
S1    S     S_3+6 0.136328 0.068708 0.229371 0.071498
S2    S     S_3+6 0.268207 0.866535 0.282337 0.006087
S3    S     S_3+6 0.808767 0.704707 0.651472 -0.001593
S4    S     S_3+6 0.575019 0.480967 0.763891 0.058088
S5    S     S_3+6 0.767915 0.567787 0.941302 0.086906
S6    S     S_3+6 0.295490 0.163900 0.192726 0.159715
S7    S     S_3+6 0.273849 0.308497 0.135515 0.092461
S8    S     S_3+6 0.844742 0.052792 0.650329 0.033339
S9    S     S_3+6 0.490518 0.782582 0.192216 0.064197
Zn1   Zn    Zn3+2 0.500020 0.430940 0.430950 1.082266
Zn2   Zn    Zn3+2 0.499980 0.569060 0.569050 1.085787
Zn3   Zn    Zn3+2 0.930950 0.430940 0.999980 1.038585
Zn4   Zn    Zn3+2 0.069100 0.569040 0.999960 1.026594
Zn5   Zn    Zn3+2 0.069070 0.999890 0.568970 1.003953
Zn6   Zn    Zn3+2 0.930930 0.999930 0.430860 1.094916

loop_
_geom_bond_atom_site_label_1
_geom_bond_atom_site_label_2
_ccdc_geom_bond_type
C66   C68   A    
C87   C88   A    
C41   C42   A    
O51   Zn5   S    
C22   C29   A    
C27   C29   A    
C75   H32   S    
O16   Zn2   S    
C65   H24   S    
C32   C53   S    
O1    Zn1   S    
C11   H34   S    
C2    S9    S    
C75   C76   A    
C81   C82   A    
O22   S2    D    
C39   C41   A    
C85   C86   A    
C26   C27   A    
C33   O50   A    
O38   S7    D    
C7    C45   S    
H11   O20   S    
H15   O30   S    
O8    Zn5   S    
C85   H42   S    
C5    C6    A    
C15   S4    S    
C77   C83   A    
O43   S8    S    
C7    C89   A    
O44   S9    D    
C44   C71   S    
C3    H1    S    
C18   C19   A    
O49   Zn3   S    
O34   Zn4   S    
C63   H22   S    
C35   C42   S    
C39   H3    S    
O4    Zn2   S    
C60   H19   S    
C86   H43   S    
O6    Zn5   S    
O48   Zn4   S    
C62   H21   S    
C31   O23   A    
C45   C56   A    
C44   C46   A    
C8    C9    A    
C16   O14   A    
H16   O33   S    
O10   Zn1   S    
O15   Zn1   S    
C64   C70   A    
O9    Zn6   S    
C9    C10   A    
C61   C62   A    
C35   O2    A    
C47   C53   A    
O11   Zn2   S    
C4    O11   A    
O31   S5    D    
C24   C25   A    
C59   C60   A    
C23   C78   A    
C73   H30   S    
C13   C14   A    
C13   H45   S    
C87   H44   S    
O20   S1    S    
C1    O4    A    
O5    Zn6   S    
C67   C78   A    
C84   C90   A    
O13   Zn1   S    
C61   H20   S    
O7    Zn6   S    
C52   C54   A    
C43   C64   S    
O17   Zn3   S    
O27   S3    S    
C31   O34   A    
C77   C79   A    
C73   C74   A    
C30   O17   A    
C4    O10   A    
O32   S5    D    
C74   C75   A    
C89   H10   S    
O41   S8    D    
C47   C48   A    
O30   S4    S    
O40   S7    S    
O24   S2    S    
C88   H46   S    
C83   H40   S    
C66   H25   S    
C24   H52   S    
C86   C87   A    
C68   C69   A    
C50   C51   A    
C25   C26   A    
C40   C52   A    
C82   C83   A    
C60   C61   A    
C51   C53   A    
C48   C77   S    
C12   C40   A    
C2    C89   A    
C43   C44   A    
O33   S5    S    
C62   C63   A    
C1    O1    A    
C25   C38   S    
O36   S6    D    
C37   C49   S    
C36   O5    A    
C41   H4    S    
O21   S2    D    
C23   C34   A    
C57   H7    S    
O45   Zn3   S    
C16   O13   A    
C28   O16   A    
C17   C18   A    
C31   C34   S    
C32   O48   A    
C27   H2    S    
C34   C45   A    
C84   C85   A    
C82   H39   S    
C26   C58   S    
O12   Zn4   S    
C68   H26   S    
C39   C46   A    
C52   S7    S    
C12   C57   A    
H41   O43   S    
C48   C49   A    
C40   S6    S    
C79   H36   S    
C88   C90   A    
C49   C50   A    
C30   O12   A    
C55   C57   A    
C81   H38   S    
O26   S3    D    
C23   H8    S    
C22   C24   A    
H48   O47   S    
C42   C43   A    
O14   Zn2   S    
C38   O9    A    
O3    Zn5   S    
C90   H47   S    
O18   S1    D    
C50   S8    S    
C58   C63   A    
C15   C17   A    
C17   S5    S    
C54   C55   A    
C8    C14   A    
O42   S8    D    
C32   O45   A    
H17   O37   S    
H35   O40   S    
C76   H33   S    
O50   Zn4   S    
C30   C46   S    
C37   O7    A    
C80   C81   A    
C3    C5    A    
C4    C67   S    
C6    C7    A    
C80   H37   S    
O47   S9    S    
C56   C67   A    
C51   H6    S    
C59   H18   S    
C5    S2    S    
C33   O49   A    
C9    H23   S    
C64   C65   A    
C20   H50   S    
C19   C20   A    
C2    C3    A    
C58   C59   A    
C71   C72   A    
O29   S4    D    
C11   C13   A    
C71   C76   A    
O37   S6    S    
C70   H28   S    
C72   C73   A    
C22   H51   S    
C69   H27   S    
C28   O15   A    
O19   S1    D    
C8    S3    S    
C6    H12   S    
C37   O6    A    
C69   C70   A    
C18   C33   S    
C72   H29   S    
C10   C11   A    
C35   O51   A    
C21   C28   S    
C79   C80   A    
O25   S3    D    
C36   O3    A    
C15   C21   A    
C74   H31   S    
C20   C21   A    
C16   C29   S    
H13   O24   S    
C19   H49   S    
C65   C66   A    
O35   S6    D    
C47   H5    S    
O46   S9    D    
C10   C36   S    
C1    C14   S    
C56   H9    S    
O2    Zn6   S    
C55   C84   S    
O39   S7    D    
O23   Zn3   S    
C38   O8    A    
O28   S4    D    
C12   S1    S    
H14   O27   S    
C54   C78   S    
