data_mof_unit_10640.cif
_audit_creation_date              2012-12-10T18:06:48-0500
_audit_creation_method            fapswitch 2.2
_symmetry_space_group_name_H-M    P1
_symmetry_Int_Tables_number       1
_space_group_crystal_system       triclinic
_cell_length_a                    12.735981
_cell_length_b                    13.057587
_cell_length_c                    15.378435
_cell_angle_alpha                 84.857276
_cell_angle_beta                  99.014819
_cell_angle_gamma                 97.692255
_cell_volume                      2496.96514238

loop_
_atom_site_label
_atom_site_type_symbol
_atom_type_description
_atom_site_fract_x
_atom_site_fract_y
_atom_site_fract_z
_atom_type_partial_charge
C1    C     C_R   0.442745 0.308328 0.509248 0.970770
C2    C     C_R   0.633692 0.382831 0.937700 -0.004378
C3    C     C_R   0.532292 0.413974 0.901554 0.038077
C4    C     C_R   0.434904 0.509847 0.336203 0.897695
C5    C     C_R   0.713732 0.388238 0.883298 -0.306670
C6    C     C_R   0.694452 0.423054 0.793771 0.459013
C7    C     C_R   0.515530 0.451394 0.813270 -0.282828
C8    C     C_R   0.622360 0.940738 0.354859 -0.154127
C9    C     C_R   0.582923 0.802286 0.465106 -0.182149
C10   C     C_R   0.345152 0.158199 0.585067 0.433248
C11   C     C_R   0.329389 0.051244 0.605084 -0.243014
C12   C     C_R   0.417627 0.442358 0.102598 0.114108
C13   C     C_R   0.381392 0.985935 0.564886 -0.209750
C14   C     C_R   0.445910 0.025444 0.499536 0.033780
C15   C     C_R   0.444932 0.129759 0.467044 -0.035607
C16   C     C_R   0.555804 0.691887 0.487306 0.889885
C17   C     C_R   0.511102 0.964533 0.465319 0.103107
C18   C     C_R   0.559495 0.002098 0.390013 0.026877
C19   C     C_R   0.542594 0.099364 0.349445 -0.321388
C20   C     C_R   0.484141 0.163428 0.386341 0.461413
C21   C     C_R   0.530562 0.867452 0.505083 -0.284577
C22   C     C_R   0.635168 0.840886 0.391796 0.427537
C23   C     C_R   0.311748 0.460769 0.067356 0.171913
C24   C     C_R   0.405964 0.197598 0.517327 -0.139982
C25   C     C_R   0.144016 0.600437 0.651595 -0.251358
C26   C     C_R   0.754445 0.385891 0.388971 -0.129208
C27   C     C_R   0.847748 0.358776 0.364614 0.417166
C28   C     C_R   0.563213 0.483752 0.664226 0.891667
C29   C     C_R   0.946350 0.397707 0.409915 -0.160878
C30   C     C_R   0.952332 0.463130 0.479294 -0.134791
C31   C     C_R   0.855504 0.487984 0.502118 0.150745
C32   C     C_R   0.050701 0.506422 0.525986 0.021915
C33   C     C_R   0.050183 0.558115 0.602999 0.017808
C34   C     C_R   0.484574 0.409261 0.048403 -0.022282
C35   C     C_R   0.955996 0.576042 0.627645 -0.327103
C36   C     C_R   0.860687 0.552911 0.572637 0.530925
C37   C     C_R   0.150097 0.503924 0.498653 -0.081281
C38   C     C_R   0.238598 0.599265 0.620542 0.566915
C39   C     C_R   0.391501 0.498466 0.243201 -0.035073
C40   C     C_R   0.593832 0.454844 0.758737 -0.108827
C41   C     C_R   0.245222 0.492926 0.121582 -0.185310
C42   C     C_R   0.284674 0.510838 0.209502 -0.178478
C43   C     C_R   0.456872 0.465662 0.189263 -0.241461
C44   C     C_R   0.453290 0.416322 0.956357 0.081644
C45   C     C_R   0.345474 0.429604 0.922665 -0.185163
C46   C     C_R   0.275101 0.449214 0.978101 -0.226075
C47   C     C_R   0.582052 0.370607 0.083197 -0.237718
C48   C     C_R   0.654013 0.352537 0.028676 0.450455
H1    H     H_    0.193484 0.460359 0.950249 0.149898
H2    H     H_    0.313223 0.423348 0.853827 0.161113
H3    H     H_    0.792876 0.368900 0.910110 0.147926
H4    H     H_    0.736085 0.742256 0.398147 0.359603
H5    H     H_    0.265951 0.184788 0.677795 0.330262
H6    H     H_    0.490104 0.265898 0.286214 0.319608
H7    H     H_    0.382894 0.666469 0.630274 0.366836
H8    H     H_    0.441995 0.482285 0.786514 0.210618
H9    H     H_    0.143764 0.638974 0.711234 0.166053
H10   H     H_    0.016799 0.373668 0.390850 0.168320
H11   H     H_    0.769463 0.273713 0.272690 0.336805
H12   H     H_    0.575170 0.125712 0.289122 0.142407
H13   H     H_    0.794355 0.646630 0.634320 0.316141
H14   H     H_    0.838115 0.402464 0.775375 0.325670
H15   H     H_    0.766762 0.267833 0.025120 0.332220
H16   H     H_    0.163395 0.505373 0.095744 0.150125
H17   H     H_    0.232016 0.534728 0.250688 0.163104
H18   H     H_    0.540064 0.461398 0.214995 0.162217
H19   H     H_    0.602197 0.349770 0.152883 0.148295
H20   H     H_    0.659897 0.969462 0.297368 0.173414
H21   H     H_    0.500882 0.837816 0.565584 0.158223
H22   H     H_    0.367556 0.904496 0.584777 0.164717
H23   H     H_    0.281166 0.018680 0.655263 0.148526
H24   H     H_    0.957748 0.620011 0.684662 0.150058
H25   H     H_    0.159250 0.465636 0.441545 0.142225
H26   H     H_    0.676776 0.356716 0.355013 0.144117
N1    N     N_R   0.239390 0.551900 0.544730 -0.159216
N2    N     N_R   0.759950 0.448600 0.455730 -0.121697
O1    O     O_R   0.374950 0.371210 0.521360 -0.558960
O2    O     O_3   0.305198 0.225278 0.632642 -0.754953
O3    O     O_3   0.458842 0.255782 0.341948 -0.785715
O4    O     O_3   0.329682 0.644105 0.669839 -0.792764
O5    O     O_3   0.845214 0.294571 0.297606 -0.726088
O6    O     O_3   0.776685 0.602840 0.583224 -0.716673
O7    O     O_3   0.772998 0.427410 0.740493 -0.757278
O8    O     O_3   0.744970 0.310221 0.067879 -0.748707
O9    O     O_R   0.542050 0.338030 0.492790 -0.599396
O10   O     O_R   0.368720 0.526070 0.390200 -0.629492
O11   O     O_R   0.535820 0.492890 0.361630 -0.604005
O12   O     O_R   0.457950 0.661970 0.507210 -0.647513
O13   O     O_R   0.625050 0.628790 0.478640 -0.548565
O14   O     O_R   0.464180 0.507110 0.638370 -0.614932
O15   O     O_R   0.631280 0.473930 0.609800 -0.501182
O16   O     O_3   0.693268 0.782533 0.351338 -0.755120
Zn1   Zn    Zn3+2 0.388420 0.522150 0.519080 0.975184
Zn2   Zn    Zn3+2 0.611580 0.477850 0.480920 1.021389

loop_
_geom_bond_atom_site_label_1
_geom_bond_atom_site_label_2
_ccdc_geom_bond_type
H14   O7    S    
C27   C29   A    
C1    O1    A    
C41   C42   A    
C19   C20   A    
C10   O2    S    
C4    O11   A    
C45   C46   A    
C46   H1    S    
C26   C27   A    
C9    C16   S    
C12   C43   A    
C3    C7    A    
H13   O6    S    
C30   C31   A    
C11   H23   S    
C9    C22   A    
C4    O10   A    
C13   H22   S    
C28   C40   S    
O11   Zn2   S    
C18   C19   A    
O13   Zn2   S    
C26   H26   S    
N2    Zn2   S    
C35   C36   A    
C36   O6    S    
C42   H17   S    
C26   N2    A    
C7    C40   A    
C37   N1    A    
C16   O13   A    
C23   C46   A    
C13   C14   A    
C14   C17   A    
C25   H9    S    
C7    H8    S    
C47   H19   S    
C39   C42   A    
C38   N1    A    
C1    O9    A    
C15   C20   A    
C3    C44   A    
C27   O5    S    
C34   C44   A    
C39   C43   A    
C10   C24   A    
C8    C18   A    
C48   O8    S    
C21   H21   S    
C29   C30   A    
O10   Zn1   S    
C25   C38   A    
O9    Zn2   S    
C8    C22   A    
C47   C48   A    
C12   C23   A    
C4    C39   S    
C17   C18   A    
C32   C37   A    
C15   C24   A    
C35   H24   S    
C8    H20   S    
C6    C40   A    
H4    O16   S    
C2    C5    A    
C12   C34   A    
C44   C45   A    
N1    Zn1   S    
O14   Zn1   S    
H6    O3    S    
C37   H25   S    
O12   Zn1   S    
C6    O7    S    
C20   O3    S    
C14   C15   A    
H11   O5    S    
C19   H12   S    
C23   C41   A    
H15   O8    S    
C2    C48   A    
C32   C33   A    
C2    C3    A    
O15   Zn2   S    
C30   C32   A    
H7    O4    S    
C11   C13   A    
C9    C21   A    
C31   N2    A    
C5    C6    A    
C38   O4    S    
C45   H2    S    
C43   H18   S    
O1    Zn1   S    
C33   C35   A    
H5    O2    S    
C28   O15   A    
C17   C21   A    
C10   C11   A    
C29   H10   S    
C1    C24   S    
C16   O12   A    
C22   O16   S    
C31   C36   A    
C5    H3    S    
C28   O14   A    
C34   C47   A    
C41   H16   S    
C25   C33   A    
