data_mof_unit_51034.cif
_audit_creation_date              2012-10-26T19:05:08-0400
_audit_creation_method            fapswitch 2.2
_symmetry_space_group_name_H-M    P1
_symmetry_Int_Tables_number       1
_space_group_crystal_system       triclinic
_cell_length_a                    16.003252
_cell_length_b                    10.76049
_cell_length_c                    9.668537
_cell_angle_alpha                 88.535185
_cell_angle_beta                  90.67652
_cell_angle_gamma                 92.002446
_cell_volume                      1663.28972869

loop_
_atom_site_label
_atom_site_type_symbol
_atom_type_description
_atom_site_fract_x
_atom_site_fract_y
_atom_site_fract_z
_atom_type_partial_charge
Br1   Br    Br    0.116188 0.431744 0.802627 -0.148238
Br2   Br    Br    0.909836 0.754806 0.587230 -0.212096
Br3   Br    Br    0.929636 0.530064 0.806004 -0.104318
Br4   Br    Br    0.667796 0.242004 0.704813 -0.328323
Br5   Br    Br    0.319462 0.841852 0.500323 -0.229952
Br6   Br    Br    0.549442 0.830709 0.155005 -0.330761
Br7   Br    Br    0.762088 0.797468 0.177080 -0.220582
Br8   Br    Br    0.088775 0.477132 0.188766 -0.137553
Br9   Br    Br    0.099014 0.705468 0.668356 -0.150054
Br10  Br    Br    0.121238 0.728555 0.365511 -0.118036
C1    C     C_R   0.504243 0.263086 0.502710 0.595344
C2    C     C_R   0.731947 0.059363 0.540713 0.014973
C3    C     C_R   0.729371 0.940051 0.490084 -0.031415
C4    C     C_R   0.340832 0.495070 0.499350 0.596655
C5    C     C_R   0.653218 0.875635 0.476004 -0.032847
C6    C     C_R   0.577640 0.936259 0.495707 0.012170
C7    C     C_R   0.579966 0.064132 0.523960 -0.004756
C8    C     C_R   0.504278 0.128509 0.511617 0.001653
C9    C     C_R   0.426996 0.063204 0.499932 0.252316
C10   C     C_R   0.424871 0.933621 0.498019 0.192580
C11   C     C_R   0.499997 0.871027 0.493354 0.027695
C12   C     C_3   0.952985 0.429321 0.645693 0.317271
C13   C     C_R   0.602736 0.673514 0.137928 0.150738
C14   C     C_R   0.681808 0.695809 0.080028 0.195107
C15   C     C_R   0.689473 0.681291 0.936581 0.276150
C16   C     C_R   0.497652 0.736764 0.498031 0.568892
C17   C     C_R   0.615464 0.659644 0.860825 0.247078
C18   C     C_R   0.554113 0.580333 0.925239 0.106795
C19   C     C_R   0.551541 0.582910 0.073362 0.075237
C20   C     C_R   0.448528 0.422282 0.073577 0.356403
C21   C     C_R   0.448423 0.423302 0.926399 0.080773
C22   C     C_R   0.659855 0.501313 0.500584 0.531373
C23   C     C_3   0.918391 0.488754 0.502433 -0.076822
C24   C     C_3   0.050339 0.404579 0.631606 0.306907
C25   C     C_3   0.045442 0.415175 0.367570 0.049140
C26   C     C_3   0.946988 0.404767 0.377874 0.382096
C27   C     C_1   0.749970 0.498415 0.502393 0.110161
C28   C     C_3   0.085036 0.480560 0.499305 -0.139296
C29   C     C_3   0.959952 0.625849 0.479335 0.295350
C30   C     C_3   0.058365 0.621520 0.500576 0.262282
C31   C     C_1   0.825516 0.494370 0.503395 0.140331
C32   C     C_1   0.176839 0.477961 0.496758 0.103526
C33   C     C_1   0.251881 0.484262 0.497418 0.149140
C34   C     C_R   0.657956 0.119514 0.565324 0.166924
Cl1   Cl    Cl    0.894036 0.291487 0.701224 -0.331742
Cl2   Cl    Cl    0.934732 0.689968 0.311501 -0.311847
Cl3   Cl    Cl    0.332345 0.143791 0.493374 -0.390292
Cl4   Cl    Cl    0.377377 0.318355 0.156669 -0.412870
Cl5   Cl    Cl    0.070310 0.240908 0.615466 -0.311951
Cl6   Cl    Cl    0.776714 0.746971 0.849982 -0.332861
Cl7   Cl    Cl    0.582422 0.808757 0.808747 -0.478439
Cl8   Cl    Cl    0.915283 0.243560 0.398304 -0.391244
Cl9   Cl    Cl    0.893743 0.436473 0.215571 -0.295407
Cu1   Cu    Cu3+1 0.499990 0.499990 0.640660 1.102981
Cu2   Cu    Cu3+1 0.500010 0.500010 0.359340 1.126178
H1    H     H_    0.791634 0.101425 0.569851 0.242512
H2    H     H_    0.786673 0.894783 0.469833 0.221050
H3    H     H_    0.653987 0.779005 0.447950 0.138183
H4    H     H_    0.406136 0.360586 0.871680 0.177572
H5    H     H_    0.069407 0.319946 0.363917 0.233940
N1    N     N_R   0.500800 0.501210 0.147910 -0.238142
N2    N     N_R   0.500820 0.501290 0.852040 -0.264445
O1    O     O_R   0.499990 0.319640 0.618810 -0.475705
O2    O     O_R   0.500000 0.319660 0.381240 -0.444433
O3    O     O_R   0.379430 0.499990 0.618840 -0.493022
O4    O     O_R   0.379440 0.500020 0.381260 -0.440493
O5    O     O_R   0.500000 0.680340 0.618760 -0.447627
O6    O     O_R   0.500010 0.680360 0.381190 -0.486365
O7    O     O_R   0.620560 0.499980 0.618740 -0.480149
O8    O     O_R   0.620570 0.500010 0.381160 -0.515394

loop_
_geom_bond_atom_site_label_1
_geom_bond_atom_site_label_2
_ccdc_geom_bond_type
C11   C16   S    
C1    C8    S    
C23   C26   S    
C6    C11   A    
C26   Cl9   S    
C15   C17   A    
Br4   C34   S    
C9    C10   A    
C26   Cl8   S    
C13   C14   A    
C16   O6    A    
Cu2   O2    S    
Cu2   O4    S    
C7    C8    A    
C4    O4    A    
C7    C34   A    
C23   C31   S    
C2    C34   A    
Cu1   O3    S    
C23   C29   S    
C22   C27   S    
C14   C15   A    
C28   C30   S    
C21   N2    A    
C2    H1    S    
Cu1   O7    S    
C29   Cl2   S    
Br6   C13   S    
Cu2   N1    S    
C20   Cl4   S    
C18   C19   A    
C4    O3    A    
C17   Cl7   S    
Br1   C24   S    
C28   C32   S    
C1    O1    A    
C3    C5    A    
C27   C31   T    
C20   C21   A    
C12   C24   S    
C5    H3    S    
C19   N1    A    
C20   N1    A    
Cu2   O8    S    
C3    H2    S    
C32   C33   T    
C16   O5    A    
C5    C6    A    
C25   H5    S    
C13   C19   A    
C17   C18   A    
C25   C28   S    
C12   Cl1   S    
C2    C3    A    
Br10  C30   S    
C1    O2    A    
Cu1   O1    S    
C9    Cl3   S    
C21   H4    S    
C29   C30   S    
Br5   C10   S    
C12   C23   S    
Cu2   O6    S    
Cu1   Cu2   S    
C8    C9    A    
C24   Cl5   S    
C22   O8    A    
Cu1   O5    S    
Cu1   N2    S    
C10   C11   A    
C24   C28   S    
C22   O7    A    
Br2   C29   S    
Br8   C25   S    
Br9   C30   S    
C15   Cl6   S    
Br7   C14   S    
C6    C7    A    
C4    C33   S    
Br3   C12   S    
C25   C26   S    
C18   N2    A    
