data_mof_unit_14966.cif
_audit_creation_date              2012-10-26T19:53:27-0400
_audit_creation_method            fapswitch 2.2
_symmetry_space_group_name_H-M    P1
_symmetry_Int_Tables_number       1
_space_group_crystal_system       triclinic
_cell_length_a                    9.296589
_cell_length_b                    7.994766
_cell_length_c                    10.712022
_cell_angle_alpha                 89.451941
_cell_angle_beta                  90.120618
_cell_angle_gamma                 88.985093
_cell_volume                      795.997519224

loop_
_atom_site_label
_atom_site_type_symbol
_atom_type_description
_atom_site_fract_x
_atom_site_fract_y
_atom_site_fract_z
_atom_type_partial_charge
C1    C     C_R   0.220503 0.500892 0.499377 0.590785
C2    C     C_3   0.629921 0.544971 0.045777 0.123868
C3    C     C_3   0.512082 0.498645 0.877114 -0.083110
C4    C     C_3   0.496478 0.497879 0.122037 -0.067692
C5    C     C_1   0.065117 0.501162 0.499358 0.104456
C6    C     C_1   0.934871 0.498812 0.499656 0.101206
C7    C     C_R   0.779501 0.499101 0.500033 0.582821
C8    C     C_R   0.496324 0.500072 0.259520 0.606342
C9    C     C_R   0.507401 0.499417 0.740073 0.613895
C10   C     C_3   0.399458 0.604654 0.036329 0.112575
C11   C     C_3   0.609990 0.390113 0.962663 0.114093
C12   C     C_3   0.533050 0.652427 0.958888 0.150021
C13   C     C_3   0.473960 0.342565 0.040561 0.127640
C14   C     C_3   0.379481 0.451463 0.952866 0.145836
Cu1   Cu    Cu3+1 0.500000 0.669080 0.500000 1.266038
Cu2   Cu    Cu3+1 0.500000 0.330920 0.500000 1.277090
H1    H     H_    0.037373 0.443813 0.990934 0.431795
H2    H     H_    0.886196 0.656494 0.945162 0.384002
H3    H     H_    0.215813 0.795783 0.908557 0.376799
H4    H     H_    0.914930 0.097501 0.948338 0.425301
H5    H     H_    0.621910 0.053397 0.004535 0.412079
H6    H     H_    0.222032 0.073919 0.000797 0.430220
N1    N     N_1   0.500000 0.076820 0.500000 -0.012290
N2    N     N_1   0.500000 0.923180 0.500000 -0.014419
O1    O     O_R   0.288390 0.642760 0.500000 -0.497443
O2    O     O_2   0.246315 0.243417 0.792781 -0.207412
O3    O     O_3   0.098141 0.342830 0.982861 -0.418043
O4    O     O_2   0.752587 0.726991 0.228514 -0.183832
O5    O     O_2   0.867512 0.458822 0.178181 -0.224790
O6    O     O_3   0.895296 0.712955 0.025943 -0.359010
O7    O     O_2   0.155881 0.580663 0.166379 -0.202024
O8    O     O_2   0.286320 0.836404 0.192524 -0.151330
O9    O     O_3   0.150008 0.793509 0.981031 -0.440891
O10   O     O_2   0.706492 0.165442 0.792807 -0.205374
O11   O     O_2   0.849227 0.412280 0.820978 -0.283668
O12   O     O_R   0.711610 0.357240 0.500000 -0.490791
O13   O     O_3   0.859751 0.182979 0.995655 -0.410832
O14   O     O_2   0.718501 0.801010 0.803103 -0.236021
O15   O     O_2   0.482462 0.935361 0.826518 -0.214852
O16   O     O_3   0.666325 0.942768 0.013638 -0.384164
O17   O     O_2   0.495395 0.069932 0.194458 -0.202590
O18   O     O_2   0.268107 0.227739 0.193982 -0.202564
O19   O     O_3   0.326455 0.049474 0.001080 -0.431002
O20   O     O_R   0.711610 0.642760 0.500000 -0.481853
O21   O     O_R   0.288390 0.357240 0.500000 -0.480552
O22   O     O_R   0.499960 0.642760 0.316850 -0.452735
O23   O     O_R   0.500040 0.357240 0.683150 -0.444441
O24   O     O_R   0.500040 0.642760 0.683150 -0.470522
O25   O     O_R   0.499960 0.357240 0.316850 -0.465001
O26   O     O_2   0.161847 0.534093 0.793914 -0.310494
S1    S     S_3+6 0.218523 0.392471 0.874150 0.077461
S2    S     S_3+6 0.789665 0.609354 0.124651 0.137111
S3    S     S_3+6 0.245103 0.707404 0.099307 0.135712
S4    S     S_3+6 0.759501 0.286023 0.888105 0.063159
S5    S     S_3+6 0.599406 0.838625 0.893798 0.119251
S6    S     S_3+6 0.391084 0.168145 0.113769 0.120183

loop_
_geom_bond_atom_site_label_1
_geom_bond_atom_site_label_2
_ccdc_geom_bond_type
Cu2   O21   S    
C2    C4    S    
N1    N2    T    
O17   S6    D    
O10   S4    D    
C6    C7    S    
C3    C9    S    
C11   C13   S    
C7    O12   A    
O19   S6    S    
H6    O19   S    
C4    C8    S    
O16   S5    S    
C2    C12   S    
C13   S6    S    
O26   S1    D    
O2    S1    D    
O7    S3    D    
O11   S4    D    
C1    O1    A    
H4    O13   S    
O4    S2    D    
C1    O21   A    
C3    C14   S    
C2    S2    S    
Cu1   O24   S    
C1    C5    S    
O13   S4    S    
C10   C12   S    
Cu2   O23   S    
C11   S4    S    
Cu1   N2    S    
O3    S1    S    
Cu1   O20   S    
C9    O23   A    
Cu2   N1    S    
O9    S3    S    
C5    C6    T    
C8    O22   A    
Cu1   O1    S    
C12   S5    S    
C3    C11   S    
C2    C11   S    
H2    O6    S    
C4    C10   S    
Cu1   Cu2   S    
H1    O3    S    
O8    S3    D    
Cu2   O25   S    
C9    O24   A    
C10   C14   S    
C4    C13   S    
C10   S3    S    
O6    S2    S    
C3    C12   S    
Cu1   O22   S    
O18   S6    D    
C13   C14   S    
C8    O25   A    
C7    O20   A    
Cu2   O12   S    
O14   S5    D    
C14   S1    S    
H3    O9    S    
O15   S5    D    
O5    S2    D    
H5    O16   S    
