data_mof_unit_40457.cif
_audit_creation_date              2013-03-05T16:48:40-0500
_audit_creation_method            fapswitch 2.2
_symmetry_space_group_name_H-M    P1
_symmetry_Int_Tables_number       1
_space_group_crystal_system       triclinic
_cell_length_a                    27.679067
_cell_length_b                    8.912529
_cell_length_c                    8.103182
_cell_angle_alpha                 89.989064
_cell_angle_beta                  89.298239
_cell_angle_gamma                 90.040613
_cell_volume                      1998.82743861

loop_
_atom_site_label
_atom_site_type_symbol
_atom_site_description
_atom_site_fract_x
_atom_site_fract_y
_atom_site_fract_z
_atom_type_partial_charge
O1    O     O_R   0.500000 0.285350 0.636850 -0.617756
O2    O     O_R   0.500000 0.714650 0.363150 -0.617741
O3    O     O_R   0.500000 0.714650 0.636850 -0.611761
O4    O     O_R   0.500000 0.285350 0.363150 -0.611672
C1    C     C_R   0.499997 0.218020 0.500007 0.926214
C2    C     C_R   0.500002 0.781980 0.499993 0.926525
O5    O     O_R   0.428760 0.500000 0.636860 -0.619481
O6    O     O_R   0.571240 0.500000 0.363140 -0.619471
O7    O     O_R   0.571240 0.500000 0.636860 -0.567602
O8    O     O_R   0.428760 0.500000 0.363140 -0.567146
C3    C     C_R   0.405869 0.503020 0.501098 0.923105
C4    C     C_R   0.594126 0.496943 0.498896 0.923535
Zn1   Zn    Zn3+2 0.500000 0.500000 0.682780 1.053935
Zn2   Zn    Zn3+2 0.500000 0.500000 0.317220 1.054134
C5    C     C_R   0.177600 0.398239 0.604990 0.584974
C6    C     C_R   0.822324 0.600514 0.393187 0.585032
C7    C     C_R   0.177303 0.642109 0.483482 0.540058
C8    C     C_R   0.822685 0.356581 0.514538 0.539742
O9    O     O_2   0.203488 0.283132 0.666207 -0.458245
O10   O     O_2   0.796405 0.715699 0.332295 -0.458424
O11   O     O_2   0.202688 0.755097 0.413144 -0.504330
O12   O     O_2   0.797356 0.243637 0.585205 -0.504648
N1    N     N_R   0.201276 0.519455 0.540705 -0.349205
N2    N     N_R   0.798678 0.479351 0.457757 -0.349067
C9    C     C_R   0.279748 0.612669 0.628111 -0.074515
C10   C     C_R   0.720090 0.385814 0.371898 -0.074248
C11   C     C_R   0.275591 0.420733 0.416932 -0.200936
C12   C     C_R   0.724491 0.578893 0.581758 -0.200830
C13   C     C_R   0.329820 0.615090 0.615008 0.359306
C14   C     C_R   0.670028 0.383700 0.385432 0.359148
C15   C     C_R   0.326085 0.417853 0.404053 0.404771
C16   C     C_R   0.674005 0.582076 0.595027 0.404559
C17   C     C_R   0.252754 0.516689 0.529507 0.150423
C18   C     C_R   0.747207 0.482246 0.469592 0.150126
C19   C     C_R   0.101215 0.516358 0.539663 -0.179198
C20   C     C_R   0.898744 0.482175 0.457507 -0.179231
C21   C     C_R   0.126829 0.392550 0.604283 -0.062389
C22   C     C_R   0.873100 0.606073 0.393278 -0.062410
C23   C     C_R   0.126603 0.647192 0.490712 -0.129693
C24   C     C_R   0.873374 0.351343 0.506560 -0.129672
C25   C     C_R   0.101255 0.267361 0.665682 0.524707
C26   C     C_R   0.898651 0.731229 0.331686 0.525048
C27   C     C_R   0.100421 0.776479 0.445475 0.478857
C28   C     C_R   0.899574 0.221903 0.551152 0.478987
C29   C     C_R   0.353317 0.513911 0.505009 -0.217531
C30   C     C_R   0.646661 0.485623 0.494904 -0.217299
H1    H     H_    0.253860 0.347938 0.340618 0.171003
H2    H     H_    0.746309 0.652034 0.657388 0.171233
H3    H     H_    0.261517 0.688210 0.713087 0.187590
H4    H     H_    0.738219 0.309747 0.287238 0.187736
C31   C     C_R   0.974872 0.365533 0.541203 0.001471
C32   C     C_R   0.025114 0.632855 0.455299 0.001493
C33   C     C_R   0.974740 0.621533 0.427158 0.041935
C34   C     C_R   0.025226 0.376913 0.569531 0.042021
C35   C     C_R   0.949620 0.489661 0.474894 0.076544
C36   C     C_R   0.050351 0.508792 0.521861 0.076605
C37   C     C_R   0.949185 0.230991 0.570218 -0.227957
C38   C     C_R   0.050827 0.767301 0.425967 -0.228009
C39   C     C_R   0.948853 0.736665 0.347684 -0.319084
C40   C     C_R   0.051069 0.261866 0.649292 -0.319186
H5    H     H_    0.966834 0.127175 0.601037 0.167983
H6    H     H_    0.033218 0.871026 0.394566 0.168030
H7    H     H_    0.966857 0.831902 0.293200 0.138559
H8    H     H_    0.033027 0.166699 0.703798 0.138669
C41   C     C_1   0.500001 0.065234 0.500008 -0.147856
C42   C     C_1   0.500000 0.934766 0.499991 -0.147820
N3    N     N_1   0.500000 0.500000 0.073640 -0.004230
N4    N     N_1   0.500000 0.500000 0.926360 -0.004285
O13   O     O_3   0.349494 0.319966 0.297731 -0.724167
H9    H     H_    0.325089 0.260634 0.237260 0.353668
O14   O     O_3   0.650709 0.680656 0.700846 -0.724310
H10   H     H_    0.675184 0.740303 0.760635 0.353779
O15   O     O_3   0.354034 0.719119 0.709546 -0.714648
H11   H     H_    0.385855 0.740663 0.657819 0.335251
O16   O     O_3   0.645691 0.279286 0.291757 -0.714769
H12   H     H_    0.613839 0.258458 0.343611 0.335074
O17   O     O_3   0.125583 0.151585 0.742354 -0.696721
H13   H     H_    0.102438 0.071980 0.776045 0.329170
O18   O     O_3   0.874282 0.847047 0.255246 -0.696725
H14   H     H_    0.897416 0.926592 0.221297 0.329253
O19   O     O_3   0.121508 0.915268 0.423173 -0.709550
H15   H     H_    0.145446 0.928994 0.511818 0.386543
O20   O     O_3   0.878488 0.083084 0.573255 -0.709679
H16   H     H_    0.854378 0.069747 0.485094 0.386702

loop_
_geom_bond_atom_site_label_1
_geom_bond_atom_site_label_2
_geom_bond_distance
_ccdc_geom_bond_type
C38   H6    1.077271 S    
O15   H11   0.989429 S    
C28   O20   1.378328 S    
O19   H15   0.990727 S    
C33   C39   1.411789 A    
C34   C40   1.411690 A    
O17   H13   0.991610 S    
C11   C17   1.396440 A    
O5    C3    1.276513 A    
C7    N1    1.363338 A    
O1    C1    1.260925 A    
C19   C21   1.415758 A    
C22   C26   1.408386 A    
C10   H4    1.083633 S    
C25   O17   1.383887 S    
C13   O15   1.381182 S    
C7    C23   1.404591 A    
O7    Zn1   2.002172 S    
C5    C21   1.406271 A    
C20   C24   1.415132 A    
C8    C24   1.404526 A    
C27   C38   1.386051 A    
C5    O9    1.349646 S    
C10   C18   1.393769 A    
N1    C17   1.426862 S    
Zn2   N3    1.973773 S    
C31   C37   1.411815 A    
C24   C28   1.412383 A    
O3    Zn1   1.948870 S    
C6    O10   1.349639 S    
O3    C2    1.260818 A    
C5    N1    1.363211 A    
C12   C18   1.396575 A    
C26   O18   1.383873 S    
C6    N2    1.363316 A    
C21   C25   1.408383 A    
O2    C2    1.260925 A    
C16   O14   1.382217 S    
C9    H3    1.083609 S    
C33   C35   1.416511 A    
C9    C13   1.388843 A    
C34   C36   1.416490 A    
C11   C15   1.400483 A    
N3    N4    1.193436 T    
C12   C16   1.400544 A    
C4    C30   1.457659 S    
O8    Zn2   2.002175 S    
C23   C27   1.412383 A    
N2    C18   1.426979 S    
C13   C29   1.420424 A    
C19   C23   1.415162 A    
O16   H12   0.989425 S    
C15   O13   1.382249 S    
O20   H16   0.990676 S    
C2    C42   1.361713 S    
C28   C37   1.386031 A    
O6    C4    1.276406 A    
C32   C38   1.411868 A    
C1    C41   1.361712 S    
C10   C14   1.388785 A    
C27   O19   1.378306 S    
C8    N2    1.363388 A    
C3    C29   1.457854 S    
O1    Zn1   1.949011 S    
C32   C33   1.419105 A    
C11   H1    1.083440 S    
C12   H2    1.083454 S    
O6    Zn2   2.011129 S    
C19   C36   1.418537 A    
C8    O12   1.349684 S    
C16   C30   1.408696 A    
C14   C30   1.420378 A    
C25   C40   1.397874 A    
O4    C1    1.260818 A    
C26   C39   1.397976 A    
C37   H5    1.077343 S    
C39   H7    1.075900 S    
C40   H8    1.075975 S    
C31   C34   1.418883 A    
C20   C22   1.415625 A    
O14   H10   0.991913 S    
C20   C35   1.418476 A    
C14   O16   1.381244 S    
C31   C35   1.418152 A    
O4    Zn2   1.948871 S    
O13   H9    0.991847 S    
O2    Zn2   1.949010 S    
O7    C4    1.278475 A    
C7    O11   1.349661 S    
O8    C3    1.278492 A    
O18   H14   0.991608 S    
O5    Zn1   2.011131 S    
C41   C42   1.162801 T    
C15   C29   1.408831 A    
C9    C17   1.393713 A    
C32   C36   1.418299 A    
C6    C22   1.406288 A    
Zn1   N4    1.973773 S    
