data_mof_unit_49412.cif
_audit_creation_date              2012-12-11T14:28:35-0500
_audit_creation_method            fapswitch 2.2
_symmetry_space_group_name_H-M    P1
_symmetry_Int_Tables_number       1
_space_group_crystal_system       triclinic
_cell_length_a                    11.015009
_cell_length_b                    19.564069
_cell_length_c                    18.678424
_cell_angle_alpha                 89.966795
_cell_angle_beta                  89.59297
_cell_angle_gamma                 90.093438
_cell_volume                      4025.06278954

loop_
_atom_site_label
_atom_site_type_symbol
_atom_type_description
_atom_site_fract_x
_atom_site_fract_y
_atom_site_fract_z
_atom_type_partial_charge
C1    C     C_R   0.315563 0.937275 0.637415 0.515973
C2    C     C_R   0.315713 0.939400 0.862762 0.511644
C3    C     C_R   0.314769 0.062342 0.362579 0.515659
C4    C     C_R   0.316538 0.063614 0.137591 0.523367
C5    C     C_R   0.817860 0.438554 0.637498 0.520124
C6    C     C_R   0.815711 0.439396 0.862762 0.512309
C7    C     C_R   0.817211 0.561781 0.362477 0.523308
C8    C     C_R   0.816536 0.563615 0.137590 0.525084
C9    C     C_3   0.210032 0.751282 0.448879 -0.033032
C10   C     C_3   0.213699 0.753637 0.051318 -0.031307
C11   C     C_3   0.210974 0.247966 0.550884 -0.031793
C12   C     C_3   0.193542 0.288986 0.963127 -0.017085
C13   C     C_3   0.693794 0.212120 0.463039 -0.020114
C14   C     C_3   0.713648 0.253612 0.051302 -0.029753
C15   C     C_3   0.689043 0.789269 0.533861 -0.018794
C16   C     C_3   0.693492 0.789014 0.963152 -0.017406
C17   C     C_3   0.077018 0.744007 0.429131 0.033659
C18   C     C_3   0.080232 0.744898 0.070848 0.032792
C19   C     C_3   0.078106 0.257152 0.570823 0.033764
C20   C     C_3   0.086905 0.253953 0.925357 0.043073
C21   C     C_3   0.585712 0.245953 0.425697 0.041607
C22   C     C_3   0.580177 0.244869 0.070825 0.033017
C23   C     C_3   0.585686 0.753204 0.574244 0.041938
C24   C     C_3   0.586885 0.753964 0.925369 0.043531
C25   C     C_R   0.316127 0.038421 0.436984 -0.045448
C26   C     C_R   0.322783 0.043515 0.061655 -0.041406
C27   C     C_R   0.317632 0.960008 0.562411 -0.049223
C28   C     C_R   0.320690 0.965836 0.935820 -0.042728
C29   C     C_R   0.828156 0.538200 0.436525 -0.034569
C30   C     C_R   0.822773 0.543517 0.061652 -0.041130
C31   C     C_R   0.829152 0.462174 0.563381 -0.035843
C32   C     C_R   0.820682 0.465827 0.935824 -0.042966
C33   C     C_R   0.538646 0.047435 0.444627 -0.066924
C34   C     C_R   0.547929 0.045714 0.055493 -0.081285
C35   C     C_R   0.541084 0.951104 0.550223 -0.065455
C36   C     C_R   0.546878 0.961081 0.940109 -0.085917
C37   C     C_R   0.055760 0.535262 0.435590 -0.098247
C38   C     C_R   0.047915 0.545734 0.055475 -0.081692
C39   C     C_R   0.056064 0.465501 0.562173 -0.100459
C40   C     C_R   0.046863 0.461073 0.940114 -0.087510
C41   C     C_R   0.647824 0.019680 0.464745 -0.107596
C42   C     C_R   0.655315 0.029303 0.022270 -0.106127
C43   C     C_R   0.649171 0.971870 0.518262 -0.108333
C44   C     C_R   0.655231 0.988077 0.963183 -0.105291
C45   C     C_R   0.162954 0.514548 0.464499 -0.100004
C46   C     C_R   0.155301 0.529326 0.022245 -0.105851
C47   C     C_R   0.163140 0.482989 0.529786 -0.098331
C48   C     C_R   0.155216 0.488081 0.963171 -0.106246
C49   C     C_R   0.428164 0.977383 0.528418 0.016965
C50   C     C_R   0.433360 0.983415 0.967500 0.008717
C51   C     C_R   0.427020 0.021876 0.469884 0.016502
C52   C     C_R   0.434164 0.024474 0.029061 0.011470
C53   C     C_R   0.941888 0.482262 0.532184 0.000781
C54   C     C_R   0.933347 0.483412 0.967501 0.008419
C55   C     C_R   0.941546 0.518841 0.466961 0.001932
C56   C     C_R   0.934152 0.524480 0.029055 0.011650
C57   C     C_R   0.205131 0.976942 0.529473 0.010634
C58   C     C_R   0.209540 0.983455 0.970208 0.007083
C59   C     C_R   0.204255 0.021117 0.470994 0.013366
C60   C     C_R   0.211929 0.029464 0.026752 0.008956
C61   C     C_R   0.720582 0.475567 0.527394 0.007278
C62   C     C_R   0.709533 0.483445 0.970211 0.006547
C63   C     C_R   0.719596 0.523210 0.472888 0.007682
C64   C     C_R   0.711917 0.529457 0.026754 0.008576
C65   C     C_R   0.091431 0.952007 0.554810 -0.068463
C66   C     C_R   0.095296 0.953340 0.952750 -0.070400
C67   C     C_R   0.090933 0.050336 0.451165 -0.069862
C68   C     C_R   0.100258 0.054804 0.052380 -0.083192
C69   C     C_R   0.609890 0.445597 0.547861 -0.094113
C70   C     C_R   0.595293 0.453327 0.952753 -0.070917
C71   C     C_R   0.607254 0.551324 0.453181 -0.095005
C72   C     C_R   0.600243 0.554794 0.052382 -0.083258
C73   C     C_R   0.985325 0.985709 0.539851 -0.123046
C74   C     C_R   0.990080 0.970501 0.989796 -0.104669
C75   C     C_R   0.984979 0.035003 0.488041 -0.136765
C76   C     C_R   0.992914 0.021996 0.039382 -0.099520
C77   C     C_R   0.501214 0.471025 0.525406 -0.079445
C78   C     C_R   0.490071 0.470483 0.989801 -0.104936
C79   C     C_R   0.499722 0.525303 0.478654 -0.081739
C80   C     C_R   0.492900 0.521980 0.039385 -0.099856
C81   C     C_R   0.184723 0.771109 0.636442 0.523506
C82   C     C_R   0.187467 0.772217 0.862848 0.528412
C83   C     C_R   0.185549 0.228564 0.363268 0.528366
C84   C     C_R   0.177163 0.230573 0.135803 0.537090
C85   C     C_R   0.677162 0.269548 0.635838 0.536506
C86   C     C_R   0.687460 0.272213 0.862846 0.530919
C87   C     C_R   0.675584 0.730387 0.363950 0.542952
C88   C     C_R   0.677134 0.730580 0.135806 0.539523
C89   C     C_R   0.544802 0.769460 0.646312 0.535033
C90   C     C_R   0.544791 0.769514 0.853583 0.538059
C91   C     C_R   0.544283 0.230367 0.353777 0.542762
C92   C     C_R   0.536307 0.227394 0.142419 0.536388
C93   C     C_R   0.035427 0.273160 0.642372 0.542912
C94   C     C_R   0.044807 0.269508 0.853573 0.547284
C95   C     C_R   0.035571 0.727306 0.357473 0.547595
C96   C     C_R   0.036353 0.727413 0.142437 0.542180
C97   C     C_3   0.041864 0.805477 0.475093 -0.110680
C98   C     C_3   0.045633 0.807054 0.026374 -0.114236
C99   C     C_3   0.040653 0.196194 0.525592 -0.115031
C100  C     C_3   0.116521 0.185175 0.959170 -0.119393
C101  C     C_3   0.613776 0.314961 0.459231 -0.122246
C102  C     C_3   0.545577 0.307024 0.026349 -0.115016
C103  C     C_3   0.617044 0.684363 0.541052 -0.123589
C104  C     C_3   0.616527 0.685188 0.959182 -0.120128
C105  C     C_3   0.177345 0.813447 0.495712 -0.174939
C106  C     C_3   0.181330 0.816327 0.005409 -0.172294
C107  C     C_3   0.176003 0.186159 0.504522 -0.172793
C108  C     C_3   0.225109 0.219601 0.997684 -0.176529
C109  C     C_3   0.723676 0.281802 0.497434 -0.176024
C110  C     C_3   0.681279 0.316304 0.005397 -0.173136
C111  C     C_3   0.722483 0.719967 0.500061 -0.174061
C112  C     C_3   0.725086 0.719632 0.997705 -0.177621
C113  C     C_3   0.155306 0.764298 0.559459 0.010346
C114  C     C_3   0.161616 0.767844 0.940732 0.005602
C115  C     C_3   0.156995 0.235244 0.440538 0.008925
C116  C     C_3   0.139285 0.237877 0.060431 0.020437
C117  C     C_3   0.638959 0.262490 0.560497 0.022126
C118  C     C_3   0.661585 0.267823 0.940719 0.004183
C119  C     C_3   0.634418 0.736399 0.438743 0.024126
C120  C     C_3   0.639237 0.737889 0.060445 0.019734
C121  C     C_3   0.022129 0.755881 0.539148 -0.111820
C122  C     C_3   0.028185 0.758937 0.961475 -0.115107
C123  C     C_3   0.023939 0.245561 0.461438 -0.114896
C124  C     C_3   0.031741 0.203752 0.022894 -0.105536
C125  C     C_3   0.530057 0.295571 0.523267 -0.105681
C126  C     C_3   0.528151 0.258905 0.961448 -0.114229
C127  C     C_3   0.529681 0.700666 0.478565 -0.107063
C128  C     C_3   0.531723 0.703748 0.022899 -0.104936
C129  C     C_3   0.056386 0.694351 0.492275 -0.151204
C130  C     C_3   0.061956 0.696597 0.006574 -0.154730
C131  C     C_3   0.060487 0.306830 0.507703 -0.148965
C132  C     C_3   0.001855 0.272788 0.987647 -0.127071
C133  C     C_3   0.501559 0.226265 0.488252 -0.128604
C134  C     C_3   0.561923 0.196566 0.006549 -0.153841
C135  C     C_3   0.497413 0.769421 0.513431 -0.128837
C136  C     C_3   0.501812 0.772781 0.987653 -0.125945
C137  C     C_3   0.189792 0.702798 0.512492 -0.001146
C138  C     C_3   0.196073 0.706074 0.986673 -0.000764
C139  C     C_3   0.193911 0.296503 0.487090 0.000801
C140  C     C_3   0.108693 0.306691 0.025562 -0.013760
C141  C     C_3   0.609795 0.193392 0.525848 -0.016877
C142  C     C_3   0.696040 0.206051 0.986656 -0.000592
C143  C     C_3   0.600537 0.804948 0.472615 -0.022089
C144  C     C_3   0.608617 0.806702 0.025582 -0.014711
Cr1   Cr    Cr6+3 0.488160 0.884660 0.750000 1.037956
Cr2   Cr    Cr6+3 0.488160 0.115340 0.250000 1.035288
Cr3   Cr    Cr6+3 0.988160 0.384660 0.750000 1.012167
Cr4   Cr    Cr6+3 0.988160 0.615340 0.250000 1.010652
Cr5   Cr    Cr6+3 0.173480 0.883120 0.750000 1.044072
Cr6   Cr    Cr6+3 0.173480 0.116880 0.250000 1.035199
Cr7   Cr    Cr6+3 0.673480 0.383120 0.750000 1.039455
Cr8   Cr    Cr6+3 0.673480 0.616880 0.250000 1.024596
Cr9   Cr    Cr6+3 0.333410 0.727260 0.750000 1.063083
Cr10  Cr    Cr6+3 0.333410 0.272740 0.250000 1.055386
Cr11  Cr    Cr6+3 0.833410 0.227260 0.750000 1.062493
Cr12  Cr    Cr6+3 0.833410 0.772740 0.250000 1.053826
H1    H     H_    0.979415 0.847037 0.458748 0.148084
H2    H     H_    0.979971 0.845611 0.045940 0.139206
H3    H     H_    0.973822 0.158212 0.545315 0.142284
H4    H     H_    0.119160 0.136435 0.928853 0.163231
H5    H     H_    0.614873 0.363435 0.428358 0.162483
H6    H     H_    0.479900 0.345577 0.045907 0.139187
H7    H     H_    0.623415 0.636234 0.572258 0.157373
H8    H     H_    0.619199 0.636450 0.928865 0.161607
H9    H     H_    0.950830 0.750718 0.580552 0.164407
H10   H     H_    0.956368 0.755514 0.920818 0.163466
H11   H     H_    0.952999 0.250753 0.420463 0.165555
H12   H     H_    0.963483 0.170799 0.049466 0.134544
H13   H     H_    0.462073 0.328388 0.549983 0.129899
H14   H     H_    0.456359 0.255464 0.920774 0.166521
H15   H     H_    0.461400 0.667219 0.453390 0.127121
H16   H     H_    0.463472 0.670790 0.049469 0.133224
H17   H     H_    0.000870 0.647686 0.493457 0.111005
H18   H     H_    0.001798 0.652764 0.998700 0.108585
H19   H     H_    0.005629 0.353535 0.506039 0.112793
H20   H     H_    0.913589 0.297331 0.978081 0.086044
H21   H     H_    0.413280 0.201213 0.479295 0.082473
H22   H     H_    0.501793 0.152722 0.998663 0.109292
H23   H     H_    0.407726 0.791851 0.524739 0.083662
H24   H     H_    0.413552 0.797316 0.978062 0.085845
H25   H     H_    0.729981 0.034397 0.437810 0.136702
H26   H     H_    0.737327 0.049786 0.043202 0.117894
H27   H     H_    0.733000 0.949071 0.532155 0.125782
H28   H     H_    0.738477 0.975711 0.935952 0.154571
H29   H     H_    0.244550 0.524985 0.435355 0.126032
H30   H     H_    0.237315 0.549812 0.043172 0.117299
H31   H     H_    0.244886 0.469802 0.556109 0.127219
H32   H     H_    0.238460 0.475700 0.935942 0.153605
H33   H     H_    0.543042 0.090587 0.411444 0.169481
H34   H     H_    0.558600 0.081023 0.097186 0.181692
H35   H     H_    0.546726 0.910102 0.586582 0.170744
H36   H     H_    0.556529 0.920395 0.903576 0.183424
H37   H     H_    0.071065 0.568554 0.391829 0.186414
H38   H     H_    0.058577 0.581043 0.097167 0.181632
H39   H     H_    0.071030 0.432654 0.606370 0.184984
H40   H     H_    0.056502 0.420371 0.903599 0.183658
O1    O     O_R   0.575450 0.828820 0.667950 -0.532968
O2    O     O_R   0.575450 0.828820 0.832050 -0.537009
O3    O     O_R   0.575450 0.171180 0.332050 -0.535138
O4    O     O_R   0.575450 0.171180 0.167950 -0.543794
O5    O     O_R   0.075450 0.328820 0.667950 -0.541525
O6    O     O_R   0.075450 0.328820 0.832050 -0.536319
O7    O     O_R   0.075450 0.671180 0.332050 -0.543809
O8    O     O_R   0.075450 0.671180 0.167950 -0.544477
O9    O     O_R   0.416860 0.942890 0.674680 -0.474122
O10   O     O_R   0.416860 0.942890 0.825320 -0.491751
O11   O     O_R   0.416860 0.057110 0.325320 -0.473134
O12   O     O_R   0.416860 0.057110 0.174680 -0.481513
O13   O     O_R   0.916860 0.442890 0.674680 -0.504221
O14   O     O_R   0.916860 0.442890 0.825320 -0.495888
O15   O     O_R   0.916860 0.557110 0.325320 -0.501447
O16   O     O_R   0.916860 0.557110 0.174680 -0.484838
O17   O     O_R   0.213790 0.953680 0.668330 -0.502140
O18   O     O_R   0.213790 0.953680 0.831670 -0.501128
O19   O     O_R   0.213790 0.046320 0.331670 -0.500731
O20   O     O_R   0.213790 0.046320 0.168330 -0.501040
O21   O     O_R   0.713790 0.453680 0.668330 -0.502325
O22   O     O_R   0.713790 0.453680 0.831670 -0.503396
O23   O     O_R   0.713790 0.546320 0.331670 -0.502696
O24   O     O_R   0.713790 0.546320 0.168330 -0.503282
O25   O     O_R   0.121360 0.817890 0.672660 -0.509120
O26   O     O_R   0.121360 0.817890 0.827340 -0.504170
O27   O     O_R   0.121360 0.182110 0.327340 -0.502734
O28   O     O_R   0.121360 0.182110 0.172660 -0.513178
O29   O     O_R   0.621360 0.317890 0.672660 -0.508652
O30   O     O_R   0.621360 0.317890 0.827340 -0.500463
O31   O     O_R   0.621360 0.682110 0.327340 -0.506829
O32   O     O_R   0.621360 0.682110 0.172660 -0.512277
O33   O     O_R   0.206850 0.711370 0.665820 -0.475036
O34   O     O_R   0.206850 0.711370 0.834180 -0.475646
O35   O     O_R   0.206850 0.288630 0.334180 -0.470117
O36   O     O_R   0.206850 0.288630 0.165820 -0.480483
O37   O     O_R   0.706850 0.211370 0.665820 -0.480564
O38   O     O_R   0.706850 0.211370 0.834180 -0.469467
O39   O     O_R   0.706850 0.788630 0.334180 -0.478462
O40   O     O_R   0.706850 0.788630 0.165820 -0.476160
O41   O     O_R   0.457710 0.733190 0.672630 -0.506006
O42   O     O_R   0.457710 0.733190 0.827370 -0.505091
O43   O     O_R   0.457710 0.266810 0.327370 -0.503527
O44   O     O_R   0.457710 0.266810 0.172630 -0.515960
O45   O     O_R   0.957710 0.233190 0.672630 -0.515920
O46   O     O_R   0.957710 0.233190 0.827370 -0.502383
O47   O     O_R   0.957710 0.766810 0.327370 -0.511666
O48   O     O_R   0.957710 0.766810 0.172630 -0.512718
O49   O     O_3   0.331690 0.831680 0.750000 -0.361624
O50   O     O_3   0.331690 0.168320 0.250000 -0.360904
O51   O     O_3   0.831690 0.331680 0.750000 -0.354703
O52   O     O_3   0.831690 0.668320 0.250000 -0.352053
H41   H     H_    0.238460 0.857381 0.490852 0.113052
H42   H     H_    0.240727 0.861189 0.010208 0.114794
H43   H     H_    0.235356 0.141596 0.509466 0.113130
H44   H     H_    0.314409 0.195794 0.005574 0.089826
H45   H     H_    0.812260 0.306990 0.504843 0.091664
H46   H     H_    0.740672 0.361168 0.010198 0.114875
H47   H     H_    0.812543 0.697337 0.490390 0.089986
H48   H     H_    0.814404 0.695850 0.005605 0.089564
H49   H     H_    0.905580 0.976178 0.571406 0.148534
H50   H     H_    0.907915 0.942172 0.982688 0.127172
H51   H     H_    0.903873 0.063476 0.479284 0.128201
H52   H     H_    0.915263 0.034988 0.071367 0.109503
H53   H     H_    0.421307 0.447373 0.545632 0.118126
H54   H     H_    0.407905 0.442146 0.982690 0.127201
H55   H     H_    0.417911 0.547981 0.460790 0.121087
H56   H     H_    0.415242 0.534969 0.071366 0.107895
C145  C     C_1   0.267994 0.648958 0.540846 0.215342
N1    N     N_1   0.328781 0.607916 0.566881 -0.313165
C146  C     C_1   0.280385 0.654197 0.959267 0.209310
N2    N     N_1   0.346503 0.614147 0.935502 -0.303858
C147  C     C_1   0.275680 0.349145 0.458743 0.213456
N3    N     N_1   0.339301 0.389419 0.433036 -0.317670
C148  C     C_1   0.092348 0.366571 0.071499 0.242788
N4    N     N_1   0.078779 0.410932 0.111550 -0.244049
C149  C     C_1   0.595334 0.133410 0.572254 0.241182
N5    N     N_1   0.583311 0.088566 0.612045 -0.236895
C150  C     C_1   0.780358 0.154175 0.959257 0.209584
N6    N     N_1   0.846481 0.114126 0.935500 -0.303052
C151  C     C_1   0.570215 0.860909 0.423425 0.242467
N7    N     N_1   0.544762 0.902444 0.382065 -0.221954
C152  C     C_1   0.592188 0.866561 0.071542 0.242658
N8    N     N_1   0.578547 0.910902 0.111609 -0.235906
C153  C     C_1   0.301780 0.751432 0.391425 0.192466
N9    N     N_1   0.372219 0.751907 0.345194 -0.218989
C154  C     C_1   0.303521 0.754369 0.109084 0.190914
N10   N     N_1   0.372555 0.755451 0.155465 -0.218614
C155  C     C_1   0.300991 0.245667 0.608514 0.190671
N11   N     N_1   0.370170 0.243325 0.654769 -0.235675
C156  C     C_1   0.275624 0.333011 0.921576 0.168581
N12   N     N_1   0.338790 0.366185 0.885980 -0.317779
C157  C     C_1   0.776587 0.170286 0.419720 0.167721
N13   N     N_1   0.840017 0.139055 0.382510 -0.312134
C158  C     C_1   0.803470 0.254330 0.109073 0.190440
N14   N     N_1   0.872501 0.255400 0.155468 -0.234671
C159  C     C_1   0.773930 0.830728 0.575240 0.169751
N15   N     N_1   0.839480 0.861795 0.610772 -0.322223
C160  C     C_1   0.775581 0.833040 0.921608 0.166130
N16   N     N_1   0.838751 0.866215 0.886015 -0.315488
H57   H     H_    0.083827 0.091166 0.413070 0.181102
H58   H     H_    0.095663 0.096092 0.089081 0.157963
H59   H     H_    0.083120 0.909032 0.590187 0.182709
H60   H     H_    0.086917 0.911158 0.916261 0.177709
H61   H     H_    0.601144 0.593404 0.417112 0.152754
H62   H     H_    0.595644 0.596083 0.089083 0.157803
H63   H     H_    0.606142 0.402960 0.583161 0.153745
H64   H     H_    0.586919 0.411147 0.916263 0.177664

loop_
_geom_bond_atom_site_label_1
_geom_bond_atom_site_label_2
_ccdc_geom_bond_type
C6    C32   S    
C7    C29   S    
C119  C143  S    
Cr6   O27   S    
C158  N14   T    
C120  C144  S    
C110  C118  S    
C130  H18   S    
C76   H52   S    
C77   H53   S    
C85   O37   A    
C16   C144  S    
C48   H32   S    
Cr4   O16   S    
C12   C156  S    
C110  H46   S    
C73   H49   S    
C57   C59   A    
Cr11  O37   S    
Cr12  O39   S    
C58   C60   A    
C148  N4    T    
C143  C151  S    
C87   O39   A    
C62   C70   A    
C33   H33   S    
C61   C63   A    
C96   O48   A    
C62   C64   A    
C124  H12   S    
C5    O21   A    
Cr10  O50   S    
C49   C51   A    
C34   C42   A    
C50   C52   A    
C23   C89   S    
C125  H13   S    
C97   C105  S    
C81   O33   A    
C41   C43   A    
C129  H17   S    
C42   C44   A    
C20   C132  S    
C21   C133  S    
C4    O12   A    
C45   C47   A    
C111  H47   S    
C46   C48   A    
C115  C123  S    
C90   O42   A    
C16   C160  S    
C27   C57   A    
C57   C65   A    
C112  C120  S    
C19   C99   S    
C29   C55   A    
C68   H58   S    
C100  C124  S    
C37   H37   S    
C139  C147  S    
C104  C128  S    
C34   H34   S    
C12   C20   S    
C13   C21   S    
C46   H30   S    
C85   C117  S    
Cr7   O29   S    
C63   C71   A    
C2    O18   A    
C28   C58   A    
C113  C137  S    
C18   C130  S    
C33   C51   A    
C37   C45   A    
C130  C138  S    
C36   C50   A    
C131  H19   S    
C39   C47   A    
C40   C48   A    
C20   C94   S    
C133  C141  S    
Cr2   O11   S    
C24   C90   S    
C104  H8    S    
C82   O26   A    
C23   C135  S    
C98   C106  S    
Cr1   O49   S    
C3    O11   A    
C106  H42   S    
C33   C41   A    
C21   C101  S    
C45   H29   S    
C81   O25   A    
C65   H59   S    
C94   O6    A    
C43   H27   S    
Cr2   O4    S    
C84   O36   A    
Cr5   O17   S    
C32   C62   A    
Cr11  O46   S    
C129  C137  S    
C126  C134  S    
C5    O13   A    
C10   C138  S    
C3    O19   A    
C142  C150  S    
C14   C142  S    
C4    O20   A    
C99   H3    S    
Cr10  O35   S    
C69   C77   A    
C141  C149  S    
C71   C79   A    
C74   C76   A    
C108  H44   S    
C105  C113  S    
C10   C18   S    
C78   C80   A    
C138  C146  S    
C127  H15   S    
C66   C74   A    
Cr10  O44   S    
C124  C132  S    
C111  C119  S    
C66   H60   S    
C97   C121  S    
Cr12  O48   S    
C59   C67   A    
C35   C49   A    
C101  C125  S    
Cr7   O21   S    
C2    O10   A    
Cr3   O14   S    
C103  C127  S    
C24   C136  S    
C135  C143  S    
C84   C116  S    
C151  N7    T    
C78   H54   S    
Cr9   O33   S    
C96   O8    A    
C74   H50   S    
C23   C103  S    
C100  C108  S    
C9    C153  S    
C83   C115  S    
Cr3   O5    S    
C11   C155  S    
C104  C112  S    
C87   C119  S    
C159  N15   T    
C126  H14   S    
C72   H62   S    
Cr8   O31   S    
C157  N13   T    
Cr6   O19   S    
C15   C143  S    
C75   H51   S    
C40   C54   A    
C10   C106  S    
C85   O29   A    
Cr5   O26   S    
C47   H31   S    
C93   O5    A    
Cr4   O8    S    
Cr6   O50   S    
C92   O44   A    
C35   H35   S    
C69   H63   S    
C36   H36   S    
C70   H64   S    
C102  C126  S    
C7    O15   A    
C146  N2    T    
C30   C56   A    
C68   C76   A    
C113  C121  S    
C121  H9    S    
C140  C148  S    
C14   C22   S    
C83   O27   A    
Cr1   O2    S    
C72   C80   A    
C93   O45   A    
C88   O32   A    
C83   O35   A    
Cr12  O40   S    
C14   C110  S    
C144  C152  S    
C114  C138  S    
C38   C46   A    
C131  C139  S    
C37   C55   A    
C67   C75   A    
C14   C158  S    
C22   C92   S    
C25   C59   A    
C8    O16   A    
C17   C97   S    
C27   C49   A    
C119  C127  S    
C29   C63   A    
C30   C64   A    
C79   H55   S    
C31   C61   A    
C150  N6    T    
C80   H56   S    
C109  C117  S    
C42   H26   S    
C11   C19   S    
C86   O38   A    
Cr9   O42   S    
C127  C135  S    
C128  C136  S    
Cr7   O51   S    
C112  H48   S    
C101  C109  S    
Cr8   O23   S    
C103  C111  S    
C132  H20   S    
C11   C139  S    
C6    O22   A    
C9    C137  S    
C98   H2    S    
Cr9   O49   S    
C152  N8    T    
C12   C140  S    
C17   C95   S    
C13   C141  S    
C88   C120  S    
C19   C93   S    
C77   C79   A    
C82   O34   A    
C147  N3    T    
C67   H57   S    
C41   H25   S    
Cr6   O28   S    
C32   C54   A    
C89   O41   A    
C3    C25   S    
Cr2   O12   S    
Cr12  O52   S    
Cr4   O15   S    
C160  N16   T    
Cr11  O38   S    
C123  C131  S    
Cr1   O9    S    
C38   H38   S    
C10   C154  S    
C117  C141  S    
C155  N11   T    
C134  C142  S    
C156  N12   T    
C20   C100  S    
C102  H6    S    
Cr11  O51   S    
C86   C118  S    
C134  H22   S    
Cr5   O25   S    
C90   O2    A    
Cr11  O45   S    
C22   C134  S    
C87   O31   A    
C84   O28   A    
C102  C110  S    
C89   O1    A    
C16   C112  S    
C12   C108  S    
C21   C91   S    
C91   O3    A    
Cr5   O49   S    
C116  C124  S    
Cr10  O36   S    
C9    C105  S    
C71   H61   S    
C121  C129  S    
C4    C26   S    
C120  C128  S    
C132  C140  S    
C99   C107  S    
Cr2   O50   S    
C34   C52   A    
C107  H43   S    
C8    C30   S    
C108  C116  S    
C105  H41   S    
C136  C144  S    
C133  H21   S    
C39   C53   A    
C39   H39   S    
C109  H45   S    
Cr8   O52   S    
Cr7   O30   S    
C60   C68   A    
C81   C113  S    
Cr3   O13   S    
C95   O7    A    
C13   C157  S    
C122  H10   S    
C70   C78   A    
C18   C96   S    
C106  C114  S    
Cr4   O52   S    
C65   C73   A    
Cr2   O3    S    
Cr5   O18   S    
Cr8   O32   S    
C28   C50   A    
C58   C66   A    
C13   C109  S    
Cr6   O20   S    
C1    O9    A    
C145  N1    T    
C44   H28   S    
C123  H11   S    
C15   C23   S    
Cr3   O51   S    
C16   C24   S    
C137  C145  S    
Cr1   O10   S    
C53   C55   A    
C19   C131  S    
C88   O40   A    
C54   C56   A    
C17   C129  S    
C15   C111  S    
C82   C114  S    
C153  N9    T    
Cr10  O43   S    
C24   C104  S    
C97   H1    S    
C25   C51   A    
Cr1   O1    S    
C8    O24   A    
Cr12  O47   S    
C26   C52   A    
C100  H4    S    
C125  C133  S    
C149  N5    T    
Cr7   O22   S    
C38   C56   A    
C31   C53   A    
C107  C115  S    
C98   C122  S    
C9    C17   S    
C128  H16   S    
C11   C107  S    
C86   O30   A    
Cr9   O34   S    
C73   C75   A    
C154  N10   T    
C35   C43   A    
C99   C123  S    
C40   H40   S    
C61   C69   A    
C15   C159  S    
Cr3   O6    S    
C115  C139  S    
C118  C142  S    
C6    O14   A    
C118  C126  S    
C136  H24   S    
C103  H7    S    
C22   C102  S    
Cr9   O41   S    
C101  H5    S    
C94   O46   A    
C135  H23   S    
C92   O4    A    
C1    O17   A    
C26   C60   A    
Cr8   O24   S    
C64   C72   A    
C36   C44   A    
C7    O23   A    
C114  C122  S    
C91   O43   A    
C1    C27   S    
C2    C28   S    
C18   C98   S    
C5    C31   S    
C117  C125  S    
C122  C130  S    
Cr4   O7    S    
C95   O47   A    
C116  C140  S    
