data_mof_unit_10426.cif
_audit_creation_date              2012-12-11T17:17:08-0500
_audit_creation_method            fapswitch 2.2
_symmetry_space_group_name_H-M    P1
_symmetry_Int_Tables_number       1
_space_group_crystal_system       triclinic
_cell_length_a                    6.941868
_cell_length_b                    13.335676
_cell_length_c                    14.707394
_cell_angle_alpha                 98.862723
_cell_angle_beta                  89.649739
_cell_angle_gamma                 90.335843
_cell_volume                      1345.23162952

loop_
_atom_site_label
_atom_site_type_symbol
_atom_type_description
_atom_site_fract_x
_atom_site_fract_y
_atom_site_fract_z
_atom_type_partial_charge
O1    O     O_R   0.354890 0.151580 0.148210 -0.535890
O2    O     O_R   0.645110 0.848420 0.851790 -0.538382
O3    O     O_R   0.682370 0.152980 0.336770 -0.547520
O4    O     O_R   0.317630 0.847020 0.663230 -0.533097
O5    O     O_R   0.854980 0.348430 0.351800 -0.539113
O6    O     O_R   0.145020 0.651570 0.648200 -0.541949
C1    C     C_R   0.513116 0.130132 0.365231 0.716750
C2    C     C_R   0.486730 0.868441 0.633530 0.730247
O7    O     O_R   0.684450 0.139580 0.148000 -0.531088
O8    O     O_R   0.315550 0.860420 0.852000 -0.528207
O9    O     O_R   0.857080 0.334940 0.161680 -0.521665
O10   O     O_R   0.142920 0.665060 0.838320 -0.525074
C3    C     C_R   0.515629 0.112617 0.114061 0.765279
C4    C     C_R   0.484366 0.887276 0.886026 0.767614
O11   O     O_R   0.352790 0.165070 0.338330 -0.545800
O12   O     O_R   0.647210 0.834930 0.661670 -0.544378
O13   O     O_3   0.522170 0.314120 0.254710 -0.370457
O14   O     O_3   0.477830 0.685880 0.745290 -0.376882
V1    V     V_3+5 0.796120 0.238110 0.249130 1.442444
V2    V     V_3+5 0.203880 0.761890 0.750870 1.478834
O15   O     O_R   0.186930 0.347040 0.163240 -0.548574
O16   O     O_R   0.813070 0.652960 0.836760 -0.550626
C5    C     C_R   0.018880 0.369453 0.134261 0.742178
C6    C     C_R   0.981163 0.631459 0.866543 0.729699
O17   O     O_R   0.184850 0.360440 0.352010 -0.541982
O18   O     O_R   0.815150 0.639560 0.647990 -0.542287
C7    C     C_R   0.015770 0.387259 0.386034 0.715653
C8    C     C_R   0.984250 0.612609 0.614066 0.716209
V3    V     V_3+5 0.296410 0.261900 0.250880 1.415547
V4    V     V_3+5 0.703590 0.738100 0.749120 1.426579
O19   O     O_3   0.020490 0.185890 0.245290 -0.374041
O20   O     O_3   0.979510 0.814110 0.754710 -0.365674
C9    C     C_1   0.005080 0.466791 0.466427 -0.196015
C10   C     C_1   0.994964 0.532983 0.533743 -0.195056
C11   C     C_3   0.108023 0.581941 0.026018 0.508580
C12   C     C_3   0.893089 0.420081 0.975852 0.511825
C13   C     C_3   0.935603 0.551042 0.082714 -0.290679
C14   C     C_3   0.065361 0.451084 0.919259 -0.288566
H1    H     H_    0.885515 0.591992 0.150093 0.120051
H2    H     H_    0.116899 0.410960 0.851946 0.120795
C15   C     C_3   0.011361 0.440579 0.064439 -0.105889
C16   C     C_3   0.989363 0.561451 0.937358 -0.105721
C17   C     C_3   0.185894 0.472433 0.008887 -0.252969
C18   C     C_3   0.814654 0.529452 0.992929 -0.258783
H3    H     H_    0.337513 0.449285 0.016554 0.134297
H4    H     H_    0.662650 0.551979 0.985155 0.137701
C19   C     C_3   0.317963 0.017605 0.474298 -0.258111
C20   C     C_3   0.682986 0.978169 0.522722 -0.272171
C21   C     C_3   0.410326 0.910732 0.464289 -0.226201
C22   C     C_3   0.590746 0.085907 0.533180 -0.292966
H5    H     H_    0.339189 0.838026 0.435623 0.119797
H6    H     H_    0.662284 0.158501 0.561848 0.121103
H7    H     H_    0.168955 0.034585 0.455456 0.106122
H8    H     H_    0.832000 0.961744 0.542934 0.136367
C23   C     C_3   0.496091 0.937212 0.561963 -0.096049
C24   C     C_3   0.503939 0.059561 0.435222 -0.122677
C25   C     C_3   0.405517 0.042905 0.571241 0.505364
C26   C     C_3   0.594654 0.953872 0.425404 0.492592
C27   C     C_1   0.505079 0.033002 0.033732 -0.183017
C28   C     C_1   0.494945 0.966824 0.966415 -0.172469
O21   O     O_3   0.221409 0.670627 0.046706 -0.555604
C29   C     C_3   0.319104 0.669697 0.130359 0.062411
H9    H     H_    0.400474 0.597982 0.130331 0.116326
H10   H     H_    0.215383 0.679817 0.188980 0.118309
C30   C     C_3   0.463946 0.756693 0.144123 -0.677537
H11   H     H_    0.389308 0.830323 0.145491 0.223322
H12   H     H_    0.540391 0.757135 0.210229 0.213899
H13   H     H_    0.571376 0.747183 0.087172 0.214593
O22   O     O_3   0.783741 0.330121 0.955325 -0.554002
C31   C     C_3   0.680476 0.331107 0.873374 0.068900
H14   H     H_    0.776485 0.346674 0.816307 0.112201
H15   H     H_    0.564870 0.389215 0.883952 0.118588
C32   C     C_3   0.588003 0.227475 0.845220 -0.683123
H16   H     H_    0.477217 0.213444 0.896679 0.217751
H17   H     H_    0.519347 0.224415 0.777113 0.194263
H18   H     H_    0.698922 0.167162 0.840240 0.226988
O23   O     O_3   0.302938 0.085801 0.650776 -0.557095
C33   C     C_3   0.225961 0.180211 0.637463 0.082691
H19   H     H_    0.143528 0.174758 0.572219 0.111666
H20   H     H_    0.343166 0.237381 0.636992 0.107673
C34   C     C_3   0.086611 0.216892 0.715399 -0.712395
H21   H     H_    0.160545 0.223783 0.782793 0.229322
H22   H     H_    0.029237 0.292141 0.706109 0.156621
H23   H     H_    0.964665 0.162486 0.714683 0.227701
O24   O     O_3   0.677937 0.903582 0.343137 -0.569384
C35   C     C_3   0.876640 0.924848 0.341062 0.065528
H24   H     H_    0.953525 0.884256 0.390570 0.117478
H25   H     H_    0.905941 0.007704 0.357405 0.138029
C36   C     C_3   0.954940 0.887889 0.245050 -0.671299
H26   H     H_    0.881317 0.927585 0.194049 0.224184
H27   H     H_    0.111855 0.904039 0.243025 0.178542
H28   H     H_    0.930895 0.804848 0.226592 0.211854

loop_
_geom_bond_atom_site_label_1
_geom_bond_atom_site_label_2
_ccdc_geom_bond_type
C20   C23   S    
V4    O20   S    
C6    C16   S    
C32   H16   S    
O4    C2    A    
V1    O19   S    
C34   H21   S    
C19   C21   S    
O23   C33   S    
C7    C9    S    
C20   H8    S    
O9    V1    S    
C11   C13   S    
C14   C16   S    
O3    C1    A    
C33   H20   S    
O12   V4    S    
O13   V3    S    
C11   C16   S    
O7    C3    A    
C29   H10   S    
O5    C7    A    
O7    V1    S    
O6    C8    A    
O8    V2    S    
C30   H12   S    
C22   H6    S    
O3    V1    S    
C31   H14   S    
O14   V4    S    
C36   H27   S    
C11   C17   S    
C19   H7    S    
C20   C22   S    
C8    C10   S    
C27   C28   T    
C2    O12   A    
C15   C17   S    
C12   C15   S    
O21   C29   S    
C16   C18   S    
C1    C24   S    
C2    C23   S    
C34   H22   S    
C18   H4    S    
O11   V3    S    
O17   V3    S    
C35   H25   S    
C25   O23   S    
O8    C4    A    
C35   H24   S    
C1    O11   A    
C21   H5    S    
O24   C35   S    
O15   V3    S    
C22   C24   S    
C21   C26   S    
C29   H9    S    
C19   C25   S    
C30   H13   S    
O10   V2    S    
C31   C32   S    
O1    V3    S    
C9    C10   T    
C11   O21   S    
C36   H28   S    
C17   H3    S    
O5    V1    S    
O18   V4    S    
O15   C5    A    
C32   H18   S    
O16   C6    A    
C12   C18   S    
O1    C3    A    
C32   H17   S    
C12   C14   S    
C26   O24   S    
C34   H23   S    
C4    C28   S    
C12   O22   S    
V2    O20   S    
O16   V4    S    
C29   C30   S    
C33   H19   S    
C22   C25   S    
C35   C36   S    
C20   C26   S    
C3    C27   S    
O17   C7    A    
O6    V2    S    
O10   C6    A    
O18   C8    A    
C5    C15   S    
O2    V4    S    
C13   C18   S    
C23   C25   S    
C14   C17   S    
V3    O19   S    
C21   C23   S    
C14   H2    S    
C33   C34   S    
O9    C5    A    
O13   V1    S    
C24   C26   S    
O14   V2    S    
C13   C15   S    
O22   C31   S    
O2    C4    A    
O4    V2    S    
C13   H1    S    
C30   H11   S    
C31   H15   S    
C36   H26   S    
C19   C24   S    
