data_mof_unit_55071.cif
_audit_creation_date              2012-12-10T17:02:14-0500
_audit_creation_method            fapswitch 2.2
_symmetry_space_group_name_H-M    P1
_symmetry_Int_Tables_number       1
_space_group_crystal_system       triclinic
_cell_length_a                    10.722498
_cell_length_b                    10.663108
_cell_length_c                    10.05515
_cell_angle_alpha                 91.054736
_cell_angle_beta                  88.763297
_cell_angle_gamma                 91.911996
_cell_volume                      1148.56941867

loop_
_atom_site_label
_atom_site_type_symbol
_atom_type_description
_atom_site_fract_x
_atom_site_fract_y
_atom_site_fract_z
_atom_type_partial_charge
C1    C     C_R   0.496455 0.261959 0.498544 0.804912
C2    C     C_R   0.055384 0.426374 0.612708 0.116440
C3    C     C_R   0.125554 0.489461 0.509537 -0.093793
C4    C     C_R   0.066459 0.543374 0.403295 -0.184558
C5    C     C_R   0.939345 0.539610 0.398118 -0.187001
C6    C     C_R   0.869868 0.475845 0.495195 -0.098488
C7    C     C_2   0.553140 0.933158 0.391926 -0.125990
C8    C     C_2   0.551294 0.866705 0.502473 -0.196205
C9    C     C_2   0.557872 0.068027 0.405199 -0.308231
C10   C     C_2   0.482903 0.128309 0.492267 0.274061
C11   C     C_2   0.538433 0.594198 0.930477 0.463721
C12   C     C_R   0.259551 0.495752 0.502715 0.922582
C13   C     C_2   0.508246 0.599407 0.076195 -0.181153
C14   C     C_R   0.513575 0.736827 0.500647 0.992601
C15   C     C_R   0.738813 0.492218 0.498381 0.869783
C16   C     C_R   0.106351 0.379226 0.730726 -0.177071
C17   C     C_R   0.034233 0.304582 0.818904 0.161338
C18   C     C_R   0.910587 0.274792 0.789838 -0.094219
C19   C     C_R   0.856961 0.325977 0.679679 -0.185021
C20   C     C_R   0.926454 0.408925 0.595777 0.097728
H1    H     H_    0.118715 0.593135 0.326001 0.181923
H2    H     H_    0.445815 0.432391 0.895928 0.108244
H3    H     H_    0.505552 0.690470 0.125809 0.212342
H4    H     H_    0.516092 0.416740 0.100026 0.161061
H5    H     H_    0.200829 0.397578 0.759354 0.156464
H6    H     H_    0.855083 0.213346 0.854042 0.150766
H7    H     H_    0.760875 0.298903 0.660299 0.153772
H8    H     H_    0.895147 0.589775 0.320015 0.185859
H9    H     H_    0.541803 0.890583 0.293772 0.197430
H10   H     H_    0.572906 0.911340 0.597434 0.220172
H11   H     H_    0.625595 0.119287 0.343043 0.159779
N1    N     N_2   0.501340 0.501330 0.852150 -0.253715
N2    N     N_2   0.501380 0.501360 0.147810 -0.219288
O1    O     O_R   0.499980 0.319060 0.613040 -0.629282
O2    O     O_R   0.500020 0.319100 0.386900 -0.619824
O3    O     O_R   0.316750 0.499980 0.613090 -0.636040
O4    O     O_R   0.316790 0.500020 0.386950 -0.602613
O5    O     O_R   0.499980 0.680900 0.613100 -0.524868
O6    O     O_R   0.500020 0.680940 0.386960 -0.634950
O7    O     O_R   0.683210 0.499980 0.613050 -0.572010
O8    O     O_R   0.683250 0.500020 0.386910 -0.621454
Zn1   Zn    Zn3+2 0.499970 0.499970 0.650990 1.024527
Zn2   Zn    Zn3+2 0.500030 0.500030 0.349010 0.975582
S1    S     S_3+6 0.350023 0.058554 0.575043 0.045017
O9    O     O_2   0.289747 0.957910 0.489093 -0.252295
O10   O     O_2   0.387010 0.002463 0.703835 -0.280815
O11   O     O_3   0.245556 0.168493 0.608877 -0.545433
H12   H     H_    0.267189 0.198840 0.699290 0.360756
S2    S     S_3+6 0.625100 0.727868 0.874578 0.040559
O12   O     O_2   0.710733 0.698981 0.759079 -0.279835
O13   O     O_2   0.535634 0.826073 0.837405 -0.281648
O14   O     O_3   0.711967 0.785293 0.000564 -0.580264
H13   H     H_    0.747962 0.866281 0.968498 0.384978
N3    N     N_3   0.086552 0.254897 0.936381 -0.424564
H14   H     H_    0.181080 0.281183 0.942806 0.176218
H15   H     H_    0.041416 0.296120 0.018526 0.192014

loop_
_geom_bond_atom_site_label_1
_geom_bond_atom_site_label_2
_ccdc_geom_bond_type
C11   N1    D    
O11   H12   S    
O6    Zn2   S    
C13   N2    D    
C11   S2    S    
C2    C16   A    
C14   O5    A    
C5    H8    S    
C6    C20   A    
C9    C10   D    
O3    Zn1   S    
H4    N2    S    
O1    Zn1   S    
S1    O11   S    
S2    O14   S    
C8    H10   S    
O7    Zn1   S    
C17   C18   A    
C6    C15   S    
C7    C8    D    
O14   H13   S    
C4    H1    S    
O8    Zn2   S    
C15   O8    A    
H2    N1    S    
C7    H9    S    
C4    C5    A    
C19   H7    S    
S1    O10   D    
C1    O1    A    
C2    C3    A    
C5    C6    A    
N3    H15   S    
C15   O7    A    
C12   O3    A    
C9    H11   S    
C10   S1    S    
C3    C4    A    
N2    Zn2   S    
O5    Zn1   S    
C11   C13   S    
O2    Zn2   S    
S1    O9    D    
C13   H3    S    
S2    O12   D    
C12   O4    A    
C16   H5    S    
C7    C9    S    
C1    O2    A    
N1    Zn1   S    
N3    H14   S    
C18   C19   A    
C8    C14   S    
C3    C12   S    
C14   O6    A    
C2    C20   A    
C17   N3    S    
O4    Zn2   S    
C1    C10   S    
C19   C20   A    
C16   C17   A    
S2    O13   D    
C18   H6    S    
