data_mof_unit_36931.cif
_audit_creation_date              2012-12-11T14:01:11-0500
_audit_creation_method            fapswitch 2.2
_symmetry_space_group_name_H-M    P1
_symmetry_Int_Tables_number       1
_space_group_crystal_system       triclinic
_cell_length_a                    19.015876
_cell_length_b                    10.978385
_cell_length_c                    18.749401
_cell_angle_alpha                 89.726549
_cell_angle_beta                  89.458094
_cell_angle_gamma                 90.15186
_cell_volume                      3913.95872966

loop_
_atom_site_label
_atom_site_type_symbol
_atom_type_description
_atom_site_fract_x
_atom_site_fract_y
_atom_site_fract_z
_atom_type_partial_charge
C1    C     C_R   0.271419 0.043191 0.852696 0.554329
C2    C     C_R   0.728594 0.043380 0.147348 0.568290
C3    C     C_R   0.771420 0.543190 0.852697 0.554317
C4    C     C_R   0.228594 0.543380 0.147348 0.568290
C5    C     C_R   0.500365 0.061403 0.069993 -0.080645
C6    C     C_R   0.525255 0.046855 0.923643 -0.093961
C7    C     C_R   0.000369 0.561402 0.069989 -0.080648
C8    C     C_R   0.025259 0.546857 0.923640 -0.093956
C9    C     C_R   0.014988 0.666682 0.030608 -0.125489
C10   C     C_R   0.029702 0.658866 0.958006 -0.129096
C11   C     C_R   0.514985 0.166680 0.030611 -0.125488
C12   C     C_R   0.529699 0.158863 0.958009 -0.129097
C13   C     C_2   0.246851 0.581012 0.920230 -0.134326
C14   C     C_2   0.754390 0.576207 0.081803 -0.127709
C15   C     C_2   0.746852 0.081011 0.920230 -0.134341
C16   C     C_2   0.254393 0.076184 0.081810 -0.127703
C17   C     C_2   0.257558 0.592081 0.080981 0.023171
C18   C     C_2   0.743909 0.589344 0.919983 0.027086
C19   C     C_2   0.757554 0.092082 0.080981 0.023176
C20   C     C_2   0.243910 0.089341 0.919985 0.027096
C21   C     C_2   0.285127 0.510651 0.034767 -0.153044
C22   C     C_2   0.717325 0.506304 0.966679 -0.142965
C23   C     C_2   0.785129 0.010659 0.034768 -0.153019
C24   C     C_2   0.217329 0.006296 0.966681 -0.143009
C25   C     C_2   0.299344 0.539216 0.960214 -0.183948
C26   C     C_2   0.702426 0.534732 0.041107 -0.176585
C27   C     C_2   0.799346 0.039225 0.960215 -0.183925
C28   C     C_2   0.202430 0.034721 0.041110 -0.176602
C29   C     C_2   0.519107 0.838528 0.587668 -0.113240
C30   C     C_2   0.545920 0.828482 0.434403 -0.105569
C31   C     C_2   0.019106 0.338528 0.587668 -0.113241
C32   C     C_2   0.045920 0.328482 0.434403 -0.105568
C33   C     C_2   0.569939 0.744938 0.480263 -0.163324
C34   C     C_2   0.545614 0.740633 0.554554 -0.152595
C35   C     C_2   0.069939 0.244938 0.480263 -0.163324
C36   C     C_2   0.045613 0.240633 0.554554 -0.152595
C37   C     C_2   0.246786 0.567283 0.582878 -0.105689
C38   C     C_2   0.752788 0.566240 0.417350 -0.109633
C39   C     C_2   0.746786 0.067283 0.582878 -0.105688
C40   C     C_2   0.252788 0.066240 0.417350 -0.109634
C41   C     C_2   0.238214 0.570686 0.427399 -0.089525
C42   C     C_2   0.762079 0.571514 0.572567 -0.088698
C43   C     C_2   0.738213 0.070686 0.427399 -0.089525
C44   C     C_2   0.262078 0.071514 0.572567 -0.088698
C45   C     C_R   0.470255 0.821581 0.853812 0.532529
C46   C     C_R   0.527958 0.822960 0.147456 0.543704
C47   C     C_R   0.970257 0.321581 0.853811 0.532534
C48   C     C_R   0.027959 0.322959 0.147455 0.543713
C49   C     C_2   0.182428 0.563955 0.471980 -0.151502
C50   C     C_2   0.817425 0.559998 0.527856 -0.146531
C51   C     C_2   0.682428 0.063955 0.471980 -0.151503
C52   C     C_2   0.317425 0.060000 0.527856 -0.146531
C53   C     C_2   0.187394 0.587053 0.547649 -0.161955
C54   C     C_2   0.812589 0.584197 0.452168 -0.159202
C55   C     C_2   0.687394 0.087053 0.547649 -0.161955
C56   C     C_2   0.312589 0.084198 0.452168 -0.159201
C57   C     C_R   0.260589 0.636552 0.851359 0.547321
C58   C     C_R   0.739623 0.635728 0.149094 0.550039
C59   C     C_R   0.760589 0.136552 0.851359 0.547313
C60   C     C_R   0.239624 0.135722 0.149097 0.550044
C61   C     C_R   0.273842 0.043273 0.646580 0.550556
C62   C     C_R   0.726062 0.042577 0.353516 0.543681
C63   C     C_R   0.773842 0.543273 0.646580 0.550557
C64   C     C_R   0.226062 0.542577 0.353516 0.543679
C65   C     C_R   0.473145 0.824457 0.649597 0.550323
C66   C     C_R   0.563155 0.819371 0.359449 0.569330
C67   C     C_R   0.973145 0.324457 0.649597 0.550319
C68   C     C_R   0.063155 0.319371 0.359449 0.569330
C69   C     C_R   0.260117 0.634334 0.647410 0.556223
C70   C     C_R   0.739753 0.634071 0.352726 0.545545
C71   C     C_R   0.760117 0.134334 0.647410 0.556224
C72   C     C_R   0.239754 0.134071 0.352726 0.545542
C73   C     C_R   0.496754 0.834650 0.076712 -0.014604
C74   C     C_R   0.493583 0.827811 0.927682 -0.004930
C75   C     C_R   0.996762 0.334646 0.076708 -0.014593
C76   C     C_R   0.993592 0.327809 0.927678 -0.004917
C77   C     C_R   0.500890 0.945573 0.037176 0.024682
C78   C     C_R   0.506625 0.940126 0.961967 0.020736
C79   C     C_R   0.000896 0.445572 0.037172 0.024679
C80   C     C_R   0.006632 0.440125 0.961963 0.020735
C81   C     C_R   0.483119 0.721766 0.968545 -0.156230
C82   C     C_R   0.483909 0.725397 0.041465 -0.167403
C83   C     C_R   0.983136 0.221759 0.968539 -0.156252
C84   C     C_R   0.983926 0.225388 0.041458 -0.167423
Cr1   Cr    Cr6+3 0.230530 0.836340 0.748870 1.014932
Cr2   Cr    Cr6+3 0.769470 0.836340 0.251130 1.013840
Cr3   Cr    Cr6+3 0.730530 0.336340 0.748870 1.014932
Cr4   Cr    Cr6+3 0.269470 0.336340 0.251130 1.013840
Cr5   Cr    Cr6+3 0.387420 0.989430 0.750820 1.014104
Cr6   Cr    Cr6+3 0.612580 0.989430 0.249180 1.007499
Cr7   Cr    Cr6+3 0.887420 0.489430 0.750820 1.014104
Cr8   Cr    Cr6+3 0.112580 0.489430 0.249180 1.007501
Cr9   Cr    Cr6+3 0.385640 0.677860 0.749230 1.017156
Cr10  Cr    Cr6+3 0.614360 0.677860 0.250770 1.012560
Cr11  Cr    Cr6+3 0.885640 0.177860 0.749230 1.017158
Cr12  Cr    Cr6+3 0.114360 0.177860 0.250770 1.012564
H1    H     H_    0.472438 0.634301 0.944399 0.142461
H2    H     H_    0.478333 0.639965 0.070218 0.140118
H3    H     H_    0.972459 0.134291 0.944394 0.142460
H4    H     H_    0.978356 0.139953 0.070210 0.140115
H5    H     H_    0.129722 0.548878 0.451875 0.147687
H6    H     H_    0.869669 0.539989 0.547855 0.152217
H7    H     H_    0.629722 0.048877 0.451875 0.147687
H8    H     H_    0.369669 0.039994 0.547856 0.152217
H9    H     H_    0.142733 0.631699 0.572829 0.152505
H10   H     H_    0.857610 0.628066 0.426677 0.156527
H11   H     H_    0.642733 0.131698 0.572829 0.152506
H12   H     H_    0.357610 0.128067 0.426677 0.156527
H13   H     H_    0.291501 0.585524 0.445727 0.099198
H14   H     H_    0.709245 0.590948 0.554347 0.085031
H15   H     H_    0.791501 0.085524 0.445727 0.099198
H16   H     H_    0.209245 0.090945 0.554346 0.085031
H17   H     H_    0.289719 0.515738 0.559265 0.110174
H18   H     H_    0.709477 0.515422 0.441418 0.102578
H19   H     H_    0.789719 0.015738 0.559265 0.110174
H20   H     H_    0.209477 0.015421 0.441418 0.102578
H21   H     H_    0.486993 0.072387 0.125736 0.133418
H22   H     H_    0.537871 0.044441 0.867314 0.127839
H23   H     H_    0.986996 0.572386 0.125733 0.133420
H24   H     H_    0.037874 0.544443 0.867310 0.127835
H25   H     H_    0.015694 0.754428 0.056698 0.107284
H26   H     H_    0.043340 0.740139 0.927957 0.114219
H27   H     H_    0.515692 0.254426 0.056700 0.107285
H28   H     H_    0.543338 0.240134 0.927961 0.114219
H29   H     H_    0.289762 0.415496 0.049769 0.140747
H30   H     H_    0.711715 0.411310 0.951648 0.134461
H31   H     H_    0.789776 0.915510 0.049772 0.140754
H32   H     H_    0.211719 0.911303 0.951648 0.134474
H33   H     H_    0.352099 0.526472 0.938954 0.151522
H34   H     H_    0.648759 0.526344 0.060908 0.151894
H35   H     H_    0.852103 0.026492 0.938957 0.151524
H36   H     H_    0.148761 0.026351 0.060906 0.151887
H37   H     H_    0.194440 0.591120 0.943264 0.118584
H38   H     H_    0.807727 0.581829 0.060414 0.112309
H39   H     H_    0.694440 0.091113 0.943264 0.118585
H40   H     H_    0.307733 0.081793 0.060426 0.112302
H41   H     H_    0.601738 0.669644 0.460972 0.133844
H42   H     H_    0.543173 0.651284 0.579629 0.153235
H43   H     H_    0.101738 0.169644 0.460972 0.133844
H44   H     H_    0.043174 0.151284 0.579629 0.153235
H45   H     H_    0.512384 0.903054 0.451169 0.098630
H46   H     H_    0.525586 0.929473 0.565559 0.091440
H47   H     H_    0.012384 0.403054 0.451169 0.098630
H48   H     H_    0.025585 0.429473 0.565559 0.091441
O1    O     O_R   0.215090 0.709860 0.828130 -0.526742
O2    O     O_R   0.784910 0.709860 0.171870 -0.523133
O3    O     O_R   0.715090 0.209860 0.828130 -0.526740
O4    O     O_R   0.284910 0.209860 0.171870 -0.523134
O5    O     O_R   0.445660 0.919250 0.676780 -0.507450
O6    O     O_R   0.554340 0.919250 0.323220 -0.506872
O7    O     O_R   0.945660 0.419250 0.676780 -0.507452
O8    O     O_R   0.054340 0.419250 0.323220 -0.506871
O9    O     O_R   0.456260 0.718170 0.670000 -0.509751
O10   O     O_R   0.543740 0.718170 0.330000 -0.500186
O11   O     O_R   0.956260 0.218170 0.670000 -0.509752
O12   O     O_R   0.043740 0.218170 0.330000 -0.500185
O13   O     O_R   0.320940 0.626760 0.674370 -0.497307
O14   O     O_R   0.679060 0.626760 0.325630 -0.521452
O15   O     O_R   0.820940 0.126760 0.674370 -0.497307
O16   O     O_R   0.179060 0.126760 0.325630 -0.521454
O17   O     O_3   0.334530 0.834540 0.749640 -0.244612
O18   O     O_3   0.665470 0.834540 0.250360 -0.267559
O19   O     O_3   0.834530 0.334540 0.749640 -0.244611
O20   O     O_3   0.165470 0.334540 0.250360 -0.267557
O21   O     O_R   0.236990 0.958390 0.823710 -0.506923
O22   O     O_R   0.763010 0.958390 0.176290 -0.505442
O23   O     O_R   0.736990 0.458390 0.823710 -0.506925
O24   O     O_R   0.263010 0.458390 0.176290 -0.505437
O25   O     O_R   0.332380 0.074750 0.830850 -0.513312
O26   O     O_R   0.667620 0.074750 0.169150 -0.511645
O27   O     O_R   0.832380 0.574750 0.830850 -0.513308
O28   O     O_R   0.167620 0.574750 0.169150 -0.511642
O29   O     O_R   0.445800 0.917770 0.825070 -0.504074
O30   O     O_R   0.554200 0.917770 0.174930 -0.504078
O31   O     O_R   0.945800 0.417770 0.825070 -0.504076
O32   O     O_R   0.054200 0.417770 0.174930 -0.504078
O33   O     O_R   0.456410 0.716580 0.829970 -0.527557
O34   O     O_R   0.543590 0.716580 0.170030 -0.519425
O35   O     O_R   0.956410 0.216580 0.829970 -0.527552
O36   O     O_R   0.043590 0.216580 0.170030 -0.519423
O37   O     O_R   0.321080 0.625290 0.822650 -0.496313
O38   O     O_R   0.678920 0.625290 0.177350 -0.493620
O39   O     O_R   0.821080 0.125290 0.822650 -0.496310
O40   O     O_R   0.178920 0.125290 0.177350 -0.493615
O41   O     O_R   0.214930 0.711450 0.668160 -0.514628
O42   O     O_R   0.785070 0.711450 0.331840 -0.510146
O43   O     O_R   0.714930 0.211450 0.668160 -0.514627
O44   O     O_R   0.285070 0.211450 0.331840 -0.510148
O45   O     O_R   0.236850 0.959870 0.675420 -0.494791
O46   O     O_R   0.763150 0.959870 0.324580 -0.494757
O47   O     O_R   0.736850 0.459870 0.675420 -0.494790
O48   O     O_R   0.263150 0.459870 0.324580 -0.494758
O49   O     O_R   0.332230 0.076350 0.670880 -0.516688
O50   O     O_R   0.667770 0.076350 0.329120 -0.523756
O51   O     O_R   0.832230 0.576350 0.670880 -0.516687
O52   O     O_R   0.167770 0.576350 0.329120 -0.523756
C85   C     C_3   0.261886 0.728615 0.070349 -0.278730
C86   C     C_3   0.309148 0.784049 0.127333 -0.422072
H49   H     H_    0.357512 0.728801 0.134095 0.157724
H50   H     H_    0.325870 0.876907 0.111451 0.140735
H51   H     H_    0.280646 0.788589 0.179234 0.157563
H52   H     H_    0.284596 0.753122 0.017455 0.160496
H53   H     H_    0.208383 0.768626 0.073920 0.150559
C87   C     C_3   0.745388 0.725098 0.933839 -0.270591
C88   C     C_3   0.670766 0.775756 0.939855 -0.426920
H54   H     H_    0.641470 0.757654 0.890024 0.150577
H55   H     H_    0.641893 0.734593 0.985648 0.174540
H56   H     H_    0.672416 0.875202 0.948507 0.144704
H57   H     H_    0.775311 0.745052 0.982656 0.143310
H58   H     H_    0.772675 0.773382 0.889224 0.153141
C89   C     C_3   0.761864 0.228613 0.070347 -0.278731
C90   C     C_3   0.809143 0.284056 0.127312 -0.422087
H59   H     H_    0.857519 0.228822 0.134049 0.157720
H60   H     H_    0.825853 0.376907 0.111426 0.140746
H61   H     H_    0.780664 0.288582 0.179221 0.157567
H62   H     H_    0.784548 0.253128 0.017442 0.160483
H63   H     H_    0.708359 0.268608 0.073942 0.150566
C91   C     C_3   0.245399 0.225091 0.933853 -0.270582
C92   C     C_3   0.170780 0.275775 0.939834 -0.426857
H64   H     H_    0.141558 0.257947 0.889906 0.150499
H65   H     H_    0.141815 0.234383 0.985514 0.174550
H66   H     H_    0.172448 0.375193 0.948673 0.144750
H67   H     H_    0.275298 0.245017 0.982689 0.143310
H68   H     H_    0.272718 0.273381 0.889258 0.153140

loop_
_geom_bond_atom_site_label_1
_geom_bond_atom_site_label_2
_ccdc_geom_bond_type
C16   C28   D    
C69   O41   A    
Cr3   O19   S    
C38   C70   S    
C60   O40   A    
C37   C69   S    
C42   C63   S    
C27   H35   S    
C46   O34   A    
C35   C36   S    
Cr2   O22   S    
C20   C91   S    
Cr5   O29   S    
Cr6   O6    S    
C25   H33   S    
Cr10  O38   S    
C57   O37   A    
C81   C82   A    
C3    O23   A    
C91   H67   S    
C62   O46   A    
Cr12  O12   S    
C77   C78   A    
Cr8   O32   S    
C31   C67   S    
C50   C54   S    
C30   H45   S    
Cr3   O3    S    
Cr6   O18   S    
Cr11  O15   S    
C7    C79   A    
Cr1   O1    S    
C47   C76   S    
C66   O6    A    
C57   O1    A    
C6    C12   A    
C38   H18   S    
C49   C53   S    
C75   C84   A    
C6    C78   A    
C15   H39   S    
C51   H7    S    
C53   H9    S    
Cr1   O17   S    
C90   H59   S    
C3    C18   S    
C7    C9    A    
C16   C60   S    
C41   C49   D    
C31   H48   S    
C20   C24   D    
C72   O44   A    
C32   H47   S    
C65   O9    A    
C35   H43   S    
Cr9   O37   S    
C39   C55   D    
C24   H32   S    
C89   C90   S    
C63   O51   A    
C33   H41   S    
C40   C56   D    
Cr6   O50   S    
C87   H57   S    
Cr8   O8    S    
C69   O13   A    
C46   O30   A    
C17   C85   S    
C86   H49   S    
Cr2   O18   S    
C23   C27   S    
C4    O28   A    
C9    C10   A    
Cr10  O18   S    
C51   C55   S    
C26   H34   S    
C45   O33   A    
C32   C68   S    
C37   C53   D    
Cr8   O20   S    
Cr5   O5    S    
C89   H62   S    
Cr10  O14   S    
C41   H13   S    
C21   H29   S    
C61   O45   A    
C82   H2    S    
C48   C75   S    
Cr7   O19   S    
C15   C59   S    
Cr12  O40   S    
C89   H63   S    
Cr2   O2    S    
C76   C83   A    
Cr5   O17   S    
C64   O48   A    
C88   H55   S    
Cr1   O41   S    
C86   H50   S    
C14   C58   S    
Cr3   O23   S    
Cr2   O46   S    
C54   H10   S    
C67   O7    A    
C84   H4    S    
C32   C35   D    
C7    H23   S    
C21   C25   S    
C92   H64   S    
C66   O10   A    
Cr9   O33   S    
Cr3   O43   S    
C14   H38   S    
Cr4   O24   S    
C88   H54   S    
C29   C34   D    
C34   H42   S    
C14   C26   D    
Cr12  O20   S    
C5    H21   S    
C45   C74   S    
C28   H36   S    
C19   C23   D    
C30   C33   D    
C68   O8    A    
C45   O29   A    
C92   H65   S    
Cr2   O42   S    
Cr7   O51   S    
C15   C27   D    
C83   C84   A    
C38   C54   D    
C90   H61   S    
Cr9   O17   S    
Cr10  O10   S    
Cr5   O49   S    
Cr6   O26   S    
C86   H51   S    
C33   C34   S    
Cr4   O4    S    
Cr7   O31   S    
C85   H52   S    
Cr12  O36   S    
C59   O39   A    
C36   H44   S    
C30   C66   S    
C47   O35   A    
C42   C50   D    
C10   H26   S    
C4    C17   S    
C44   H16   S    
Cr11  O35   S    
Cr12  O16   S    
C90   H60   S    
C50   H6    S    
C39   H19   S    
C3    O27   A    
C5    C11   A    
C22   C26   S    
C19   C89   S    
C75   C79   A    
C62   O50   A    
C74   C81   A    
C5    C77   A    
C16   H40   S    
C61   O49   A    
C73   C82   A    
C48   O36   A    
C8    H24   S    
C24   C28   S    
Cr3   O47   S    
C88   H56   S    
Cr4   O48   S    
C2    O22   A    
C52   H8    S    
C1    C20   S    
C39   C71   S    
C40   C72   S    
Cr11  O39   S    
C2    C19   S    
C18   C22   D    
C13   H37   S    
C1    O21   A    
C11   H27   S    
C76   C80   A    
C71   O43   A    
Cr8   O52   S    
C68   O12   A    
Cr10  O34   S    
C44   C52   D    
C18   C87   S    
C11   C12   A    
C58   O2    A    
C29   C65   S    
C91   H68   S    
C67   O11   A    
C44   C61   S    
C71   O15   A    
Cr6   O30   S    
C23   H31   S    
C72   O16   A    
Cr7   O27   S    
Cr11  O19   S    
C58   O38   A    
Cr1   O21   S    
Cr7   O7    S    
Cr9   O9    S    
C42   H14   S    
Cr5   O25   S    
C2    O26   A    
C9    H25   S    
Cr4   O20   S    
C92   H66   S    
C49   H5    S    
Cr9   O13   S    
C43   C51   D    
C91   C92   S    
C40   H20   S    
C81   H1    S    
C13   C25   D    
Cr8   O28   S    
C63   O47   A    
C29   H46   S    
C64   O52   A    
C1    O25   A    
C85   H53   S    
Cr11  O11   S    
C65   O5    A    
C85   C86   S    
C17   C21   D    
C22   H30   S    
C70   O42   A    
C47   O31   A    
C79   C80   A    
C43   H15   S    
C4    O24   A    
Cr4   O44   S    
C13   C57   S    
C87   C88   S    
C73   C77   A    
C8    C10   A    
C74   C78   A    
C87   H58   S    
C8    C80   A    
C56   H12   S    
C31   C36   D    
C37   H17   S    
C83   H3    S    
C60   O4    A    
C41   C64   S    
C70   O14   A    
Cr1   O45   S    
C12   H28   S    
C6    H22   S    
C46   C73   S    
C55   H11   S    
C52   C56   S    
C43   C62   S    
C48   O32   A    
C59   O3    A    
