data_mof_unit_8636.cif
_audit_creation_date              2012-12-11T17:12:41-0500
_audit_creation_method            fapswitch 2.2
_symmetry_space_group_name_H-M    P1
_symmetry_Int_Tables_number       1
_space_group_crystal_system       triclinic
_cell_length_a                    17.185375
_cell_length_b                    6.879681
_cell_length_c                    14.432659
_cell_angle_alpha                 90.000012
_cell_angle_beta                  110.025061
_cell_angle_gamma                 90.0
_cell_volume                      1603.20956414

loop_
_atom_site_label
_atom_site_type_symbol
_atom_type_description
_atom_site_fract_x
_atom_site_fract_y
_atom_site_fract_z
_atom_type_partial_charge
O1    O     O_R   0.314130 0.635770 0.168990 -0.542757
O2    O     O_R   0.685870 0.364230 0.831010 -0.542757
O3    O     O_R   0.185870 0.135770 0.331010 -0.542758
O4    O     O_R   0.814130 0.864230 0.668990 -0.542757
O5    O     O_R   0.146800 0.302460 0.139760 -0.536532
O6    O     O_R   0.853200 0.697540 0.860240 -0.536532
O7    O     O_R   0.353200 0.802460 0.360240 -0.536532
O8    O     O_R   0.646800 0.197540 0.639760 -0.536531
C1    C     C_R   0.113988 0.475872 0.112772 0.727958
C2    C     C_R   0.886012 0.524128 0.887228 0.727958
C3    C     C_R   0.386012 0.975872 0.387228 0.727958
C4    C     C_R   0.613988 0.024128 0.612772 0.727958
O9    O     O_R   0.311100 0.305780 0.157130 -0.541488
O10   O     O_R   0.688900 0.694220 0.842870 -0.541488
O11   O     O_R   0.188900 0.805780 0.342870 -0.541488
O12   O     O_R   0.811100 0.194220 0.657130 -0.541488
O13   O     O_R   0.351340 0.139640 0.348510 -0.537639
O14   O     O_R   0.648660 0.860360 0.651490 -0.537639
O15   O     O_R   0.148660 0.639640 0.151490 -0.537639
O16   O     O_R   0.851340 0.360360 0.848510 -0.537639
C5    C     C_R   0.332936 0.476553 0.135689 0.737982
C6    C     C_R   0.667064 0.523447 0.864311 0.737982
C7    C     C_R   0.167064 0.976553 0.364311 0.737983
C8    C     C_R   0.832936 0.023447 0.635689 0.737983
C9    C     C_1   0.533568 0.008864 0.533044 -0.166472
C10   C     C_1   0.466432 0.991136 0.466956 -0.166471
C11   C     C_1   0.966432 0.508864 0.966956 -0.166472
C12   C     C_1   0.033568 0.491136 0.033044 -0.166471
O17   O     O_3   0.263010 0.470920 0.312770 -0.369648
O18   O     O_3   0.736990 0.529080 0.687230 -0.369648
O19   O     O_3   0.236990 0.970920 0.187230 -0.369648
O20   O     O_3   0.763010 0.029080 0.812770 -0.369648
V1    V     V_3+5 0.247590 0.194450 0.238360 1.456336
V2    V     V_3+5 0.752410 0.805550 0.761640 1.456336
V3    V     V_3+5 0.252410 0.694450 0.261640 1.456336
V4    V     V_3+5 0.747590 0.305550 0.738360 1.456336
C13   C     C_R   0.116253 0.999762 0.428403 -0.179073
C14   C     C_R   0.883747 0.000238 0.571597 -0.179073
C15   C     C_R   0.383747 0.499762 0.071597 -0.179073
C16   C     C_R   0.616253 0.500238 0.928403 -0.179073
C17   C     C_R   0.931471 0.783719 0.467879 0.688661
C18   C     C_R   0.068529 0.216281 0.532121 0.688661
C19   C     C_R   0.568529 0.283720 0.032121 0.688660
C20   C     C_R   0.431470 0.716280 0.967879 0.688660
C21   C     C_R   0.876198 0.827619 0.516652 -0.223252
C22   C     C_R   0.123802 0.172381 0.483348 -0.223252
C23   C     C_R   0.623802 0.327620 0.983348 -0.223252
C24   C     C_R   0.376198 0.672380 0.016651 -0.223252
C25   C     C_R   0.946779 0.132082 0.574742 -0.135651
C26   C     C_R   0.053221 0.867918 0.425258 -0.135651
C27   C     C_R   0.553221 0.632082 0.925257 -0.135651
C28   C     C_R   0.446779 0.367918 0.074742 -0.135651
C29   C     C_R   0.003673 0.088243 0.526721 -0.043652
C30   C     C_R   0.996327 0.911757 0.473279 -0.043653
C31   C     C_R   0.496327 0.588243 0.973279 -0.043653
C32   C     C_R   0.503673 0.411757 0.026721 -0.043653
H1    H     H_    0.046411 0.736214 0.381970 0.185010
H2    H     H_    0.953589 0.263786 0.618029 0.185010
H3    H     H_    0.453590 0.236214 0.118030 0.185010
H4    H     H_    0.546410 0.763786 0.881970 0.185010
H5    H     H_    0.171926 0.276741 0.486733 0.157814
H6    H     H_    0.828074 0.723259 0.513266 0.157814
H7    H     H_    0.328074 0.776740 0.013266 0.157814
H8    H     H_    0.671926 0.223260 0.986734 0.157814
F1    F     F_    0.922323 0.614042 0.417132 -0.677597
F2    F     F_    0.077677 0.385958 0.582867 -0.677597
F3    F     F_    0.577677 0.114042 0.082868 -0.677597
F4    F     F_    0.422323 0.885958 0.917132 -0.677597

loop_
_geom_bond_atom_site_label_1
_geom_bond_atom_site_label_2
_ccdc_geom_bond_type
C2    C11   S    
O10   V2    S    
C16   C23   A    
C8    C14   S    
C31   C32   A    
O19   V1    S    
O2    C6    A    
C28   H3    S    
C16   C27   A    
O17   V3    S    
O3    C7    A    
C19   C32   A    
C5    C15   S    
O18   V4    S    
C4    C9    S    
O8    C4    A    
C6    C16   S    
O10   C6    A    
O11   C7    A    
C15   C28   A    
C9    C10   T    
O9    C5    A    
O12   C8    A    
C14   C25   A    
O15   V3    S    
C29   C30   A    
O12   V4    S    
O1    C5    A    
C13   C26   A    
O14   V2    S    
C20   C31   A    
O7    V3    S    
O5    C1    A    
C26   C30   A    
O13   V1    S    
C25   C29   A    
O20   V4    S    
O19   V3    S    
O11   V3    S    
O7    C3    A    
C27   C31   A    
O5    V1    S    
C18   C29   A    
C18   C22   A    
O4    C8    A    
O4    V2    S    
C17   C30   A    
C20   F4    S    
O6    V2    S    
O6    C2    A    
O18   V2    S    
C22   H5    S    
O2    V4    S    
O16   V4    S    
O17   V1    S    
C21   H6    S    
C11   C12   T    
C20   C24   A    
O1    V3    S    
C19   F3    S    
O9    V1    S    
O8    V4    S    
C4    O14   A    
C23   H8    S    
C18   F2    S    
C17   C21   A    
O3    V1    S    
C3    O13   A    
C14   C21   A    
C17   F1    S    
C27   H4    S    
C3    C10   S    
C13   C22   A    
C7    C13   S    
C26   H1    S    
C19   C23   A    
C1    O15   A    
C25   H2    S    
C28   C32   A    
C1    C12   S    
C2    O16   A    
C15   C24   A    
C24   H7    S    
O20   V2    S    
