data_mof_unit_61082.cif
_audit_creation_date              2013-03-05T15:47:54-0500
_audit_creation_method            fapswitch 2.2
_symmetry_space_group_name_H-M    P1
_symmetry_Int_Tables_number       1
_space_group_crystal_system       triclinic
_cell_length_a                    25.93256
_cell_length_b                    25.862359
_cell_length_c                    22.151553
_cell_angle_alpha                 90.161498
_cell_angle_beta                  125.572148
_cell_angle_gamma                 89.915328
_cell_volume                      12084.0191746

loop_
_atom_site_label
_atom_site_type_symbol
_atom_site_description
_atom_site_fract_x
_atom_site_fract_y
_atom_site_fract_z
_atom_type_partial_charge
Zn1   Zn    Zn3+2 0.824150 0.706610 0.561580 1.095051
Zn2   Zn    Zn3+2 0.824150 0.293390 0.561580 1.099901
Zn3   Zn    Zn3+2 0.324150 0.206610 0.561580 1.095102
Zn4   Zn    Zn3+2 0.324150 0.793390 0.561580 1.099900
Zn5   Zn    Zn3+2 0.762580 0.793370 0.438420 1.050549
Zn6   Zn    Zn3+2 0.762580 0.206630 0.438420 1.050352
Zn7   Zn    Zn3+2 0.262580 0.293370 0.438420 1.050602
Zn8   Zn    Zn3+2 0.262580 0.706630 0.438420 1.050297
Zn9   Zn    Zn3+2 0.737390 0.793360 0.561580 1.084754
Zn10  Zn    Zn3+2 0.737390 0.206640 0.561580 1.082048
Zn11  Zn    Zn3+2 0.237390 0.293360 0.561580 1.084919
Zn12  Zn    Zn3+2 0.237390 0.706640 0.561580 1.082101
Zn13  Zn    Zn3+2 0.675820 0.706600 0.438420 1.075707
Zn14  Zn    Zn3+2 0.675820 0.293400 0.438420 1.082873
Zn15  Zn    Zn3+2 0.175820 0.206600 0.438420 1.075713
Zn16  Zn    Zn3+2 0.175820 0.793400 0.438420 1.082889
O1    O     O_3   0.749980 0.749980 0.500000 -0.517431
O2    O     O_3   0.749980 0.250020 0.500000 -0.515203
O3    O     O_3   0.249980 0.249980 0.500000 -0.517440
O4    O     O_3   0.249980 0.750020 0.500000 -0.515174
O5    O     O_R   0.637430 0.719620 0.335600 -0.606644
O6    O     O_R   0.637430 0.280380 0.335600 -0.605144
O7    O     O_R   0.137430 0.219620 0.335600 -0.606655
O8    O     O_R   0.137430 0.780380 0.335600 -0.605109
O9    O     O_R   0.862530 0.719620 0.664390 -0.607181
O10   O     O_R   0.862530 0.280380 0.664390 -0.604591
O11   O     O_R   0.362530 0.219620 0.664390 -0.607187
O12   O     O_R   0.362530 0.780380 0.664390 -0.604577
O13   O     O_R   0.844250 0.780360 0.456900 -0.621994
O14   O     O_R   0.844250 0.219640 0.456900 -0.634093
O15   O     O_R   0.344250 0.280360 0.456900 -0.622016
O16   O     O_R   0.344250 0.719640 0.456900 -0.634186
O17   O     O_R   0.655730 0.780340 0.543100 -0.595925
O18   O     O_R   0.655730 0.219660 0.543100 -0.599691
O19   O     O_R   0.155730 0.280340 0.543100 -0.595886
O20   O     O_R   0.155730 0.719660 0.543100 -0.599726
O21   O     O_R   0.758810 0.865800 0.456900 -0.624149
O22   O     O_R   0.758810 0.134200 0.456900 -0.620811
O23   O     O_R   0.258810 0.365800 0.456900 -0.624051
O24   O     O_R   0.258810 0.634200 0.456900 -0.620698
O25   O     O_R   0.698070 0.634180 0.456900 -0.600480
O26   O     O_R   0.698070 0.365820 0.456900 -0.602979
O27   O     O_R   0.198070 0.134180 0.456900 -0.600539
O28   O     O_R   0.198070 0.865820 0.456900 -0.603033
O29   O     O_R   0.741180 0.865790 0.543100 -0.601696
O30   O     O_R   0.741180 0.134210 0.543100 -0.608657
O31   O     O_R   0.241180 0.365790 0.543100 -0.601668
O32   O     O_R   0.241180 0.634210 0.543100 -0.608669
O33   O     O_R   0.801890 0.634180 0.543100 -0.599540
O34   O     O_R   0.801890 0.365820 0.543100 -0.599205
O35   O     O_R   0.301890 0.134180 0.543100 -0.599473
O36   O     O_R   0.301890 0.865820 0.543100 -0.599202
O37   O     O_R   0.887340 0.719630 0.543100 -0.615163
O38   O     O_R   0.887340 0.280370 0.543100 -0.616553
O39   O     O_R   0.387340 0.219630 0.543100 -0.615159
O40   O     O_R   0.387340 0.780370 0.543100 -0.616572
O41   O     O_R   0.612630 0.719610 0.456900 -0.622162
O42   O     O_R   0.612630 0.280390 0.456900 -0.616881
O43   O     O_R   0.112630 0.219610 0.456900 -0.622153
O44   O     O_R   0.112630 0.780390 0.456900 -0.616842
O45   O     O_R   0.698160 0.780350 0.335610 -0.629231
O46   O     O_R   0.698160 0.219650 0.335610 -0.630384
O47   O     O_R   0.198160 0.280350 0.335610 -0.629221
O48   O     O_R   0.198160 0.719650 0.335610 -0.630526
O49   O     O_R   0.801810 0.780340 0.664400 -0.604614
O50   O     O_R   0.801810 0.219660 0.664400 -0.608033
O51   O     O_R   0.301810 0.280340 0.664400 -0.604453
O52   O     O_R   0.301810 0.719660 0.664400 -0.608034
C1    C     C_R   0.650318 0.749973 0.300543 0.853502
C2    C     C_R   0.650362 0.249977 0.300514 0.857227
C3    C     C_R   0.150318 0.249973 0.300543 0.853505
C4    C     C_R   0.150362 0.749976 0.300513 0.857348
C5    C     C_R   0.849569 0.749988 0.699489 0.886553
C6    C     C_R   0.849661 0.250007 0.699455 0.889055
C7    C     C_R   0.349574 0.249992 0.699490 0.886492
C8    C     C_R   0.349661 0.750006 0.699455 0.889050
C9    C     C_R   0.890347 0.750495 0.500449 0.832900
C10   C     C_R   0.890815 0.248674 0.501351 0.851209
C11   C     C_R   0.390348 0.250497 0.500452 0.832973
C12   C     C_R   0.390817 0.748670 0.501355 0.851298
C13   C     C_R   0.610184 0.749914 0.500722 0.897833
C14   C     C_R   0.610115 0.250051 0.500469 0.907087
C15   C     C_R   0.110183 0.249914 0.500720 0.897882
C16   C     C_R   0.110116 0.750053 0.500470 0.907165
C17   C     C_R   0.752245 0.890147 0.502005 0.854374
C18   C     C_R   0.751310 0.109828 0.500948 0.855139
C19   C     C_R   0.252237 0.390147 0.501999 0.854413
C20   C     C_R   0.251302 0.609828 0.500943 0.855207
C21   C     C_R   0.750247 0.609880 0.499506 0.951493
C22   C     C_R   0.750260 0.390111 0.499526 0.947918
C23   C     C_R   0.250246 0.109880 0.499520 0.951495
C24   C     C_R   0.250260 0.890112 0.499522 0.947894
C25   C     C_R   0.722037 0.553817 0.365235 0.166862
C26   C     C_R   0.722199 0.445568 0.365336 0.166928
C27   C     C_R   0.222050 0.053837 0.365263 0.166863
C28   C     C_R   0.222158 0.945589 0.365317 0.166858
C29   C     C_R   0.694780 0.526539 0.298341 0.229893
C30   C     C_R   0.694869 0.472547 0.298392 0.229432
C31   C     C_R   0.194765 0.026575 0.298356 0.229777
C32   C     C_R   0.194822 0.972584 0.298384 0.229386
C33   C     C_R   0.736542 0.472209 0.430294 -0.081310
C34   C     C_R   0.736475 0.527471 0.430255 -0.082226
C35   C     C_R   0.236529 0.972219 0.430294 -0.081310
C36   C     C_R   0.236478 0.027481 0.430271 -0.082251
C37   C     C_R   0.752708 0.553928 0.495900 -0.151699
C38   C     C_R   0.752703 0.446033 0.495911 -0.151557
C39   C     C_R   0.252711 0.053930 0.495917 -0.151678
C40   C     C_R   0.252700 0.946035 0.495911 -0.151571
C41   C     C_R   0.772529 0.526921 0.560987 0.217712
C42   C     C_R   0.772318 0.473290 0.560911 0.213526
C43   C     C_R   0.272533 0.026920 0.561000 0.217732
C44   C     C_R   0.272321 0.973288 0.560917 0.213561
C45   C     C_3   0.515428 0.201544 0.024566 -0.307843
C46   C     C_3   0.517483 0.798391 0.024999 -0.308541
C47   C     C_3   0.016925 0.701577 0.024554 -0.307748
C48   C     C_3   0.017510 0.298390 0.024999 -0.308513
C49   C     C_3   0.948421 0.723039 0.975636 0.276528
C50   C     C_3   0.948716 0.277524 0.975757 0.277320
C51   C     C_3   0.447605 0.224357 0.975638 0.276418
C52   C     C_3   0.448701 0.777502 0.975756 0.277303
H1    H     H_    0.527846 0.161165 0.045088 0.218484
H2    H     H_    0.531651 0.838623 0.045884 0.218262
H3    H     H_    0.030588 0.661283 0.045069 0.218489
H4    H     H_    0.031699 0.338619 0.045885 0.218279
C53   C     C_1   0.889346 0.750457 0.778813 -0.055466
C54   C     C_1   0.889503 0.249675 0.778785 -0.059461
C55   C     C_1   0.389370 0.250487 0.778815 -0.055421
C56   C     C_1   0.389504 0.749674 0.778785 -0.059488
C57   C     C_1   0.611070 0.250103 0.221186 -0.059394
C58   C     C_1   0.610889 0.749786 0.221202 -0.060045
C59   C     C_1   0.111070 0.750088 0.221183 -0.059436
C60   C     C_1   0.110890 0.249786 0.221201 -0.060033
C61   C     C_3   0.031758 0.729943 0.974801 0.271691
C62   C     C_3   0.032078 0.269587 0.975105 0.272045
C63   C     C_3   0.531130 0.228672 0.974824 0.271741
C64   C     C_3   0.532068 0.769609 0.975106 0.272064
C65   C     C_3   0.963653 0.750917 0.926610 -0.077353
C66   C     C_3   0.963692 0.249209 0.926596 -0.076623
C67   C     C_3   0.463686 0.250992 0.926616 -0.077511
C68   C     C_3   0.463693 0.749208 0.926596 -0.076618
C69   C     C_3   0.553442 0.277285 0.024398 0.282114
C70   C     C_3   0.552181 0.721092 0.024244 0.282223
C71   C     C_3   0.052594 0.778460 0.024383 0.282185
C72   C     C_3   0.052166 0.221072 0.024242 0.282238
C73   C     C_3   0.537341 0.250630 0.073391 -0.077119
C74   C     C_3   0.537175 0.749401 0.073384 -0.076605
C75   C     C_3   0.037344 0.750566 0.073386 -0.077143
C76   C     C_3   0.037177 0.249401 0.073384 -0.076609
C77   C     C_3   0.984066 0.799922 0.975422 -0.300486
C78   C     C_3   0.983352 0.200207 0.974962 -0.302472
C79   C     C_3   0.485593 0.300096 0.975419 -0.300070
C80   C     C_3   0.483378 0.700203 0.974962 -0.302448
C81   C     C_3   0.469908 0.272967 0.025189 0.275608
C82   C     C_3   0.468805 0.728988 0.024875 0.275360
C83   C     C_3   0.969246 0.771553 0.025196 0.275319
C84   C     C_3   0.968796 0.229012 0.024875 0.275328
C85   C     C_1   0.922882 0.750785 0.845528 0.121097
C86   C     C_1   0.923014 0.249383 0.845504 0.120206
C87   C     C_1   0.422917 0.250840 0.845532 0.121177
C88   C     C_1   0.423014 0.749382 0.845504 0.120221
C89   C     C_1   0.577878 0.250331 0.154470 0.120460
C90   C     C_1   0.577668 0.749596 0.154477 0.119555
C91   C     C_1   0.077884 0.750294 0.154466 0.120322
C92   C     C_1   0.077669 0.249596 0.154477 0.119568
H5    H     H_    0.970405 0.840213 0.954890 0.219689
H6    H     H_    0.969164 0.159980 0.954062 0.218804
H7    H     H_    0.473173 0.340471 0.954879 0.219778
H8    H     H_    0.469211 0.659975 0.954063 0.218830
C93   C     C_R   0.572405 0.652516 0.537624 0.226878
C94   C     C_R   0.588186 0.338238 0.571737 0.207205
C95   C     C_R   0.072473 0.152543 0.537771 0.226828
C96   C     C_R   0.088261 0.838180 0.571893 0.207152
C97   C     C_R   0.544131 0.605486 0.533156 -0.184923
C98   C     C_R   0.570475 0.381739 0.593137 -0.171205
C99   C     C_R   0.044247 0.105514 0.533425 -0.184973
C100  C     C_R   0.070600 0.881649 0.593410 -0.171116
H9    H     H_    0.570722 0.570018 0.545259 0.217841
H10   H     H_    0.603306 0.413760 0.619645 0.225077
H11   H     H_    0.070867 0.070056 0.545596 0.217877
H12   H     H_    0.103460 0.913647 0.619979 0.225097
C101  C     C_R   0.483644 0.603763 0.517235 0.310747
C102  C     C_R   0.511694 0.384469 0.581624 0.334606
C103  C     C_R   0.983773 0.103784 0.517543 0.310781
C104  C     C_R   0.011833 0.884378 0.581935 0.334597
C105  C     C_R   0.453283 0.650222 0.511093 -0.217042
C106  C     C_R   0.471063 0.341899 0.551257 -0.223980
C107  C     C_R   0.953368 0.150242 0.511292 -0.217015
C108  C     C_R   0.971158 0.841839 0.551470 -0.223951
H13   H     H_    0.409384 0.647662 0.505771 0.215628
H14   H     H_    0.427157 0.343969 0.546383 0.195553
H15   H     H_    0.909474 0.147689 0.505985 0.215494
H16   H     H_    0.927258 0.843904 0.546611 0.195415
C109  C     C_R   0.478681 0.698447 0.510414 0.011737
C110  C     C_R   0.487226 0.297152 0.529028 0.010584
C111  C     C_R   0.978720 0.198459 0.510502 0.011711
C112  C     C_R   0.987272 0.797123 0.529128 0.010612
C113  C     C_R   0.537062 0.699421 0.518170 -0.003033
C114  C     C_R   0.544970 0.295969 0.535068 -0.002905
C115  C     C_R   0.037096 0.199434 0.518243 -0.002974
C116  C     C_R   0.045010 0.795940 0.535153 -0.002920
C117  C     C_R   0.557747 0.747285 0.507509 -0.126730
C118  C     C_R   0.556928 0.252057 0.505812 -0.119942
C119  C     C_R   0.057742 0.247289 0.507500 -0.126671
C120  C     C_R   0.056924 0.752058 0.505805 -0.119942
C121  C     C_R   0.525991 0.793613 0.500075 0.251524
C122  C     C_R   0.516629 0.208745 0.480016 0.244638
C123  C     C_R   0.025949 0.293612 0.499986 0.251521
C124  C     C_R   0.016578 0.708773 0.479911 0.244668
H17   H     H_    0.449377 0.828718 0.495364 0.198910
H18   H     H_    0.433075 0.175239 0.460841 0.195511
H19   H     H_    0.949303 0.328717 0.495209 0.198896
H20   H     H_    0.932985 0.675286 0.460655 0.195478
C125  C     C_R   0.473122 0.792653 0.500819 -0.175868
C126  C     C_R   0.463501 0.209024 0.480447 -0.172665
C127  C     C_R   0.973079 0.292655 0.500729 -0.175736
C128  C     C_R   0.963449 0.709050 0.480339 -0.172661
C129  C     C_R   0.448227 0.745926 0.503969 -0.091250
C130  C     C_R   0.447736 0.252840 0.503003 -0.081146
C131  C     C_R   0.948225 0.245933 0.503965 -0.091189
C132  C     C_R   0.947735 0.752838 0.503002 -0.081073
H21   H     H_    0.673957 0.952771 0.396328 0.157458
H22   H     H_    0.673252 0.046180 0.395743 0.158356
H23   H     H_    0.173746 0.452772 0.396462 0.157461
H24   H     H_    0.173042 0.546182 0.395880 0.158403
C133  C     C_R   0.861783 0.946691 0.636224 0.273297
C134  C     C_R   0.863816 0.055252 0.631679 0.257554
C135  C     C_R   0.361924 0.446687 0.636069 0.273087
C136  C     C_R   0.363956 0.555251 0.631501 0.257324
C137  C     C_R   0.909035 0.975111 0.697149 -0.124406
C138  C     C_R   0.910301 0.028347 0.694709 -0.140544
C139  C     C_R   0.409291 0.475106 0.696903 -0.124215
C140  C     C_R   0.410556 0.528340 0.694448 -0.140229
H25   H     H_    0.947761 0.955544 0.746034 0.201616
H26   H     H_    0.950025 0.048807 0.741585 0.202024
H27   H     H_    0.448087 0.455537 0.745727 0.201439
H28   H     H_    0.450348 0.548798 0.741253 0.201991
C141  C     C_R   0.810640 0.028246 0.570289 0.029218
C142  C     C_R   0.810135 0.972635 0.571775 0.024665
C143  C     C_R   0.310705 0.528246 0.570197 0.029252
C144  C     C_R   0.310200 0.472634 0.571690 0.024838
C145  C     C_R   0.759142 0.946047 0.507727 -0.030534
C146  C     C_R   0.758962 0.054039 0.506461 -0.026207
C147  C     C_R   0.259120 0.446048 0.507718 -0.030497
C148  C     C_R   0.258939 0.554039 0.506449 -0.026256
C149  C     C_R   0.712048 0.973140 0.445077 -0.155444
C150  C     C_R   0.711713 0.026317 0.444635 -0.156506
C151  C     C_R   0.211915 0.473141 0.445147 -0.155442
C152  C     C_R   0.211581 0.526318 0.444707 -0.156532
Br1   Br    Br    0.798646 0.563416 0.651260 -0.303841
Br2   Br    Br    0.797212 0.437108 0.650694 -0.307183
Br3   Br    Br    0.298654 0.063410 0.651276 -0.304037
Br4   Br    Br    0.297215 0.937100 0.650697 -0.307257
Br5   Br    Br    0.550477 0.859756 0.484554 -0.415834
Br6   Br    Br    0.531381 0.148024 0.441657 -0.427936
Br7   Br    Br    0.050393 0.359739 0.484365 -0.415795
Br8   Br    Br    0.031272 0.648094 0.441426 -0.427756
Br9   Br    Br    0.662517 0.648585 0.585792 -0.438533
Br10  Br    Br    0.675498 0.339374 0.605643 -0.444664
Br11  Br    Br    0.162577 0.148635 0.585873 -0.438596
Br12  Br    Br    0.175552 0.839322 0.605721 -0.444666
N1    N     N_R   0.954085 0.054856 0.509640 0.254113
O53   O     O_R   0.975027 0.012930 0.498129 -0.331989
O54   O     O_R   0.902656 0.052386 0.506951 -0.336763
N2    N     N_R   0.993871 0.929933 0.602729 0.251352
O55   O     O_R   0.036593 0.962440 0.650852 -0.327668
O56   O     O_R   0.934274 0.941166 0.569451 -0.327599
N3    N     N_R   0.453895 0.554840 0.509180 0.254165
O57   O     O_R   0.474768 0.512943 0.497502 -0.331934
O58   O     O_R   0.402465 0.552359 0.506487 -0.336696
N4    N     N_R   0.493669 0.430057 0.602279 0.251194
O59   O     O_R   0.536346 0.462622 0.650329 -0.328097
O60   O     O_R   0.434055 0.441260 0.568936 -0.327682
Br13  Br    Br    0.880272 0.873702 0.647358 -0.513668
Br14  Br    Br    0.884941 0.127146 0.634516 -0.512121
Br15  Br    Br    0.380326 0.373682 0.647219 -0.514347
Br16  Br    Br    0.384986 0.627171 0.634332 -0.512398
Br17  Br    Br    0.749421 0.623701 0.365463 -0.438322
Br18  Br    Br    0.749787 0.375654 0.365729 -0.436446
Br19  Br    Br    0.249492 0.123706 0.365527 -0.438343
Br20  Br    Br    0.249708 0.875670 0.365663 -0.436518
Br21  Br    Br    0.661257 0.563211 0.206609 -0.253257
Br22  Br    Br    0.661468 0.435457 0.206735 -0.255155
Br23  Br    Br    0.161243 0.063267 0.206639 -0.253265
Br24  Br    Br    0.161368 0.935519 0.206705 -0.254392
Br25  Br    Br    0.872825 0.682664 0.939676 -0.301830
Br26  Br    Br    0.873639 0.318644 0.939957 -0.303736
Br27  Br    Br    0.370790 0.185790 0.939673 -0.302176
Br28  Br    Br    0.373602 0.818591 0.939955 -0.303799
Br29  Br    Br    0.426099 0.305370 0.062354 -0.318265
Br30  Br    Br    0.423488 0.699253 0.061588 -0.323098
Br31  Br    Br    0.924478 0.802003 0.062371 -0.318562
Br32  Br    Br    0.923464 0.199310 0.061589 -0.323078
Br33  Br    Br    0.630243 0.315902 0.060473 -0.282019
Br34  Br    Br    0.627263 0.679984 0.060062 -0.279878
Br35  Br    Br    0.128190 0.818839 0.060386 -0.281098
Br36  Br    Br    0.127227 0.179934 0.060058 -0.279906
Br37  Br    Br    0.076567 0.699574 0.937628 -0.318782
Br38  Br    Br    0.077453 0.299217 0.938403 -0.316047
Br39  Br    Br    0.575003 0.196356 0.937682 -0.318746
Br40  Br    Br    0.577428 0.799272 0.938405 -0.316151

loop_
_geom_bond_atom_site_label_1
_geom_bond_atom_site_label_2
_geom_bond_distance
_ccdc_geom_bond_type
C93   Br9   1.925778 S    
C61   C65   1.536207 S    
Zn5   O21   1.930736 S    
C70   C74   1.536176 S    
O23   C19   1.271936 A    
C64   C68   1.536187 S    
C63   C67   1.536232 S    
C41   Br1   1.940047 S    
C141  C146  1.427653 A    
C145  C149  1.392648 A    
O42   C14   1.276333 A    
C27   C31   1.403527 A    
O46   C2    1.278832 A    
C135  Br15  1.927800 S    
Zn4   O12   1.912204 S    
C3    C60   1.429547 S    
O34   C22   1.271353 A    
C120  C124  1.406565 A    
Zn3   O3    1.941147 S    
C75   C83   1.536211 S    
C68   C80   1.544064 S    
C25   Br17  1.941764 S    
O28   C24   1.276845 A    
C69   C73   1.536110 S    
C122  C126  1.383328 A    
C67   C87   1.461000 S    
C51   C81   1.541281 S    
C69   C79   1.549366 S    
C149  C150  1.375331 A    
Zn4   O40   1.935011 S    
O11   C7    1.278348 A    
C47   H3    1.110070 S    
C28   Br20  1.941708 S    
C23   C39   1.452334 S    
C27   Br19  1.941785 S    
C14   C118  1.452182 S    
C103  N1    1.438544 S    
C2    C57   1.429328 S    
H17   C125  1.084498 S    
C106  H14   1.080623 S    
C137  C138  1.379225 A    
C10   C131  1.457503 S    
O16   C12   1.267542 A    
C74   C82   1.536200 S    
Zn16  O4    1.941145 S    
C32   Br24  1.933246 S    
Zn13  O5    1.912400 S    
Zn2   O10   1.912204 S    
Zn6   O14   1.938806 S    
O47   C3    1.279849 A    
Zn7   O3    1.937801 S    
N4    O60   1.300299 A    
C99   C103  1.394033 A    
C94   C98   1.396485 A    
C100  C104  1.393256 A    
C101  C105  1.398446 A    
C133  Br13  1.927796 S    
C70   Br34  1.937055 S    
O24   C20   1.269598 A    
Zn11  O19   1.938598 S    
C77   C83   1.549221 S    
C71   Br35  1.937027 S    
C119  C123  1.407560 A    
C72   Br36  1.937056 S    
C79   H7    1.110093 S    
C135  C144  1.435404 A    
C104  N2    1.436032 S    
C48   C50   1.548924 S    
C138  H26   1.083244 S    
C79   C81   1.549218 S    
Zn9   O49   1.915088 S    
Zn4   O4    1.939988 S    
C71   C77   1.549355 S    
C48   C62   1.549021 S    
C45   C63   1.548988 S    
C46   C64   1.549022 S    
Zn8   O24   1.933254 S    
C50   C66   1.536136 S    
C36   C39   1.429230 A    
O25   C21   1.277348 A    
N3    O58   1.301579 A    
C43   C44   1.387058 A    
C98   C102  1.393249 A    
C111  C131  1.420812 A    
C29   C30   1.396354 A    
C109  C129  1.420844 A    
Zn12  O52   1.913698 S    
C73   C89   1.460906 S    
O22   C18   1.269587 A    
Zn10  O2    1.937496 S    
C29   Br21  1.933252 S    
N1    O53   1.301351 A    
Zn13  O41   1.934969 S    
C70   C80   1.549333 S    
C78   H6    1.110082 S    
C140  H28   1.083274 S    
Zn16  O44   1.936213 S    
Zn1   O37   1.936255 S    
C72   C78   1.549331 S    
Zn2   O34   1.932854 S    
Zn3   O39   1.936255 S    
C24   C40   1.452252 S    
N2    O55   1.301612 A    
C114  C118  1.426361 A    
Zn6   O22   1.933254 S    
C50   C84   1.541336 S    
Zn16  O28   1.931975 S    
C52   C68   1.536135 S    
C97   H9    1.083159 S    
C58   C90   1.202219 T    
C134  C141  1.433334 A    
C141  C142  1.438957 A    
C111  C115  1.421192 A    
Zn10  O50   1.913698 S    
C57   C89   1.202108 T    
C76   C92   1.461117 S    
C77   H5    1.110082 S    
C126  C130  1.390685 A    
C12   C129  1.457516 S    
H23   C151  1.084755 S    
C134  C138  1.389781 A    
O5    C1    1.279523 A    
O26   C22   1.276844 A    
O31   C19   1.271008 A    
C63   Br39  1.937072 S    
C26   Br18  1.941726 S    
C66   C86   1.461140 S    
C116  C120  1.426386 A    
C52   C82   1.541336 S    
Zn5   O45   1.913546 S    
Zn7   O47   1.913546 S    
Zn8   O48   1.914936 S    
O51   C7    1.278603 A    
C49   Br25  1.937141 S    
C25   C29   1.403591 A    
C121  Br5   1.925666 S    
O8    C4    1.278232 A    
C51   Br27  1.937177 S    
C33   C38   1.429195 A    
C52   Br28  1.937184 S    
C37   C41   1.404696 A    
Zn7   O23   1.930736 S    
C39   C43   1.404680 A    
C106  C110  1.411696 A    
C128  C132  1.390678 A    
N3    O57   1.301390 A    
C105  H13   1.076221 S    
O52   C8    1.279504 A    
C76   C84   1.536203 S    
Zn1   O1    1.941147 S    
O40   C12   1.275876 A    
Zn13  O1    1.939985 S    
C108  H16   1.080639 S    
Zn14  O6    1.910657 S    
C95   Br11  1.925787 S    
Zn15  O27   1.932559 S    
C75   C91   1.460933 S    
C68   C88   1.461142 S    
C16   C120  1.452181 S    
C110  C114  1.424068 A    
C5    C53   1.429288 S    
C28   C32   1.403499 A    
C67   C79   1.544042 S    
C96   C116  1.431913 A    
O9    C5    1.278330 A    
C137  H25   1.083318 S    
C121  C125  1.380934 A    
C63   C69   1.541592 S    
O13   C9    1.271213 A    
C21   C37   1.452380 S    
C93   C97   1.394390 A    
C139  H27   1.083349 S    
O18   C14   1.269089 A    
O6    C2    1.278190 A    
C96   C100  1.396489 A    
C115  C119  1.423704 A    
Zn9   O29   1.933350 S    
C33   C34   1.429224 A    
Zn11  O31   1.933350 S    
C143  C144  1.438985 A    
Zn12  O32   1.930831 S    
Zn13  O25   1.932559 S    
C42   Br2   1.939798 S    
Zn15  O3    1.939985 S    
C74   C90   1.461117 S    
C142  C145  1.431355 A    
Zn11  O3    1.932478 S    
C146  C150  1.391286 A    
C93   C113  1.427361 A    
O43   C15   1.275827 A    
C53   C85   1.202099 T    
Zn5   O1    1.937801 S    
C26   C30   1.403490 A    
C47   C75   1.543879 S    
C84   Br32  1.937005 S    
C34   C37   1.429313 A    
C102  C106  1.396212 A    
C45   C73   1.543868 S    
C64   C70   1.541580 S    
O35   C23   1.270971 A    
C45   C51   1.548853 S    
H24   C152  1.084680 S    
C81   Br29  1.937071 S    
C47   C49   1.548879 S    
O32   C20   1.272790 A    
C98   H10   1.083133 S    
C112  C116  1.424086 A    
C83   Br31  1.937018 S    
C97   C101  1.394018 A    
Zn9   O17   1.938598 S    
C133  C142  1.435375 A    
C80   H8    1.110081 S    
Zn14  O42   1.936213 S    
O7    C3    1.279523 A    
C22   C38   1.452218 S    
C15   C119  1.454150 S    
Zn2   O38   1.935011 S    
O33   C21   1.271000 A    
C48   C76   1.543963 S    
O19   C15   1.266529 A    
C13   C117  1.454156 S    
C47   C61   1.549004 S    
C144  C147  1.431374 A    
C133  C137  1.391458 A    
C40   C44   1.404318 A    
O37   C9    1.275153 A    
C60   C92   1.202219 T    
C127  C131  1.391826 A    
O39   C11   1.275162 A    
C69   Br33  1.937119 S    
C59   C91   1.202112 T    
C123  C127  1.380954 A    
C102  N4    1.436009 S    
C147  C151  1.392644 A    
C8    C56   1.429434 S    
O36   C24   1.271368 A    
O12   C8    1.279670 A    
C136  C140  1.389792 A    
C4    C59   1.429362 S    
Zn3   O35   1.932271 S    
C48   H4    1.110069 S    
Zn15  O43   1.934969 S    
C25   C34   1.433963 A    
C20   C148  1.451865 S    
C30   Br22  1.933412 S    
C65   C85   1.460966 S    
C51   C67   1.536083 S    
Zn6   O46   1.914936 S    
C41   C42   1.387046 A    
H22   C150  1.084653 S    
C135  C139  1.391466 A    
Zn3   O11   1.910462 S    
C50   Br26  1.937184 S    
C148  C152  1.391293 A    
N2    O56   1.300295 A    
C28   C35   1.433869 A    
C35   C36   1.429213 A    
C61   Br37  1.937032 S    
N4    O59   1.301626 A    
C134  Br14  1.929659 S    
C46   C52   1.548925 S    
O38   C10   1.275850 A    
O50   C6    1.279506 A    
H19   C127  1.084496 S    
Zn2   O2    1.939988 S    
Zn14  O2    1.941145 S    
C72   C76   1.536176 S    
C110  C130  1.416800 A    
C66   C78   1.544064 S    
C71   C75   1.536156 S    
Zn8   O4    1.932782 S    
Zn12  O4    1.937496 S    
Zn4   O36   1.932854 S    
O21   C17   1.271922 A    
C103  C107  1.398442 A    
C62   Br38  1.937014 S    
C43   Br3   1.940028 S    
O49   C5    1.278603 A    
C123  Br7   1.925658 S    
C95   C115  1.427375 A    
C101  N3    1.438540 S    
H20   C128  1.084368 S    
C26   C33   1.433887 A    
C1    C58   1.429545 S    
Zn1   O33   1.932271 S    
Zn10  O30   1.930831 S    
C113  C117  1.423682 A    
C143  C148  1.427686 A    
Zn12  O20   1.937912 S    
C107  H15   1.076260 S    
C18   C146  1.451899 S    
Zn14  O26   1.931975 S    
C73   C81   1.536186 S    
Zn15  O7    1.912400 S    
Zn16  O8    1.910657 S    
C78   C84   1.549221 S    
Zn1   O9    1.910462 S    
C65   C77   1.544001 S    
C17   C145  1.453104 S    
C112  C132  1.416788 A    
Zn11  O51   1.915088 S    
C44   Br4   1.939796 S    
Zn5   O13   1.938120 S    
C54   C86   1.202203 T    
Zn6   O2    1.932782 S    
C61   C71   1.541579 S    
Zn7   O15   1.938120 S    
Zn8   O16   1.938806 S    
C46   C74   1.543960 S    
C136  C143  1.433378 A    
C94   Br10  1.926952 S    
N1    O54   1.301594 A    
C125  C129  1.391834 A    
C11   C130  1.457403 S    
C99   H11   1.083147 S    
H18   C126  1.084365 S    
C95   C99   1.394396 A    
C82   Br30  1.937005 S    
O27   C23   1.277357 A    
C104  C108  1.396225 A    
O14   C10   1.267559 A    
O29   C17   1.271027 A    
C49   C83   1.541288 S    
C19   C147  1.453079 S    
C31   C32   1.396330 A    
C100  H12   1.083134 S    
C45   H1    1.110080 S    
Zn10  O18   1.937912 S    
C35   C40   1.429219 A    
Zn9   O1    1.932478 S    
C80   C82   1.549218 S    
O41   C13   1.275836 A    
C96   Br12  1.926955 S    
C122  Br6   1.924405 S    
C55   C87   1.202135 T    
C94   C114  1.431900 A    
C27   C36   1.433945 A    
C56   C88   1.202205 T    
C62   C72   1.541579 S    
C38   C42   1.404299 A    
O45   C1    1.279849 A    
C117  C121  1.407566 A    
C107  C111  1.415466 A    
C49   C65   1.536105 S    
C105  C109  1.415478 A    
C62   C66   1.536186 S    
C151  C152  1.375324 A    
C9    C132  1.457394 S    
O15   C11   1.271209 A    
O44   C16   1.276318 A    
C6    C54   1.429433 S    
H21   C149  1.084730 S    
O20   C16   1.269105 A    
C109  C113  1.421175 A    
O10   C6    1.279668 A    
O48   C4    1.278804 A    
C136  Br16  1.929667 S    
C46   H2    1.110071 S    
C108  C112  1.411706 A    
C124  C128  1.383331 A    
C118  C122  1.406569 A    
C139  C140  1.379201 A    
C124  Br8   1.924397 S    
O17   C13   1.266519 A    
C64   Br40  1.937015 S    
O30   C18   1.272807 A    
C7    C55   1.429317 S    
C31   Br23  1.933255 S    
