data_mof_unit_11474.cif
_audit_creation_date              2012-12-10T17:07:12-0500
_audit_creation_method            fapswitch 2.2
_symmetry_space_group_name_H-M    P1
_symmetry_Int_Tables_number       1
_space_group_crystal_system       triclinic
_cell_length_a                    18.374341
_cell_length_b                    18.362386
_cell_length_c                    18.271623
_cell_angle_alpha                 119.976637
_cell_angle_beta                  120.2586
_cell_angle_gamma                 59.728393
_cell_volume                      4342.37270656

loop_
_atom_site_label
_atom_site_type_symbol
_atom_type_description
_atom_site_fract_x
_atom_site_fract_y
_atom_site_fract_z
_atom_type_partial_charge
C1    C     C_R   0.140011 0.858966 0.638857 0.798974
C2    C     C_R   0.815605 0.239577 0.921667 -0.149368
C3    C     C_R   0.780742 0.244710 0.834518 0.077739
C4    C     C_R   0.834394 0.190782 0.779404 0.058058
C5    C     C_R   0.695323 0.305027 0.803272 -0.143862
C6    C     C_R   0.662639 0.312907 0.717857 0.019864
C7    C     C_R   0.713008 0.254348 0.659051 -0.024825
C8    C     C_R   0.800293 0.195272 0.692136 -0.171456
C9    C     C_R   0.579229 0.377527 0.689274 -0.178888
C10   C     C_R   0.546805 0.385665 0.606196 -0.215580
C11   C     C_R   0.593048 0.326539 0.546772 -0.244098
C12   C     C_R   0.861374 0.139873 0.359888 0.771430
C13   C     C_R   0.673041 0.256282 0.568877 0.497308
C14   C     C_R   0.943114 0.182827 0.291448 -0.182159
C15   C     C_R   0.981384 0.204971 0.259328 -0.145433
C16   C     C_R   0.927337 0.260030 0.206389 -0.154291
C17   C     C_R   0.834563 0.292825 0.184589 -0.182308
C18   C     C_R   0.794412 0.271359 0.216456 0.094972
C19   C     C_R   0.849433 0.215824 0.270775 0.089834
C20   C     C_R   0.808955 0.195826 0.303684 -0.041765
C21   C     C_R   0.716571 0.231127 0.284362 -0.202867
C22   C     C_R   0.662709 0.284924 0.230988 -0.209842
C23   C     C_R   0.140002 0.140030 0.640295 0.765187
C24   C     C_R   0.700720 0.304648 0.196535 -0.050636
C25   C     C_R   0.751126 0.844310 0.432010 0.575138
C26   C     C_R   0.748618 0.802351 0.476963 -0.243549
C27   C     C_R   0.741780 0.717730 0.432523 -0.264893
C28   C     C_R   0.730199 0.677426 0.341443 -0.141038
C29   C     C_R   0.729550 0.719860 0.294181 0.031706
C30   C     C_R   0.757327 0.795028 0.344122 -0.088767
C31   C     C_R   0.790108 0.816522 0.303778 -0.198206
C32   C     C_R   0.769419 0.781880 0.209439 0.517706
C33   C     C_R   0.723818 0.720766 0.158544 -0.328698
C34   C     C_R   0.855342 0.864175 0.359751 0.858042
C35   C     C_R   0.702743 0.690261 0.199310 -0.131751
C36   C     C_R   0.123525 0.685181 0.576096 -0.226697
C37   C     C_R   0.113376 0.603736 0.548014 0.533519
C38   C     C_R   0.168635 0.549643 0.602379 -0.248653
C39   C     C_R   0.231300 0.577777 0.684895 -0.216503
C40   C     C_R   0.239806 0.661664 0.715923 0.020730
C41   C     C_R   0.185198 0.716125 0.660788 0.023489
C42   C     C_R   0.196131 0.798645 0.690660 -0.099804
C43   C     C_R   0.261408 0.825174 0.771856 -0.309655
C44   C     C_R   0.314211 0.772738 0.826904 0.466234
C45   C     C_R   0.139952 0.861037 0.359898 0.812844
C46   C     C_R   0.303586 0.691312 0.799257 -0.169851
C47   C     C_R   0.261630 0.926094 0.369242 -0.148188
C48   C     C_R   0.320097 0.956262 0.373345 -0.142034
C49   C     C_R   0.373285 0.902188 0.319188 -0.150448
C50   C     C_R   0.368881 0.817631 0.261031 -0.149614
C51   C     C_R   0.310780 0.785127 0.256200 0.026584
C52   C     C_R   0.256168 0.840289 0.310924 0.097975
C53   C     C_R   0.195637 0.809120 0.303634 -0.138221
C54   C     C_R   0.186873 0.726945 0.241022 -0.300426
C55   C     C_R   0.239117 0.672936 0.185778 0.509971
C56   C     C_R   0.858345 0.139798 0.638001 0.903640
C57   C     C_R   0.303448 0.700320 0.195810 -0.194501
C58   C     C_R   0.169539 0.217958 0.557246 -0.179554
C59   C     C_R   0.186412 0.251797 0.516341 -0.229414
C60   C     C_R   0.246778 0.297740 0.566426 -0.257110
C61   C     C_R   0.290677 0.311555 0.658946 0.484801
C62   C     C_R   0.268351 0.284233 0.703342 -0.007724
C63   C     C_R   0.210246 0.232966 0.650531 0.042406
C64   C     C_R   0.195571 0.196349 0.692066 -0.021728
C65   C     C_R   0.234804 0.212810 0.784451 -0.193565
C66   C     C_R   0.287634 0.266626 0.837069 -0.224887
C67   C     C_R   0.922377 0.134462 0.814041 -0.150265
C68   C     C_R   0.304395 0.303017 0.798111 -0.077771
C69   C     C_R   0.643690 0.636633 0.140854 0.818057
C70   C     C_R   0.359888 0.359847 0.859107 0.900928
C71   C     C_R   0.640730 0.360254 0.140106 0.783178
C72   C     C_R   0.359975 0.638573 0.858751 0.828180
C73   C     C_R   0.359916 0.640627 0.140026 0.861182
C74   C     C_R   0.639919 0.360343 0.860218 0.767104
C75   C     C_R   0.954483 0.129689 0.899233 -0.139636
C76   C     C_R   0.901032 0.181798 0.952748 -0.142896
H1    H     H_    0.564728 0.335514 0.482547 0.137782
H2    H     H_    0.987306 0.140398 0.332909 0.112945
H3    H     H_    0.053293 0.179697 0.275956 0.128986
H4    H     H_    0.957475 0.277662 0.182382 0.131207
H5    H     H_    0.794803 0.335520 0.143432 0.112004
H6    H     H_    0.590921 0.311106 0.216175 0.143189
H7    H     H_    0.752351 0.835108 0.546493 0.147946
H8    H     H_    0.742666 0.684341 0.467978 0.173455
H9    H     H_    0.726437 0.611128 0.310468 0.178612
H10   H     H_    0.968109 0.093932 0.776634 0.125081
H11   H     H_    0.707127 0.694398 0.086433 0.188893
H12   H     H_    0.269994 0.888015 0.793679 0.163404
H13   H     H_    0.082999 0.723113 0.530371 0.159944
H14   H     H_    0.163945 0.485023 0.580208 0.156578
H15   H     H_    0.273710 0.532281 0.722980 0.199627
H16   H     H_    0.140604 0.703639 0.236590 0.171004
H17   H     H_    0.219880 0.971239 0.410828 0.129039
H18   H     H_    0.323333 0.022254 0.417896 0.138782
H19   H     H_    0.021479 0.085859 0.924078 0.127958
H20   H     H_    0.417433 0.925980 0.321109 0.146386
H21   H     H_    0.410036 0.779220 0.218859 0.128757
H22   H     H_    0.223369 0.184763 0.816155 0.135053
H23   H     H_    0.124163 0.180173 0.515133 0.129944
H24   H     H_    0.153884 0.240690 0.444948 0.155624
H25   H     H_    0.260605 0.321579 0.532820 0.144574
H26   H     H_    0.315946 0.279923 0.908978 0.143031
H27   H     H_    0.926332 0.178307 0.019104 0.140335
H28   H     H_    0.778282 0.280831 0.967545 0.134453
H29   H     H_    0.537414 0.423831 0.730372 0.160104
H30   H     H_    0.484152 0.437335 0.586998 0.168061
H31   H     H_    0.686052 0.216723 0.310567 0.145087
O1    O     O_3   0.000000 0.000000 0.500000 -0.502614
O2    O     O_R   0.055100 0.176520 0.615800 -0.640601
O3    O     O_R   0.884180 0.884200 0.444920 -0.607189
O4    O     O_R   0.176510 0.884190 0.615800 -0.630884
O5    O     O_R   0.884210 0.055080 0.323480 -0.643127
O6    O     O_3   0.499970 0.500030 0.999970 -0.489198
O7    O     O_R   0.615800 0.615830 0.055050 -0.636772
O8    O     O_R   0.444880 0.323510 0.884180 -0.640835
O9    O     O_R   0.615760 0.444950 0.176490 -0.640569
O10   O     O_R   0.323460 0.615830 0.884170 -0.660131
O11   O     O_R   0.444880 0.615840 0.176480 -0.644449
O12   O     O_R   0.055060 0.884200 0.615800 -0.651253
O13   O     O_R   0.615800 0.444940 0.884180 -0.639296
O14   O     O_R   0.323440 0.615840 0.055040 -0.631690
O15   O     O_R   0.615780 0.323500 0.884180 -0.648102
O16   O     O_R   0.615760 0.323500 0.055050 -0.638145
O17   O     O_R   0.444910 0.615830 0.884180 -0.603811
O18   O     O_R   0.615780 0.615830 0.176490 -0.664339
O19   O     O_R   0.323430 0.444950 0.884170 -0.625518
O20   O     O_R   0.884210 0.176520 0.444920 -0.617880
O21   O     O_R   0.176540 0.055080 0.615800 -0.640778
O22   O     O_R   0.884190 0.884200 0.323480 -0.586663
O23   O     O_R   0.176540 0.884190 0.444930 -0.638653
O24   O     O_R   0.884180 0.055090 0.615790 -0.631322
O25   O     O_R   0.055100 0.884190 0.323490 -0.633102
O26   O     O_R   0.884190 0.176530 0.615790 -0.606563
Zn1   Zn    Zn3+2 0.956630 0.130130 0.543370 0.990034
Zn2   Zn    Zn3+2 0.130140 0.956620 0.543380 0.960663
Zn3   Zn    Zn3+2 0.956630 0.956620 0.369870 0.990597
Zn4   Zn    Zn3+2 0.956610 0.956630 0.543370 0.990088
Zn5   Zn    Zn3+2 0.543340 0.369890 0.956600 0.972038
Zn6   Zn    Zn3+2 0.543340 0.543410 0.130100 0.954525
Zn7   Zn    Zn3+2 0.369830 0.543410 0.956590 0.983911
Zn8   Zn    Zn3+2 0.543370 0.543400 0.956600 0.975732
O27   O     O_3   0.801348 0.802743 0.169891 -0.573836
C77   C     C_3   0.736611 0.820629 0.089772 -0.305506
H32   H     H_    0.667327 0.855537 0.092234 0.143812
H33   H     H_    0.740580 0.757886 0.031558 0.174089
H34   H     H_    0.751988 0.865102 0.079159 0.203032
O28   O     O_3   0.744356 0.933621 0.471285 -0.640645
C78   C     C_3   0.664206 0.989683 0.491860 0.069482
H35   H     H_    0.666372 0.058718 0.525717 0.184061
H36   H     H_    0.660263 0.973972 0.540815 0.136348
C79   C     C_3   0.580075 0.988073 0.407370 -0.409250
H37   H     H_    0.588879 0.994945 0.355765 0.234041
H38   H     H_    0.570172 0.923039 0.379045 0.215645
C80   C     C_3   0.496528 0.063173 0.428091 -0.977169
H39   H     H_    0.482759 0.053755 0.474840 0.277966
H40   H     H_    0.438116 0.062800 0.365080 0.260021
H41   H     H_    0.504918 0.129180 0.458357 0.258910
O29   O     O_3   0.054328 0.574704 0.463521 -0.651562
C81   C     C_3   0.986162 0.564603 0.469569 0.071790
H42   H     H_    0.920953 0.607291 0.435250 0.182402
H43   H     H_    0.988281 0.586594 0.539582 0.127562
C82   C     C_3   0.989179 0.467385 0.420933 -0.349884
H44   H     H_    0.980348 0.447794 0.349491 0.231864
H45   H     H_    0.055245 0.422982 0.452153 0.220528
C83   C     C_3   0.915855 0.454304 0.425218 -0.921707
H46   H     H_    0.922860 0.474246 0.496103 0.265655
H47   H     H_    0.921404 0.382912 0.391972 0.283958
H48   H     H_    0.848788 0.494644 0.390369 0.257350
O30   O     O_3   0.378633 0.799787 0.907293 -0.601468
C84   C     C_3   0.340157 0.854212 0.976064 0.093610
H49   H     H_    0.312673 0.925161 0.980013 0.135349
H50   H     H_    0.284759 0.836273 0.965003 0.072228
C85   C     C_3   0.411396 0.844088 0.066208 -0.332939
H51   H     H_    0.379720 0.885214 0.119059 0.157677
H52   H     H_    0.438471 0.773170 0.062172 0.206474
C86   C     C_3   0.488292 0.873538 0.093258 -0.787732
H53   H     H_    0.536362 0.867909 0.160258 0.222952
H54   H     H_    0.462631 0.944115 0.097053 0.238530
H55   H     H_    0.524265 0.830242 0.044024 0.286274
O31   O     O_3   0.234215 0.588940 0.127950 -0.610029
C87   C     C_3   0.152272 0.598175 0.056182 -0.263027
H56   H     H_    0.153513 0.531155 0.005162 0.191340
H57   H     H_    0.142132 0.641038 0.022861 0.167920
H58   H     H_    0.094975 0.624845 0.078808 0.160014
O32   O     O_3   0.356732 0.350031 0.706117 -0.690562
C88   C     C_3   0.430971 0.295276 0.675265 0.062479
H59   H     H_    0.483027 0.326850 0.721397 0.175244
H60   H     H_    0.414029 0.294940 0.607489 0.130547
C89   C     C_3   0.471091 0.198867 0.676574 -0.353424
H61   H     H_    0.473099 0.199013 0.738352 0.253259
H62   H     H_    0.428317 0.159728 0.617755 0.200250
C90   C     C_3   0.565819 0.152512 0.672772 -0.933715
H63   H     H_    0.569188 0.162842 0.619873 0.254965
H64   H     H_    0.586460 0.079851 0.658245 0.257150
H65   H     H_    0.613418 0.179158 0.738202 0.288937
O33   O     O_3   0.713882 0.191038 0.504854 -0.649672
C91   C     C_3   0.650856 0.164839 0.419047 0.016872
H66   H     H_    0.620839 0.214651 0.385462 0.147125
H67   H     H_    0.596741 0.157547 0.423517 0.141443
C92   C     C_3   0.698118 0.075307 0.361392 -0.296866
H68   H     H_    0.758888 0.077381 0.364918 0.229029
H69   H     H_    0.719413 0.023015 0.388334 0.238005
C93   C     C_3   0.637646 0.051210 0.263551 -0.992943
H70   H     H_    0.574434 0.051608 0.257907 0.257981
H71   H     H_    0.672958 0.983566 0.225549 0.285289
H72   H     H_    0.621291 0.099210 0.233091 0.267176

loop_
_geom_bond_atom_site_label_1
_geom_bond_atom_site_label_2
_ccdc_geom_bond_type
C36   H13   S    
C77   H34   S    
C66   C68   A    
C93   H70   S    
C40   C41   A    
C26   H7    S    
O26   Zn1   S    
C89   C90   S    
C41   C42   A    
C66   H26   S    
O23   Zn2   S    
O20   Zn1   S    
C4    C8    A    
C8    C56   S    
C6    C9    A    
C7    C13   A    
C56   O26   A    
C75   H19   S    
C7    C8    A    
C12   O20   A    
C53   C54   A    
O18   Zn6   S    
C40   C46   A    
C93   H71   S    
O16   Zn5   S    
O19   Zn7   S    
C26   C27   A    
C37   C38   A    
C48   H18   S    
C18   C24   A    
C43   H12   S    
C22   H6    S    
O14   Zn7   S    
C71   O16   A    
C28   C29   A    
C78   H36   S    
C65   H22   S    
O1    Zn3   S    
C46   C72   S    
C81   H42   S    
C1    O12   A    
O1    Zn4   S    
C85   C86   S    
C84   H49   S    
C9    H29   S    
C77   H32   S    
O22   Zn3   S    
C58   C63   A    
C91   H67   S    
C18   C19   A    
O30   C84   S    
C79   C80   S    
C57   C73   S    
C5    C74   S    
C89   H62   S    
C55   O31   S    
C44   O30   S    
C11   H1    S    
C86   H55   S    
C15   H3    S    
O28   C78   S    
C34   O22   A    
C92   H68   S    
C67   H10   S    
C13   O33   S    
C72   O10   A    
C36   C37   A    
C79   H37   S    
O6    Zn6   S    
C51   C57   A    
C9    C10   A    
C80   H40   S    
C61   C62   A    
O9    Zn6   S    
C70   O19   A    
C76   H27   S    
C86   H54   S    
C69   O18   A    
C59   C60   A    
C83   H47   S    
C85   H51   S    
C21   C22   A    
C72   O17   A    
C79   H38   S    
C59   H24   S    
C36   C41   A    
C89   H61   S    
O5    Zn3   S    
C39   H15   S    
C44   C46   A    
C50   C51   A    
C82   H45   S    
C85   H52   S    
C38   C39   A    
C23   O2    A    
C93   H72   S    
C69   O7    A    
C81   C82   S    
C58   H23   S    
C51   C52   A    
O12   Zn4   S    
C90   H65   S    
C23   C64   S    
C78   C79   S    
C78   H35   S    
O15   Zn5   S    
O1    Zn2   S    
C87   H57   S    
C39   C40   A    
C16   C17   A    
C25   C26   A    
C87   H56   S    
C3    C4    A    
C60   C61   A    
C16   H4    S    
C90   H64   S    
C37   O29   S    
C91   C92   S    
C75   C76   A    
O7    Zn8   S    
C54   H16   S    
C29   C30   A    
O24   Zn4   S    
C82   C83   S    
C1    C42   S    
C47   C48   A    
C14   C15   A    
O8    Zn5   S    
C2    H28   S    
C30   C31   A    
O25   Zn3   S    
C12   C20   S    
C62   C63   A    
C61   O32   S    
C17   C18   A    
C47   H17   S    
C31   C34   S    
C25   O28   S    
C35   C69   S    
C80   H39   S    
C21   H31   S    
C80   H41   S    
O6    Zn7   S    
C86   H53   S    
C74   O15   A    
C49   C50   A    
C83   H48   S    
C73   O14   A    
C55   C57   A    
C43   C44   A    
O29   C81   S    
C34   O3    A    
C22   C24   A    
O17   Zn8   S    
O21   Zn2   S    
O10   Zn7   S    
C67   C75   A    
C42   C43   A    
C88   H60   S    
C60   H25   S    
C12   O5    A    
C2    C76   A    
C52   C53   A    
C82   H44   S    
C87   H58   S    
C25   C30   A    
C77   H33   S    
C38   H14   S    
C54   C55   A    
C27   H8    S    
C50   H21   S    
C73   O11   A    
O2    Zn1   S    
O27   C77   S    
C32   O27   S    
C14   C19   A    
C31   C32   A    
O13   Zn8   S    
O33   C91   S    
C3    C5    A    
O1    Zn1   S    
C4    C67   A    
C6    C7    A    
C70   O8    A    
C74   O13   A    
C29   C35   A    
C62   C68   A    
C90   H63   S    
C19   C20   A    
C2    C3    A    
C58   C59   A    
C32   C33   A    
O3    Zn4   S    
C11   C13   A    
O4    Zn2   S    
O32   C88   S    
C5    C6    A    
C84   H50   S    
C88   C89   S    
C92   C93   S    
C48   C49   A    
C64   C65   A    
C33   C35   A    
O6    Zn8   S    
C71   O9    A    
C17   H5    S    
C14   H2    S    
C49   H20   S    
C33   H11   S    
C91   H66   S    
C56   O24   A    
C10   H30   S    
C10   C11   A    
C45   C53   S    
C63   C64   A    
C83   H46   S    
C45   O23   A    
C20   C21   A    
O11   Zn6   S    
C45   O25   A    
C68   C70   S    
C65   C66   A    
C47   C52   A    
C28   H9    S    
O6    Zn5   S    
C88   H59   S    
C81   H43   S    
C92   H69   S    
C1    O4    A    
O31   C87   S    
C15   C16   A    
C24   C71   S    
C23   O21   A    
C27   C28   A    
C84   C85   S    
