data_mof_unit_27067.cif
_audit_creation_date              2012-12-11T15:36:38-0500
_audit_creation_method            fapswitch 2.2
_symmetry_space_group_name_H-M    P1
_symmetry_Int_Tables_number       1
_space_group_crystal_system       triclinic
_cell_length_a                    15.062829
_cell_length_b                    15.071308
_cell_length_c                    34.843185
_cell_angle_alpha                 91.248504
_cell_angle_beta                  91.748561
_cell_angle_gamma                 60.101467
_cell_volume                      6853.8455759

loop_
_atom_site_label
_atom_site_type_symbol
_atom_type_description
_atom_site_fract_x
_atom_site_fract_y
_atom_site_fract_z
_atom_type_partial_charge
C1    C     C_R   0.610721 0.302571 0.444075 0.536658
C2    C     C_R   0.745381 0.688605 0.183175 0.028348
C3    C     C_R   0.615846 0.144963 0.829714 0.031999
C4    C     C_R   0.686253 0.164489 0.850136 -0.118638
C5    C     C_R   0.714640 0.131770 0.887803 -0.124216
C6    C     C_R   0.601244 0.249358 0.772558 -0.119723
C7    C     C_R   0.605704 0.258092 0.733071 -0.117357
C8    C     C_R   0.607297 0.183139 0.708145 0.028618
C9    C     C_R   0.599856 0.101497 0.722937 -0.114133
C10   C     C_R   0.597291 0.091597 0.762621 -0.115111
C11   C     C_R   0.600494 0.164246 0.787875 0.028333
C12   C     C_R   0.539549 0.204677 0.641129 -0.141606
C13   C     C_R   0.831055 0.623682 0.161410 -0.122596
C14   C     C_R   0.541249 0.231141 0.603261 -0.176078
C15   C     C_R   0.705667 0.222752 0.615403 0.281660
C16   C     C_R   0.703006 0.194789 0.653640 -0.110490
C17   C     C_R   0.618010 0.191157 0.666820 -0.014303
C18   C     C_R   0.621201 0.245278 0.590417 0.036073
C19   C     C_R   0.045589 0.739008 0.048553 0.543428
C20   C     C_R   0.747535 0.746668 0.064113 0.543505
C21   C     C_R   0.751352 0.040250 0.050701 0.541219
C22   C     C_R   0.016984 0.722464 0.939766 0.544041
C23   C     C_R   0.717281 0.730113 0.954879 0.541322
C24   C     C_R   0.829489 0.637854 0.121893 -0.125241
C25   C     C_R   0.721453 0.024386 0.942046 0.542225
C26   C     C_R   0.786241 0.584388 0.242606 -0.115965
C27   C     C_R   0.777440 0.578241 0.282066 -0.110192
C28   C     C_R   0.731222 0.667680 0.304704 0.037070
C29   C     C_R   0.700167 0.762581 0.287698 -0.114129
C30   C     C_R   0.708700 0.768713 0.248289 -0.117944
C31   C     C_R   0.748597 0.680047 0.225286 0.026327
C32   C     C_R   0.603735 0.731141 0.356456 -0.119489
C33   C     C_R   0.593227 0.610273 0.449176 0.579209
C34   C     C_R   0.569654 0.719445 0.391841 0.226306
C35   C     C_R   0.736786 0.567858 0.403829 0.224284
C36   C     C_R   0.770462 0.584393 0.368964 -0.123552
C37   C     C_R   0.703060 0.662953 0.344480 -0.060036
C38   C     C_R   0.634644 0.634422 0.415222 0.032773
C39   C     C_R   0.103243 0.727961 0.084806 -0.026188
C40   C     C_R   0.152119 0.632960 0.103433 -0.102657
C41   C     C_R   0.178800 0.626501 0.142419 0.275352
C42   C     C_R   0.154541 0.716562 0.163345 0.027276
C43   C     C_R   0.116301 0.809531 0.143935 -0.175187
C44   C     C_R   0.303971 0.591493 0.442345 0.543520
C45   C     C_R   0.090940 0.815247 0.104820 -0.147984
C46   C     C_R   0.218560 0.746679 0.226502 -0.133976
C47   C     C_R   0.225538 0.739151 0.266494 -0.117433
C48   C     C_R   0.170934 0.701406 0.286090 0.025320
C49   C     C_R   0.106596 0.674761 0.265007 -0.121188
C50   C     C_R   0.100404 0.681486 0.225107 -0.070046
C51   C     C_R   0.157936 0.715441 0.205599 0.047016
C52   C     C_R   0.199252 0.590861 0.342852 -0.119547
C53   C     C_R   0.229891 0.564750 0.381061 -0.127069
C54   C     C_R   0.232064 0.723306 0.390751 -0.111305
C55   C     C_R   0.605777 0.299973 0.553742 0.559822
C56   C     C_R   0.201083 0.749548 0.352547 -0.115375
C57   C     C_R   0.187756 0.681977 0.327883 0.030103
C58   C     C_R   0.250208 0.628979 0.405010 0.018852
C59   C     C_R   0.725164 0.097550 0.087205 0.023486
C60   C     C_R   0.801284 0.105227 0.108864 -0.126326
C61   C     C_R   0.786207 0.133481 0.147490 -0.123933
C62   C     C_R   0.694433 0.155689 0.164817 0.029592
C63   C     C_R   0.614784 0.157470 0.142287 -0.123269
C64   C     C_R   0.630169 0.128232 0.103760 -0.126734
C65   C     C_R   0.595819 0.243622 0.223360 -0.115850
C66   C     C_R   0.587681 0.606734 0.558980 0.538255
C67   C     C_R   0.586191 0.250157 0.263113 -0.114210
C68   C     C_R   0.665963 0.179098 0.286977 0.027543
C69   C     C_R   0.755501 0.101403 0.270368 -0.119892
C70   C     C_R   0.765243 0.095155 0.230621 -0.116168
C71   C     C_R   0.685568 0.166374 0.206837 0.029500
C72   C     C_R   0.740661 0.181845 0.351583 -0.123157
C73   C     C_R   0.727794 0.210096 0.390227 -0.134262
C74   C     C_R   0.551349 0.248424 0.385259 -0.129576
C75   C     C_R   0.564333 0.219904 0.346630 -0.125193
C76   C     C_R   0.657761 0.190645 0.329090 0.032090
C77   C     C_R   0.297880 0.589207 0.551654 0.543725
C78   C     C_R   0.631644 0.248288 0.406908 0.022164
C79   C     C_R   0.692361 0.689935 0.919662 0.020795
C80   C     C_R   0.767389 0.597955 0.903037 -0.127427
C81   C     C_R   0.756118 0.573747 0.864996 -0.123917
C82   C     C_R   0.669565 0.640868 0.842969 0.032002
C83   C     C_R   0.590186 0.727692 0.860722 -0.120536
C84   C     C_R   0.601361 0.751899 0.898771 -0.127953
C85   C     C_R   0.575235 0.650259 0.781399 -0.120499
C86   C     C_R   0.570264 0.649865 0.741381 -0.119197
C87   C     C_R   0.656983 0.626692 0.720019 0.027433
C88   C     C_R   0.742061 0.717072 0.103613 0.019216
C89   C     C_R   0.749764 0.600332 0.739360 -0.117590
C90   C     C_R   0.754682 0.601092 0.779426 -0.114600
C91   C     C_R   0.667035 0.627558 0.800829 0.028558
C92   C     C_R   0.723893 0.550448 0.655423 -0.127802
C93   C     C_R   0.708309 0.546931 0.615803 -0.127620
C94   C     C_R   0.548962 0.707928 0.619784 -0.126178
C95   C     C_R   0.564250 0.711079 0.659292 -0.123288
C96   C     C_R   0.649590 0.630315 0.677660 0.032777
C97   C     C_R   0.618389 0.623379 0.597908 0.024518
C98   C     C_R   0.065839 0.698689 0.902295 0.023738
C99   C     C_R   0.654392 0.777735 0.125177 -0.125317
C100  C     C_R   0.091548 0.766864 0.885830 -0.126208
C101  C     C_R   0.119148 0.755538 0.847547 -0.122158
C102  C     C_R   0.121006 0.676181 0.825166 0.032275
C103  C     C_R   0.101958 0.604064 0.842316 -0.121582
C104  C     C_R   0.074924 0.615011 0.880677 -0.126213
C105  C     C_R   0.194851 0.579158 0.764681 -0.119317
C106  C     C_R   0.203744 0.575869 0.725015 -0.116952
C107  C     C_R   0.153229 0.666311 0.703579 0.028667
C108  C     C_R   0.094083 0.760242 0.722295 -0.117910
C109  C     C_R   0.084635 0.763504 0.761998 -0.115603
C110  C     C_R   0.656159 0.763715 0.164597 -0.120904
C111  C     C_R   0.135047 0.672943 0.783479 0.029409
C112  C     C_R   0.198603 0.725993 0.645331 -0.119734
C113  C     C_R   0.233402 0.707678 0.607837 -0.126465
C114  C     C_R   0.198011 0.567446 0.602340 -0.124287
C115  C     C_R   0.163515 0.585664 0.639788 -0.122083
C116  C     C_R   0.168034 0.661951 0.662029 0.031510
C117  C     C_R   0.237973 0.625041 0.586751 0.023113
C118  C     C_R   0.673763 0.078275 0.905912 0.021288
C119  C     C_R   0.597926 0.064918 0.886617 -0.129119
C120  C     C_R   0.569305 0.097887 0.848720 -0.121851
Cr1   Cr    Cr6+3 0.426010 0.422500 0.497000 1.005434
Cr2   Cr    Cr6+3 0.651300 0.426310 0.501970 1.058577
Cr3   Cr    Cr6+3 0.422670 0.651170 0.501050 1.025057
Cr4   Cr    Cr6+3 0.905130 0.911420 0.992650 1.009968
Cr5   Cr    Cr6+3 0.911860 0.682710 0.002320 1.011400
Cr6   Cr    Cr6+3 0.682710 0.906840 0.004710 1.011301
H1    H     H_    0.585795 0.839113 0.111931 0.128613
H2    H     H_    0.900575 0.565077 0.175197 0.111804
H3    H     H_    0.163176 0.564453 0.088526 0.140544
H4    H     H_    0.053250 0.889543 0.091238 0.135880
H5    H     H_    0.190854 0.821161 0.341964 0.106587
H6    H     H_    0.276795 0.759003 0.281913 0.111971
H7    H     H_    0.263029 0.773440 0.211794 0.102585
H8    H     H_    0.062226 0.647274 0.279331 0.106306
H9    H     H_    0.898473 0.590197 0.106077 0.134694
H10   H     H_    0.051452 0.659126 0.209329 0.135168
H11   H     H_    0.190501 0.536698 0.324492 0.105136
H12   H     H_    0.243486 0.491427 0.391125 0.126835
H13   H     H_    0.098463 0.879090 0.159637 0.112652
H14   H     H_    0.246539 0.774755 0.408560 0.146520
H15   H     H_    0.875293 0.082006 0.096868 0.122430
H16   H     H_    0.570080 0.123399 0.087629 0.120421
H17   H     H_    0.499967 0.225035 0.330041 0.101132
H18   H     H_    0.517228 0.312217 0.275224 0.107863
H19   H     H_    0.533748 0.299492 0.205520 0.090921
H20   H     H_    0.848648 0.533895 0.360425 0.121327
H21   H     H_    0.847988 0.133312 0.164299 0.102588
H22   H     H_    0.817666 0.045217 0.288107 0.105755
H23   H     H_    0.834319 0.033472 0.218401 0.108733
H24   H     H_    0.813545 0.159557 0.338786 0.100021
H25   H     H_    0.791415 0.207952 0.406363 0.113644
H26   H     H_    0.543303 0.174435 0.155081 0.103289
H27   H     H_    0.476527 0.276737 0.397403 0.125235
H28   H     H_    0.838035 0.548063 0.918500 0.122629
H29   H     H_    0.542080 0.823213 0.910743 0.124174
H30   H     H_    0.507253 0.774876 0.675749 0.101670
H31   H     H_    0.800983 0.504236 0.294443 0.099765
H32   H     H_    0.498383 0.668025 0.727071 0.106893
H33   H     H_    0.506960 0.669623 0.797165 0.103732
H34   H     H_    0.817421 0.505161 0.852214 0.099105
H35   H     H_    0.817514 0.582458 0.723506 0.104552
H36   H     H_    0.826072 0.585039 0.793616 0.104720
H37   H     H_    0.790832 0.487699 0.668943 0.090909
H38   H     H_    0.763530 0.481412 0.599596 0.126468
H39   H     H_    0.522706 0.781097 0.844425 0.100606
H40   H     H_    0.479258 0.768621 0.606879 0.126359
H41   H     H_    0.086144 0.831453 0.902045 0.121487
H42   H     H_    0.817278 0.515087 0.225372 0.104189
H43   H     H_    0.055132 0.561565 0.892645 0.125914
H44   H     H_    0.138293 0.536763 0.652081 0.103712
H45   H     H_    0.251800 0.502833 0.711123 0.107981
H46   H     H_    0.235341 0.508578 0.780693 0.104780
H47   H     H_    0.135792 0.810715 0.835085 0.100872
H48   H     H_    0.054596 0.830696 0.706159 0.105971
H49   H     H_    0.036436 0.836569 0.775820 0.106192
H50   H     H_    0.202656 0.785256 0.662127 0.102247
H51   H     H_    0.263373 0.753551 0.596453 0.125785
H52   H     H_    0.102278 0.542543 0.825556 0.100428
H53   H     H_    0.588313 0.813039 0.180755 0.104981
H54   H     H_    0.199292 0.504171 0.586517 0.128987
H55   H     H_    0.565305 0.023688 0.899920 0.123899
H56   H     H_    0.772925 0.143552 0.902045 0.125971
H57   H     H_    0.765426 0.178283 0.673739 0.100323
H58   H     H_    0.609250 0.322783 0.721906 0.109742
H59   H     H_    0.601446 0.307726 0.791181 0.104928
H60   H     H_    0.513714 0.083181 0.833846 0.100306
H61   H     H_    0.600336 0.043465 0.703907 0.110326
H62   H     H_    0.597966 0.024535 0.773519 0.106265
H63   H     H_    0.473973 0.200871 0.650943 0.117899
H64   H     H_    0.665779 0.832365 0.304688 0.103382
H65   H     H_    0.476199 0.246858 0.584657 0.135918
H66   H     H_    0.724633 0.199308 0.836312 0.102655
H67   H     H_    0.681528 0.843099 0.235579 0.109717
H68   H     H_    0.549938 0.790912 0.337415 0.126184
O1    O     O_R   0.324990 0.503440 0.453910 -0.520536
O2    O     O_R   0.639980 0.519500 0.542640 -0.496418
O3    O     O_R   0.500750 0.673190 0.545480 -0.527858
O4    O     O_R   0.336260 0.640450 0.538210 -0.504913
O5    O     O_3   0.499990 0.499990 0.500010 -0.251289
O6    O     O_R   0.834210 0.019400 0.034570 -0.522546
O7    O     O_R   0.002210 0.824620 0.031030 -0.499850
O8    O     O_R   0.024400 0.669340 0.039790 -0.519222
O9    O     O_R   0.830490 0.694950 0.045870 -0.502033
O10   O     O_R   0.675430 0.831160 0.051290 -0.517644
O11   O     O_R   0.698870 0.998880 0.039560 -0.500119
O12   O     O_R   0.522030 0.339050 0.458320 -0.504787
O13   O     O_R   0.811290 0.006780 0.950620 -0.517478
O14   O     O_R   0.980960 0.812920 0.953200 -0.500916
O15   O     O_R   0.001480 0.656720 0.955830 -0.520987
O16   O     O_R   0.809240 0.683250 0.968050 -0.501963
O17   O     O_R   0.652500 0.818540 0.967340 -0.520623
O18   O     O_R   0.677620 0.987170 0.961730 -0.502409
O19   O     O_3   0.833240 0.833660 0.999890 -0.235280
O20   O     O_R   0.676180 0.324490 0.458320 -0.524286
O21   O     O_R   0.643570 0.521510 0.464260 -0.462642
O22   O     O_R   0.504630 0.675350 0.460920 -0.473014
O23   O     O_R   0.339850 0.642450 0.459830 -0.494580
O24   O     O_R   0.321120 0.501280 0.538470 -0.519188
O25   O     O_R   0.518440 0.337050 0.536710 -0.518459
O26   O     O_R   0.672300 0.322330 0.542880 -0.452272
O27   O     O_3   0.468274 0.783796 0.400957 -0.548718
C121  C     C_3   0.456441 0.878728 0.413332 -0.112054
H69   H     H_    0.468925 0.919060 0.389539 0.100068
H70   H     H_    0.508520 0.869379 0.438224 0.121440
H71   H     H_    0.376694 0.927892 0.422945 0.134492
O28   O     O_3   0.804573 0.489148 0.427603 -0.549719
C122  C     C_3   0.831621 0.394143 0.409847 -0.094261
H72   H     H_    0.887788 0.376362 0.386881 0.091691
H73   H     H_    0.763341 0.391386 0.398130 0.126125
H74   H     H_    0.868881 0.333234 0.431742 0.144071
O29   O     O_3   0.216916 0.533740 0.160749 -0.576110
C123  C     C_3   0.324578 0.486472 0.162426 -0.125990
H75   H     H_    0.350326 0.532602 0.179875 0.123684
H76   H     H_    0.356924 0.472183 0.133152 0.111959
H77   H     H_    0.355560 0.411204 0.176565 0.134122
O30   O     O_3   0.789774 0.225228 0.601050 -0.541239
C124  C     C_3   0.833487 0.264533 0.628004 -0.123625
H78   H     H_    0.888030 0.203188 0.647626 0.109152
H79   H     H_    0.774442 0.330881 0.644493 0.104703
H80   H     H_    0.878108 0.291823 0.612256 0.135823

loop_
_geom_bond_atom_site_label_1
_geom_bond_atom_site_label_2
_ccdc_geom_bond_type
C8    C9    A    
C15   C18   A    
C113  H51   S    
C49   H8    S    
C101  C102  A    
C22   C98   S    
C105  H46   S    
C35   O28   S    
C41   C42   A    
C14   C18   A    
Cr3   O4    S    
C101  H47   S    
C95   C96   A    
C100  C101  A    
C19   O7    A    
C72   C76   A    
C25   C118  S    
C94   H40   S    
C92   C93   A    
C114  C115  A    
C33   O21   A    
C16   H57   S    
C7    C8    A    
C85   C86   A    
Cr2   O21   S    
C12   H63   S    
C83   H39   S    
C6    H59   S    
C26   H42   S    
C59   C64   A    
C29   C30   A    
Cr2   O26   S    
C7    H58   S    
C90   H36   S    
C100  H41   S    
C19   C39   S    
C66   C97   S    
Cr3   O5    S    
C28   C29   A    
C21   C59   S    
C77   C117  S    
Cr6   O17   S    
C109  C111  A    
C54   C58   A    
C79   C84   A    
C80   C81   A    
C84   H29   S    
C98   C104  A    
C77   O24   A    
C30   H67   S    
C106  C107  A    
Cr6   O11   S    
C15   C16   A    
C22   O15   A    
C92   C96   A    
C108  C109  A    
C95   H30   S    
C119  H55   S    
C21   O11   A    
C93   H38   S    
C49   C50   A    
C2    C13   A    
C4    H66   S    
C118  C119  A    
Cr1   O5    S    
C13   H2    S    
Cr5   O19   S    
C54   H14   S    
C41   O29   S    
C44   C58   S    
C16   C17   A    
C65   C67   A    
C108  H48   S    
C12   C17   A    
C10   H62   S    
C107  C108  A    
C43   H13   S    
C70   C71   A    
Cr2   O5    S    
C52   H11   S    
C77   O4    A    
C34   O27   S    
C42   C51   S    
C39   C45   A    
C105  C111  A    
C45   H4    S    
C81   H34   S    
Cr3   O22   S    
C73   H25   S    
C1    C78   S    
Cr1   O25   S    
C102  C111  S    
C102  C103  A    
C70   H23   S    
Cr1   O12   S    
C115  H44   S    
C67   H18   S    
C89   H35   S    
C112  C113  A    
C33   O22   A    
C81   C82   A    
Cr4   O19   S    
C122  H73   S    
C85   C91   A    
C114  C117  A    
C107  C116  S    
C54   C56   A    
Cr5   O8    S    
C74   C75   A    
C63   C64   A    
C53   H12   S    
C88   C99   A    
C47   C48   A    
C48   C57   S    
C35   C38   A    
C20   O10   A    
C32   H68   S    
O30   C124  S    
C10   C11   A    
C6    C11   A    
Cr1   O24   S    
Cr5   O15   S    
C86   C87   A    
C68   C69   A    
C55   O25   A    
C23   O17   A    
C94   C97   A    
Cr6   O10   S    
C65   C71   A    
C99   C110  A    
C25   O13   A    
C46   C51   A    
C19   O8    A    
C82   C91   S    
C67   C68   A    
C74   H27   S    
C60   C61   A    
C35   C36   A    
C32   C34   A    
C1    O20   A    
C15   O30   S    
C25   O18   A    
C75   C76   A    
C62   C63   A    
Cr6   O19   S    
C60   H15   S    
O27   C121  S    
C24   C88   A    
C66   O2    A    
C122  H72   S    
C73   C78   A    
C87   C96   S    
C123  H76   S    
C50   C51   A    
C26   C27   A    
Cr4   O7    S    
C22   O14   A    
C94   C95   A    
C32   C37   A    
C119  C120  A    
C121  H70   S    
C1    O12   A    
C86   H32   S    
Cr5   O16   S    
C6    C7    A    
C75   H17   S    
C18   C55   S    
C113  C117  A    
C14   H65   S    
C24   H9    S    
C36   H20   S    
C40   C41   A    
O29   C123  S    
C12   C14   A    
C82   C83   A    
C114  H54   S    
C87   C89   A    
Cr4   O13   S    
C83   C84   A    
C27   H31   S    
C42   C43   A    
C21   O6    A    
C65   H19   S    
C3    C4    A    
C106  H45   S    
C93   C97   A    
C5    H56   S    
C112  C116  A    
C52   C53   A    
C92   H37   S    
C9    C10   A    
C56   C57   A    
C46   C47   A    
Cr5   O9    S    
C44   O1    A    
C112  H50   S    
C34   C38   A    
C5    C118  A    
C26   C31   A    
Cr3   O3    S    
C44   O23   A    
C33   C38   S    
C20   O9    A    
Cr2   O2    S    
C72   C73   A    
C9    H61   S    
C120  H60   S    
C52   C57   A    
C99   H1    S    
C53   C58   A    
C109  H49   S    
C80   H28   S    
C55   O26   A    
C23   O16   A    
C68   C76   S    
C40   H3    S    
C105  C106  A    
Cr4   O6    S    
C72   H24   S    
C8    C17   S    
C121  H71   S    
C47   H6    S    
C103  H52   S    
C124  H79   S    
C61   H21   S    
C28   C37   S    
C43   C45   A    
Cr6   O18   S    
C46   H7    S    
C90   C91   A    
C30   C31   A    
C64   H16   S    
C110  H53   S    
C48   C49   A    
C4    C5    A    
C20   C88   S    
C123  H75   S    
C62   C71   S    
C123  H77   S    
Cr3   O23   S    
C61   C62   A    
C98   C100  A    
C69   C70   A    
C63   H26   S    
C66   O3    A    
C3    C11   S    
C3    C120  A    
C79   C80   A    
C39   C40   A    
Cr2   O20   S    
C59   C60   A    
C122  H74   S    
C13   C24   A    
C36   C37   A    
O28   C122  S    
C74   C78   A    
C124  H80   S    
C103  C104  A    
C69   H22   S    
C29   H64   S    
C2    C31   S    
C50   H10   S    
C85   H33   S    
C23   C79   S    
C89   C90   A    
C124  H78   S    
C121  H69   S    
Cr1   O1    S    
Cr4   O14   S    
C56   H5    S    
C115  C116  A    
C104  H43   S    
C27   C28   A    
C2    C110  A    
