data_mof_unit_23039.cif
_audit_creation_date              2012-12-10T16:56:31-0500
_audit_creation_method            fapswitch 2.2
_symmetry_space_group_name_H-M    P1
_symmetry_Int_Tables_number       1
_space_group_crystal_system       triclinic
_cell_length_a                    7.765186
_cell_length_b                    8.600888
_cell_length_c                    15.69923
_cell_angle_alpha                 90.83396
_cell_angle_beta                  86.10851
_cell_angle_gamma                 92.994643
_cell_volume                      1044.60246493

loop_
_atom_site_label
_atom_site_type_symbol
_atom_type_description
_atom_site_fract_x
_atom_site_fract_y
_atom_site_fract_z
_atom_type_partial_charge
C1    C     C_R   0.543890 0.794351 0.496003 0.950302
C2    C     C_3   0.443019 0.358396 0.026326 0.030205
C3    C     C_1   0.507616 0.500987 0.750625 -0.147662
C4    C     C_1   0.492291 0.497451 0.249433 -0.148489
C5    C     C_3   0.340098 0.467314 0.974159 -0.236435
C6    C     C_3   0.660796 0.530806 0.025967 -0.237287
C7    C     C_3   0.505695 0.502027 0.916855 0.117449
C8    C     C_3   0.495200 0.496130 0.083238 0.117106
C9    C     C_1   0.508560 0.501756 0.825908 0.022328
C10   C     C_1   0.491832 0.496547 0.174160 0.023786
C11   C     C_2   0.622925 0.799248 0.945750 0.942510
C12   C     C_R   0.455362 0.205826 0.501628 0.914496
C13   C     C_2   0.378561 0.198807 0.054550 0.941055
C14   C     C_3   0.670790 0.001934 0.395062 -0.407622
C15   C     C_3   0.651703 0.889477 0.319433 -0.834592
C16   C     C_3   0.322672 0.000395 0.597315 -0.377051
C17   C     C_3   0.133308 0.973648 0.576989 -0.769895
C18   C     C_R   0.502515 0.500307 0.661943 0.890193
C19   C     C_R   0.497261 0.498438 0.338083 0.888928
C20   C     C_2   0.555076 0.953738 0.475000 -0.074896
C21   C     C_2   0.438564 0.045458 0.517377 -0.070372
C22   C     C_3   0.393065 0.606840 0.032444 -0.219595
C23   C     C_3   0.607847 0.391305 0.967655 -0.218602
C24   C     C_3   0.557910 0.639736 0.973796 0.030799
H1    H     H_    0.306064 0.695298 0.060538 0.169904
H2    H     H_    0.513000 0.862954 0.309181 0.253994
H3    H     H_    0.714773 0.942999 0.260531 0.266318
H4    H     H_    0.639998 0.116316 0.370046 0.236534
H5    H     H_    0.807956 0.009628 0.411514 0.220034
H6    H     H_    0.078971 0.084699 0.559412 0.256232
H7    H     H_    0.119498 0.889483 0.523385 0.264832
H8    H     H_    0.056582 0.927130 0.634131 0.236360
H9    H     H_    0.366771 0.897755 0.630187 0.213086
H10   H     H_    0.330449 0.095589 0.645916 0.195926
H11   H     H_    0.694885 0.302862 0.939581 0.170101
H12   H     H_    0.791446 0.557424 0.048831 0.161619
H13   H     H_    0.209413 0.440699 0.951338 0.162240
H14   H     H_    0.013867 0.382450 0.436205 0.194922
H15   H     H_    0.985955 0.616957 0.564066 0.195910
H16   H     H_    0.681294 0.947578 0.848567 0.342582
H17   H     H_    0.323077 0.050031 0.151811 0.343497
H18   H     H_    0.716469 0.780400 0.330161 0.271397
N1    N     N_2   0.950320 0.457950 0.477300 -0.173912
N2    N     N_2   0.049680 0.542050 0.522700 -0.174702
O1    O     O_R   0.389250 0.738570 0.505570 -0.615300
O2    O     O_R   0.636565 0.836184 0.859118 -0.812714
O3    O     O_2   0.336788 0.101537 0.001254 -0.614656
O4    O     O_R   0.367076 0.161590 0.141142 -0.809206
O5    O     O_R   0.610750 0.261430 0.494430 -0.637931
O6    O     O_R   0.678390 0.711630 0.491020 -0.626927
O7    O     O_R   0.321610 0.288370 0.508980 -0.617375
O8    O     O_R   0.355460 0.513480 0.630490 -0.611323
O9    O     O_R   0.644540 0.486520 0.369510 -0.622104
O10   O     O_R   0.644600 0.486540 0.615950 -0.616527
O11   O     O_R   0.355400 0.513460 0.384050 -0.615222
O12   O     O_2   0.663601 0.896611 0.999214 -0.616573
Zn1   Zn    Zn3+2 0.306940 0.517990 0.509710 0.946325
Zn2   Zn    Zn3+2 0.693060 0.482010 0.490290 0.936000

loop_
_geom_bond_atom_site_label_1
_geom_bond_atom_site_label_2
_ccdc_geom_bond_type
C13   O4    S    
C8    C22   S    
N1    N2    D    
H15   N2    S    
C3    C9    T    
C5    H13   S    
C16   H9    S    
C17   H7    S    
C1    O6    A    
C15   H3    S    
C1    C20   S    
N2    Zn1   S    
O9    Zn2   S    
C16   H10   S    
C6    C24   S    
C19   O9    A    
C12   O5    A    
C18   O8    A    
H14   N1    S    
C11   O12   D    
H16   O2    S    
C17   H6    S    
C1    O1    A    
C16   C21   S    
C7    C23   S    
C6    C23   S    
C2    C8    S    
C17   H8    S    
C8    C10   S    
H17   O4    S    
C6    H12   S    
C23   H11   S    
O11   Zn1   S    
O1    Zn1   S    
C22   C24   S    
C2    C5    S    
O8    Zn1   S    
C5    C22   S    
C14   H5    S    
C4    C10   T    
C7    C24   S    
O6    Zn2   S    
C14   C20   S    
C11   C24   S    
C12   O7    A    
C20   C21   D    
C3    C18   S    
C7    C9    S    
O10   Zn2   S    
C19   O11   A    
C2    C23   S    
C5    C7    S    
C2    C13   S    
C18   O10   A    
C14   C15   S    
C15   H2    S    
C6    C8    S    
N1    Zn2   S    
C14   H4    S    
C4    C19   S    
C13   O3    D    
C12   C21   S    
O7    Zn1   S    
O5    Zn2   S    
C15   H18   S    
C16   C17   S    
C11   O2    S    
C22   H1    S    
