data_mof_unit_40048.cif
_audit_creation_date              2013-03-05T16:42:23-0500
_audit_creation_method            fapswitch 2.2
_symmetry_space_group_name_H-M    P1
_symmetry_Int_Tables_number       1
_space_group_crystal_system       triclinic
_cell_length_a                    9.87803
_cell_length_b                    10.795902
_cell_length_c                    15.528504
_cell_angle_alpha                 90.417492
_cell_angle_beta                  69.181551
_cell_angle_gamma                 88.507055
_cell_volume                      1547.10869072

loop_
_atom_site_label
_atom_site_type_symbol
_atom_site_description
_atom_site_fract_x
_atom_site_fract_y
_atom_site_fract_z
_atom_type_partial_charge
O1    O     O_R   0.385310 0.683210 0.499990 -0.616618
O2    O     O_R   0.614650 0.683240 0.500000 -0.646692
C1    C     C_R   0.497251 0.739977 0.502944 0.924809
O3    O     O_R   0.319830 0.499970 0.632240 -0.583934
O4    O     O_R   0.549170 0.500000 0.632250 -0.558755
C2    C     C_R   0.410748 0.496690 0.676023 0.952327
Zn1   Zn    Zn3+2 0.346870 0.499980 0.499990 1.023062
Zn2   Zn    Zn3+2 0.653130 0.500020 0.500010 1.021927
O5    O     O_R   0.385350 0.316760 0.500000 -0.570352
O6    O     O_R   0.614690 0.316790 0.500010 -0.578160
O7    O     O_R   0.450830 0.500000 0.367750 -0.633210
O8    O     O_R   0.680170 0.500030 0.367760 -0.633216
C3    C     C_R   0.499105 0.260633 0.504667 0.937511
C4    C     C_R   0.589240 0.502658 0.324729 0.859193
C5    C     C_R   0.357199 0.498257 0.777658 -0.152947
C6    C     C_R   0.637345 0.532254 0.227481 -0.040121
C7    C     C_R   0.157540 0.490885 0.924460 -0.129983
C8    C     C_R   0.209495 0.483609 0.828413 -0.085808
C9    C     C_R   0.453185 0.516582 0.825276 0.288837
C10   C     C_R   0.397415 0.546363 0.919678 0.045070
C11   C     C_R   0.251476 0.520141 0.970641 0.111303
C12   C     C_R   0.487404 0.587971 0.966370 0.041883
C13   C     C_R   0.449125 0.562693 0.060170 0.070171
C14   C     C_R   0.304543 0.530792 0.110770 -0.187422
C15   C     C_R   0.204867 0.516607 0.066692 -0.183515
C16   C     C_R   0.609713 0.659568 0.923131 -0.176845
C17   C     C_R   0.704051 0.691977 0.968563 0.275662
C18   C     C_R   0.683669 0.640261 0.055636 0.021653
C19   C     C_R   0.556499 0.572434 0.099979 0.062023
C20   C     C_R   0.782726 0.656408 0.101531 -0.146791
C21   C     C_R   0.759578 0.602635 0.186650 -0.227413
C22   C     C_R   0.540491 0.513631 0.182369 -0.196542
H1    H     H_    0.093800 0.495660 0.107187 0.145835
H2    H     H_    0.450339 0.454072 0.213741 0.146649
H3    H     H_    0.833184 0.621399 0.222525 0.158766
H4    H     H_    0.044750 0.472512 0.962474 0.170855
H5    H     H_    0.135660 0.459645 0.794098 0.234077
H6    H     H_    0.264883 0.522696 0.184887 0.134244
H7    H     H_    0.629339 0.694198 0.854610 0.201881
H8    H     H_    0.876403 0.712737 0.074925 0.201850
C23   C     C_R   0.386630 0.941337 0.491204 -0.090254
C24   C     C_R   0.495381 0.872263 0.507284 -0.068666
C25   C     C_R   0.606545 0.932065 0.525771 -0.232498
H9    H     H_    0.688743 0.879349 0.541791 0.188369
C26   C     C_R   0.605842 0.060278 0.531837 0.299674
C27   C     C_R   0.498500 0.128943 0.510355 -0.193704
C28   C     C_R   0.391383 0.068195 0.488841 -0.077056
C29   C     C_3   0.229935 0.084413 0.532010 0.677442
C30   C     C_3   0.226333 0.944563 0.543023 0.143766
H10   H     H_    0.165869 0.897605 0.504720 0.116912
C31   C     C_R   0.884644 0.537828 0.576115 0.294740
N1    N     N_R   0.856900 0.500860 0.500610 -0.118508
C32   C     C_R   0.970291 0.454009 0.426816 -0.086258
H11   H     H_    0.950485 0.418481 0.367205 0.152076
C33   C     C_R   0.114248 0.454745 0.426561 -0.053302
H12   H     H_    0.202445 0.419741 0.366660 0.161928
N2    N     N_R   0.142540 0.500820 0.500610 -0.141903
C34   C     C_R   0.026692 0.534480 0.577165 0.196599
C35   C     C_3   0.003292 0.658139 0.622583 0.226863
C36   C     C_3   0.853283 0.664455 0.617745 -0.527465
H13   H     H_    0.077495 0.725956 0.579351 0.139861
H14   H     H_    0.763798 0.668578 0.685577 0.262963
H15   H     H_    0.843141 0.734202 0.568116 0.176415
N3    N     N_R   0.704483 0.117003 0.568429 0.237762
O9    O     O_R   0.654909 0.195599 0.637221 -0.286357
O10   O     O_R   0.834536 0.069424 0.548667 -0.320966
Cl1   Cl    Cl    0.162582 0.176242 0.636754 -0.417924
Cl2   Cl    Cl    0.155719 0.137049 0.448941 -0.563258
Cl3   Cl    Cl    0.186335 0.896542 0.659969 -0.425401
Cl4   Cl    Cl    0.999665 0.645203 0.736865 -0.456985
N4    N     N_R   0.815606 0.778742 0.925809 0.240288
O11   O     O_R   0.788812 0.870491 0.879745 -0.285029
O12   O     O_R   0.948339 0.757961 0.921192 -0.331271
Cl5   Cl    Cl    0.635473 0.459228 0.778397 -0.520114

loop_
_geom_bond_atom_site_label_1
_geom_bond_atom_site_label_2
_geom_bond_distance
_ccdc_geom_bond_type
C5    C8    1.404064 A    
C33   H12   1.081081 S    
C1    C24   1.428584 S    
C23   C24   1.387104 A    
C9    C10   1.402017 A    
C32   H11   1.081536 S    
C6    C21   1.395658 A    
Zn1   O7    1.942281 S    
C16   C17   1.403279 A    
C36   H15   1.109215 S    
C13   C19   1.410348 A    
C18   C19   1.424351 A    
C8    H5    1.080230 S    
C19   C22   1.392162 A    
C20   C21   1.392701 A    
O7    C4    1.292089 A    
C16   H7    1.082809 S    
C36   H14   1.108277 S    
O5    C3    1.287675 A    
C2    C5    1.475350 S    
C14   H6    1.080966 S    
C13   C14   1.416907 A    
C7    H4    1.083901 S    
Zn2   N1    2.016433 S    
C35   C36   1.509958 S    
C30   Cl3   1.799198 S    
O3    Zn1   1.974564 S    
C23   C30   1.498984 S    
C32   C33   1.420837 A    
C35   H13   1.099697 S    
C31   N1    1.355137 A    
C14   C15   1.395265 A    
O3    C2    1.304908 A    
N4    O12   1.300837 A    
C34   C35   1.478992 S    
C26   C27   1.413913 A    
C7    C11   1.399996 A    
O1    C1    1.292808 A    
N3    O10   1.300572 A    
C5    C9    1.410988 A    
C25   H9    1.080087 S    
C28   C29   1.499068 S    
Zn2   O8    1.974561 S    
C7    C8    1.395036 A    
C23   C28   1.371888 A    
C20   H8    1.076101 S    
C31   C34   1.408555 A    
C29   Cl2   1.784800 S    
C25   C26   1.386364 A    
C29   C30   1.520611 S    
C10   C12   1.411322 A    
C33   N2    1.369332 A    
C21   H3    1.083496 S    
C24   C25   1.401195 A    
C17   N4    1.440593 S    
N1    C32   1.368651 A    
C3    C27   1.425129 S    
Zn1   O5    2.004478 S    
C11   C15   1.397027 A    
C27   C28   1.394826 A    
O1    Zn1   2.023939 S    
C9    Cl5   1.777425 S    
O2    Zn2   2.004478 S    
O8    C4    1.296013 A    
O6    C3    1.286236 A    
O4    Zn2   1.942281 S    
C6    C22   1.389542 A    
C26   N3    1.437670 S    
N3    O9    1.301620 A    
C18   C20   1.413691 A    
O2    C1    1.283352 A    
N4    O11   1.301556 A    
N2    C34   1.363762 A    
O4    C2    1.294285 A    
C4    C6    1.453697 S    
C29   Cl1   1.801098 S    
C35   Cl4   1.768824 S    
C10   C11   1.413586 A    
Zn2   O6    2.023939 S    
C30   H10   1.109693 S    
C12   C16   1.409813 A    
C15   H1    1.083908 S    
C17   C18   1.415575 A    
C12   C13   1.399559 A    
C31   C36   1.485054 S    
Zn1   N2    2.014759 S    
C22   H2    1.081587 S    
