data_mof_unit_19384.cif
_audit_creation_date              2012-12-10T18:47:43-0500
_audit_creation_method            fapswitch 2.2
_symmetry_space_group_name_H-M    P1
_symmetry_Int_Tables_number       1
_space_group_crystal_system       triclinic
_cell_length_a                    9.891807
_cell_length_b                    10.704172
_cell_length_c                    15.549592
_cell_angle_alpha                 90.637302
_cell_angle_beta                  67.329195
_cell_angle_gamma                 89.484503
_cell_volume                      1518.98203883

loop_
_atom_site_label
_atom_site_type_symbol
_atom_type_description
_atom_site_fract_x
_atom_site_fract_y
_atom_site_fract_z
_atom_type_partial_charge
C1    C     C_R   0.499476 0.739962 0.500321 0.881672
C2    C     C_R   0.500551 0.260036 0.499643 0.881916
C3    C     C_R   0.353582 0.623310 0.092993 -0.214515
C4    C     C_R   0.683461 0.510678 0.892094 -0.208603
C5    C     C_R   0.251772 0.637610 0.052265 -0.224695
C6    C     C_R   0.785264 0.495530 0.932619 -0.223890
C7    C     C_R   0.603741 0.935511 0.523903 -0.177331
C8    C     C_R   0.396409 0.064474 0.475930 -0.177348
C9    C     C_R   0.604758 0.063481 0.523189 -0.162713
C10   C     C_R   0.395433 0.936502 0.476604 -0.161856
C11   C     C_R   0.500986 0.127507 0.499324 -0.021379
C12   C     C_R   0.499131 0.872481 0.500541 -0.020323
C13   C     C_R   0.965674 0.420707 0.442195 0.209917
C14   C     C_R   0.034443 0.579903 0.557296 0.206587
C15   C     C_R   0.108376 0.420858 0.442782 -0.137982
C16   C     C_R   0.891563 0.579147 0.557159 -0.143174
C17   C     C_R   0.408257 0.500465 0.676120 0.879502
C18   C     C_R   0.591855 0.501839 0.323997 0.882105
C19   C     C_R   0.353077 0.516679 0.777312 -0.061737
C20   C     C_R   0.649634 0.510156 0.222550 -0.062990
C21   C     C_R   0.180790 0.608155 0.920855 -0.217108
C22   C     C_R   0.841323 0.478425 0.070323 -0.214976
C23   C     C_R   0.215014 0.569077 0.828917 -0.184920
C24   C     C_R   0.795763 0.481127 0.166983 -0.175162
C25   C     C_R   0.452822 0.497815 0.819461 -0.251755
C26   C     C_R   0.552446 0.544145 0.181179 -0.258068
C27   C     C_R   0.426020 0.545330 0.908505 0.099254
C28   C     C_R   0.595762 0.544085 0.084471 0.098309
C29   C     C_R   0.285442 0.596977 0.960964 0.171579
C30   C     C_R   0.741745 0.506994 0.028758 0.168788
C31   C     C_R   0.534922 0.541002 0.946757 0.065380
C32   C     C_R   0.494328 0.570187 0.042508 0.067732
H1    H     H_    0.145431 0.679030 0.092928 0.156185
H2    H     H_    0.897286 0.470160 0.888803 0.154562
H3    H     H_    0.440290 0.563705 0.226126 0.161644
H4    H     H_    0.552936 0.447233 0.780336 0.155323
H5    H     H_    0.872958 0.456151 0.197976 0.186049
H6    H     H_    0.135830 0.583329 0.797725 0.184072
H7    H     H_    0.074177 0.650184 0.959719 0.153391
H8    H     H_    0.952806 0.449564 0.028304 0.155033
H9    H     H_    0.320388 0.658725 0.163424 0.150850
H10   H     H_    0.725212 0.500878 0.817201 0.157344
H11   H     H_    0.683794 0.886292 0.543241 0.163782
H12   H     H_    0.316343 0.113696 0.456607 0.163167
H13   H     H_    0.685279 0.111943 0.542093 0.172455
H14   H     H_    0.314962 0.888036 0.457655 0.172503
H15   H     H_    0.191858 0.357751 0.397045 0.163747
H16   H     H_    0.808116 0.642455 0.602707 0.163935
N1    N     N_R   0.142780 0.500030 0.500020 -0.104529
N2    N     N_R   0.857220 0.499970 0.499980 -0.104808
O1    O     O_R   0.385370 0.683250 0.500010 -0.595655
O2    O     O_R   0.614630 0.316750 0.499990 -0.595906
O3    O     O_R   0.614700 0.683220 0.500000 -0.626287
O4    O     O_R   0.385300 0.316780 0.500000 -0.625724
O5    O     O_R   0.319830 0.500020 0.632250 -0.588896
O6    O     O_R   0.680170 0.499980 0.367750 -0.588618
O7    O     O_R   0.549160 0.499990 0.632240 -0.621493
O8    O     O_R   0.450840 0.500010 0.367760 -0.623390
Zn1   Zn    Zn3+2 0.346870 0.500020 0.500000 0.974825
Zn2   Zn    Zn3+2 0.653130 0.499980 0.500000 0.975576
I1    I     I_    0.931205 0.294039 0.347731 -0.394516
I2    I     I_    0.069307 0.710850 0.648852 -0.406838

loop_
_geom_bond_atom_site_label_1
_geom_bond_atom_site_label_2
_ccdc_geom_bond_type
C21   C29   A    
C10   H14   S    
C19   C23   A    
C9    H13   S    
C14   C16   A    
C7    H11   S    
C27   C29   A    
C23   H6    S    
C1    O1    A    
C17   O5    A    
C5    C29   A    
C31   C32   A    
N1    Zn1   S    
C13   C15   A    
C18   O6    A    
C3    C5    A    
N2    Zn2   S    
C16   H16   S    
C28   C30   A    
C24   H5    S    
C22   H8    S    
C9    C11   A    
C8    H12   S    
C7    C12   A    
C1    C12   S    
C2    O2    A    
O2    Zn2   S    
C8    C11   A    
C2    C11   S    
C10   C12   A    
C8    C10   A    
C17   C19   S    
O3    Zn2   S    
C16   N2    A    
O5    Zn1   S    
O4    Zn1   S    
C15   N1    A    
C21   C23   A    
C3    C32   A    
C19   C25   A    
C4    H10   S    
C22   C24   A    
C4    C31   A    
O1    Zn1   S    
C25   H4    S    
C27   C31   A    
C13   N2    A    
C14   I2    S    
C6    H2    S    
C26   H3    S    
C28   C32   A    
C13   I1    S    
C14   N1    A    
C18   C20   S    
C4    C6    A    
C2    O4    A    
C7    C9    A    
C20   C24   A    
C15   H15   S    
C3    H9    S    
O7    Zn2   S    
C1    O3    A    
C22   C30   A    
C6    C30   A    
O8    Zn1   S    
C26   C28   A    
C21   H7    S    
C18   O8    A    
O6    Zn2   S    
C17   O7    A    
C20   C26   A    
C25   C27   A    
C5    H1    S    
