data_mof_unit_65874.cif
_audit_creation_date              2012-12-10T17:20:36-0500
_audit_creation_method            fapswitch 2.2
_symmetry_space_group_name_H-M    P1
_symmetry_Int_Tables_number       1
_space_group_crystal_system       triclinic
_cell_length_a                    10.257636
_cell_length_b                    10.72058
_cell_length_c                    13.58541
_cell_angle_alpha                 93.065084
_cell_angle_beta                  74.779932
_cell_angle_gamma                 97.920985
_cell_volume                      1427.56905042

loop_
_atom_site_label
_atom_site_type_symbol
_atom_type_description
_atom_site_fract_x
_atom_site_fract_y
_atom_site_fract_z
_atom_type_partial_charge
Br1   Br    Br    0.154740 0.717299 0.495548 -0.286905
Br2   Br    Br    0.926201 0.349490 0.346650 -0.335426
Br3   Br    Br    0.586074 0.086992 0.341046 -0.387796
Br4   Br    Br    0.424349 0.903160 0.675810 -0.386616
Br5   Br    Br    0.229609 0.084026 0.625393 -0.285925
Br6   Br    Br    0.788552 0.928670 0.421323 -0.282735
Br7   Br    Br    0.055767 0.293655 0.543692 -0.320308
Br8   Br    Br    0.846132 0.623244 0.624615 -0.399064
C1    C     C_R   0.559715 0.733068 0.493829 0.871924
C2    C     C_2   0.054332 0.468320 0.524488 0.281935
C3    C     C_1   0.444031 0.497666 0.882667 -0.022443
C4    C     C_1   0.556646 0.496497 0.116996 -0.002237
C5    C     C_2   0.601216 0.867355 0.485794 0.081145
C6    C     C_2   0.400150 0.133126 0.527231 0.096927
C7    C     C_2   0.510321 0.942518 0.533836 0.201772
C8    C     C_2   0.491574 0.055348 0.483339 0.171963
C9    C     C_3   0.303439 0.490560 0.064466 -0.394550
C10   C     C_3   0.275075 0.624354 0.101027 -0.368113
C11   C     C_3   0.140896 0.622612 0.183153 -0.720164
C12   C     C_R   0.440368 0.266652 0.507940 0.867698
C13   C     C_3   0.697241 0.502546 0.931270 -0.387297
C14   C     C_3   0.821485 0.502118 0.974623 -0.363829
C15   C     C_3   0.953295 0.508352 0.889483 -0.747393
C16   C     C_R   0.476377 0.503012 0.687902 0.914511
C17   C     C_R   0.523664 0.497017 0.312096 0.897887
C18   C     C_1   0.543039 0.496750 0.206339 -0.150725
C19   C     C_1   0.456874 0.500877 0.793583 -0.119522
C20   C     C_2   0.560859 0.496125 0.011834 0.092851
C21   C     C_2   0.441047 0.493029 0.987121 0.081533
C22   C     C_2   0.919287 0.503177 0.520658 0.323797
H1    H     H_    0.055126 0.574809 0.153744 0.260268
H2    H     H_    0.041040 0.508103 0.923018 0.243084
H3    H     H_    0.829003 0.584710 0.026871 0.239695
H4    H     H_    0.809977 0.414670 0.018255 0.250407
H5    H     H_    0.693268 0.420528 0.877929 0.226316
H6    H     H_    0.711530 0.589993 0.887057 0.236385
H7    H     H_    0.146126 0.572941 0.251439 0.281108
H8    H     H_    0.121473 0.720697 0.206141 0.272789
H9    H     H_    0.358668 0.672105 0.132944 0.245940
H10   H     H_    0.270128 0.679564 0.035392 0.244998
H11   H     H_    0.221853 0.445942 0.028977 0.214901
H12   H     H_    0.298391 0.431404 0.130444 0.229229
H13   H     H_    0.949994 0.425643 0.836901 0.277893
H14   H     H_    0.968689 0.596039 0.845563 0.287205
N1    N     N_2   0.847200 0.448220 0.460120 -0.006084
N2    N     N_2   0.152800 0.551780 0.539880 -0.012808
O1    O     O_R   0.430150 0.692610 0.508030 -0.558852
O2    O     O_R   0.569850 0.307390 0.491970 -0.565680
O3    O     O_R   0.653100 0.659360 0.482430 -0.563985
O4    O     O_R   0.346900 0.340640 0.517570 -0.563288
O5    O     O_R   0.372470 0.518990 0.654990 -0.588963
O6    O     O_R   0.627530 0.481010 0.345010 -0.574913
O7    O     O_R   0.595430 0.485740 0.629390 -0.586666
O8    O     O_R   0.404570 0.514260 0.370610 -0.598419
Zn1   Zn    Zn3+2 0.351130 0.522200 0.517090 1.088155
Zn2   Zn    Zn3+2 0.648870 0.477800 0.482910 1.098391

loop_
_geom_bond_atom_site_label_1
_geom_bond_atom_site_label_2
_ccdc_geom_bond_type
N2    Zn1   S    
C2    N2    D    
Br7   C2    S    
C10   H9    S    
C13   H5    S    
C11   H8    S    
O3    Zn2   S    
C9    C21   S    
C2    C22   S    
C22   N1    D    
O4    Zn1   S    
C16   C19   S    
C3    C19   T    
Br8   C22   S    
C15   H2    S    
Br4   C7    S    
C9    C10   S    
C17   C18   S    
C17   O6    A    
C11   H1    S    
C13   H6    S    
C13   C14   S    
Br6   C5    S    
Br5   C6    S    
C12   O2    A    
C16   O5    A    
C20   C21   D    
C13   C20   S    
C4    C20   S    
C1    O1    A    
O5    Zn1   S    
C5    C7    D    
Br2   N1    S    
C14   H4    S    
C6    C8    D    
Br1   N2    S    
C9    H11   S    
Br3   C8    S    
C7    C8    S    
C6    C12   S    
C9    H12   S    
C1    O3    A    
C17   O8    A    
C3    C21   S    
O1    Zn1   S    
C10   C11   S    
O7    Zn2   S    
O2    Zn2   S    
C14   H3    S    
C1    C5    S    
O8    Zn1   S    
C12   O4    A    
C11   H7    S    
C10   H10   S    
C16   O7    A    
C14   C15   S    
C15   H13   S    
C15   H14   S    
O6    Zn2   S    
N1    Zn2   S    
C4    C18   T    
