data_mof_unit_10492.cif
_audit_creation_date              2012-12-11T14:51:46-0500
_audit_creation_method            fapswitch 2.2
_symmetry_space_group_name_H-M    P1
_symmetry_Int_Tables_number       1
_space_group_crystal_system       triclinic
_cell_length_a                    6.930719
_cell_length_b                    16.628975
_cell_length_c                    17.036875
_cell_angle_alpha                 101.315795
_cell_angle_beta                  91.310548
_cell_angle_gamma                 89.532774
_cell_volume                      1924.82606668

loop_
_atom_site_label
_atom_site_type_symbol
_atom_type_description
_atom_site_fract_x
_atom_site_fract_y
_atom_site_fract_z
_atom_type_partial_charge
O1    O     O_R   0.506340 0.439070 0.579550 -0.552993
O2    O     O_R   0.170010 0.404890 0.412100 -0.531135
O3    O     O_R   0.005010 0.560930 0.420450 -0.507045
C1    C     C_R   0.339151 0.381722 0.383321 0.824601
O4    O     O_R   0.176280 0.429360 0.578400 -0.513733
O5    O     O_R   0.011320 0.585570 0.587940 -0.520720
C2    C     C_R   0.347989 0.412813 0.604169 0.757603
O6    O     O_R   0.500030 0.414430 0.412060 -0.546726
O7    O     O_3   0.340950 0.551220 0.502940 -0.351884
V1    V     V_3+5 0.064020 0.490500 0.499460 1.679500
O8    O     O_R   0.681910 0.595110 0.587900 -0.555852
C3    C     C_R   0.852033 0.618462 0.616521 0.784499
O9    O     O_R   0.675640 0.570640 0.421600 -0.529041
C4    C     C_R   0.841694 0.585869 0.394256 0.868752
V2    V     V_3+5 0.564670 0.509500 0.500540 1.614485
O10   O     O_3   0.837610 0.448780 0.497060 -0.377966
C5    C     C_R   0.929770 0.866116 0.171127 -0.153910
C6    C     C_R   0.842361 0.638512 0.332168 -0.237984
C7    C     C_R   0.687991 0.679907 0.215535 0.333788
C8    C     C_R   0.705028 0.625038 0.268572 0.305081
C9    C     C_R   0.970931 0.705343 0.339143 0.284288
C10   C     C_R   0.968343 0.756832 0.280762 -0.074054
C11   C     C_R   0.817236 0.746407 0.221581 -0.025435
C12   C     C_R   0.799993 0.801557 0.168143 -0.161912
C13   C     C_R   0.080349 0.876768 0.229419 0.379739
C14   C     C_R   0.107346 0.819989 0.280724 -0.049165
H1    H     H_    0.688611 0.793651 0.121794 0.180765
C15   C     C_3   0.835230 0.819563 0.729121 -0.022009
C16   C     C_3   0.001276 0.762590 0.694580 0.365569
C17   C     C_3   0.867321 0.687899 0.687751 -0.089887
C18   C     C_3   0.699460 0.744969 0.722443 -0.230132
C19   C     C_3   0.763667 0.736353 0.808671 -0.201716
C20   C     C_3   0.930724 0.679524 0.773056 -0.005788
C21   C     C_3   0.066773 0.753960 0.780009 -0.241612
C22   C     C_3   0.898928 0.810924 0.814100 -0.066025
H2    H     H_    0.548377 0.741700 0.699088 0.188801
H3    H     H_    0.666196 0.725302 0.856250 0.132422
H4    H     H_    0.218132 0.757149 0.803231 0.137894
C23   C     C_3   0.554918 0.280056 0.278437 -0.083441
C24   C     C_3   0.484560 0.191153 0.273030 0.451230
H5    H     H_    0.698585 0.303620 0.302078 0.182446
C25   C     C_3   0.407881 0.189050 0.187261 -0.173256
C26   C     C_3   0.476118 0.278158 0.191777 -0.263963
C27   C     C_3   0.279281 0.310201 0.226797 -0.071376
C28   C     C_3   0.211026 0.221587 0.221820 0.332025
C29   C     C_3   0.287765 0.223041 0.308128 -0.187436
C30   C     C_3   0.356228 0.311939 0.312399 -0.172970
H6    H     H_    0.554095 0.301274 0.144534 0.176167
H7    H     H_    0.209616 0.199817 0.355265 0.220098
C31   C     C_R   0.392470 0.133968 0.830122 -0.036388
C32   C     C_R   0.369396 0.359918 0.664964 -0.125672
C33   C     C_R   0.554146 0.329006 0.778661 -0.089227
C34   C     C_R   0.511171 0.380721 0.725497 -0.173602
C35   C     C_R   0.266241 0.285763 0.659041 0.360118
C36   C     C_R   0.295929 0.236236 0.718351 0.058654
C37   C     C_R   0.450461 0.256522 0.775403 0.099207
C38   C     C_R   0.499061 0.204923 0.829616 -0.176342
C39   C     C_R   0.236598 0.115102 0.775765 -0.213249
C40   C     C_R   0.182128 0.166224 0.722630 -0.031809
H8    H     H_    0.615190 0.221606 0.873386 0.114995
H9    H     H_    0.148067 0.062174 0.778308 0.149529
H10   H     H_    0.669317 0.345979 0.822782 0.139645
H11   H     H_    0.594037 0.436507 0.730116 0.161680
O11   O     O_R   0.266070 0.085680 0.087850 -0.510313
O12   O     O_R   0.590090 0.070660 0.921580 -0.534779
O13   O     O_R   0.754780 0.914400 0.912080 -0.537522
C41   C     C_R   0.418283 0.085359 0.894183 0.695661
O14   O     O_R   0.596110 0.095130 0.087880 -0.512213
O15   O     O_R   0.760850 0.939050 0.079570 -0.532903
C42   C     C_R   0.426664 0.118564 0.116641 0.823127
O16   O     O_R   0.260010 0.061030 0.920360 -0.551906
O17   O     O_3   0.425070 0.948840 0.997010 -0.381285
V3    V     V_3+5 0.702100 0.009490 0.000550 1.585235
O18   O     O_R   0.090200 0.929250 0.078500 -0.523856
C43   C     C_R   0.924818 0.915597 0.106866 0.792774
O19   O     O_R   0.084180 0.904770 0.912200 -0.555677
C44   C     C_R   0.914061 0.880943 0.884282 0.736601
V4    V     V_3+5 0.201420 0.990350 0.999580 1.557629
O20   O     O_3   0.928580 0.051150 0.002990 -0.354333
C45   C     C_2   0.985224 0.602374 0.801154 0.336615
H12   H     H_    0.028251 0.605378 0.863259 0.076999
O21   O     O_2   0.981628 0.536254 0.754980 -0.540544
Cl1   Cl    Cl    0.623336 0.112566 0.305239 -0.445605
C46   C     C_2   0.161275 0.374687 0.197521 0.531294
H13   H     H_    0.117038 0.365435 0.134938 0.047037
O22   O     O_2   0.114047 0.437323 0.243327 -0.502778
Cl2   Cl    Cl    0.975923 0.186538 0.187515 -0.612218
Cl3   Cl    Cl    0.238573 0.961721 0.237522 -0.505682
C47   C     C_2   0.990985 0.148897 0.682646 0.538142
H14   H     H_    0.948200 0.085959 0.659203 0.088935
O23   O     O_2   0.874199 0.203957 0.681116 -0.496750
Cl4   Cl    Cl    0.137562 0.248745 0.568087 -0.579132
Cl5   Cl    Cl    0.501656 0.663661 0.141143 -0.615647
C48   C     C_2   0.295598 0.819950 0.324174 0.643643
H15   H     H_    0.374058 0.762724 0.321232 0.055998
O24   O     O_2   0.361552 0.882512 0.365391 -0.437374
Cl6   Cl    Cl    0.552608 0.538081 0.253946 -0.552756
Cl7   Cl    Cl    0.106919 0.731263 0.429700 -0.556846
Cl8   Cl    Cl    0.168012 0.783548 0.623608 -0.590373
C49   C     C_2   0.780029 0.896539 0.700710 0.412964
H16   H     H_    0.737632 0.893277 0.638499 0.120653
O25   O     O_2   0.782320 0.962749 0.746733 -0.550940

loop_
_geom_bond_atom_site_label_1
_geom_bond_atom_site_label_2
_ccdc_geom_bond_type
C14   C48   S    
C36   C37   A    
C36   C40   A    
C6    C9    A    
C4    C6    S    
O2    C1    A    
C7    C8    A    
C12   H1    S    
C1    O6    A    
C23   H5    S    
C28   C29   S    
C33   C34   A    
C24   C29   S    
C29   H7    S    
C15   C16   S    
C28   Cl2   S    
O19   V4    S    
C18   H2    S    
O5    C3    A    
C17   C18   S    
V2    O10   S    
C25   C42   S    
O12   V3    S    
C37   C38   A    
C21   C22   S    
C40   C47   S    
O17   V4    S    
C35   C36   A    
O8    V2    S    
C8    Cl6   S    
C15   C22   S    
O12   C41   A    
C11   C12   A    
O15   V3    S    
O1    V2    S    
O11   C42   A    
C47   O23   D    
C31   C41   S    
C41   O16   A    
C7    Cl5   S    
C27   C30   S    
C15   C49   S    
C39   H9    S    
C24   C25   S    
O1    C2    A    
O9    C4    A    
C24   Cl1   S    
O7    V1    S    
C13   C14   A    
C5    C12   A    
O18   C43   A    
C16   Cl8   S    
C31   C39   A    
C19   C22   S    
O19   C44   A    
C45   O21   D    
C23   C24   S    
O4    C2    A    
V4    O20   S    
O17   V3    S    
C38   H8    S    
C23   C26   S    
O14   V3    S    
O13   V3    S    
C16   C21   S    
C22   C44   S    
C13   Cl3   S    
C32   C34   A    
C25   C28   S    
C7    C11   A    
C26   C27   S    
C35   Cl4   S    
C16   C17   S    
C18   C19   S    
C49   O25   D    
C20   C21   S    
V3    O20   S    
C19   H3    S    
C46   H13   S    
C48   O24   D    
O3    C4    A    
O6    V2    S    
O9    V2    S    
C10   C14   A    
C25   C26   S    
O2    V1    S    
C27   C28   S    
C23   C30   S    
C26   H6    S    
O13   C44   A    
C29   C30   S    
C17   C20   S    
C3    C17   S    
C21   H4    S    
C31   C38   A    
O11   V4    S    
C15   C18   S    
C46   O22   D    
C45   H12   S    
C27   C46   S    
O5    V1    S    
O8    C3    A    
C20   C45   S    
C32   C35   A    
C5    C13   A    
C19   C20   S    
C39   C40   A    
C2    C32   S    
O4    V1    S    
O3    V1    S    
V1    O10   S    
C9    Cl7   S    
C34   H11   S    
C49   H16   S    
O15   C43   A    
C6    C8    A    
O7    V2    S    
C48   H15   S    
O14   C42   A    
O18   V4    S    
C5    C43   S    
C10   C11   A    
C33   H10   S    
C47   H14   S    
C9    C10   A    
O16   V4    S    
C33   C37   A    
C1    C30   S    
