data_mof_unit_15636.cif
_audit_creation_date              2012-12-11T15:53:49-0500
_audit_creation_method            fapswitch 2.2
_symmetry_space_group_name_H-M    P1
_symmetry_Int_Tables_number       1
_space_group_crystal_system       triclinic
_cell_length_a                    10.72768
_cell_length_b                    10.740236
_cell_length_c                    17.030838
_cell_angle_alpha                 80.154795
_cell_angle_beta                  99.77249
_cell_angle_gamma                 118.050703
_cell_volume                      1697.22255734

loop_
_atom_site_label
_atom_site_type_symbol
_atom_type_description
_atom_site_fract_x
_atom_site_fract_y
_atom_site_fract_z
_atom_type_partial_charge
C1    C     C_R   0.359020 0.223567 0.626305 0.549807
C2    C     C_R   0.490148 0.720436 0.727018 -0.092534
C3    C     C_R   0.480594 0.718259 0.807838 0.215927
C4    C     C_3   0.078976 0.526432 0.769714 -0.138871
C5    C     C_3   0.092712 0.516817 0.683668 0.351645
C6    C     C_R   0.367802 0.646810 0.675779 -0.022378
C7    C     C_1   0.819386 0.654828 0.706672 -0.026712
C8    C     C_1   0.846702 0.683993 0.774205 -0.040975
C9    C     C_1   0.330812 0.157424 0.705780 -0.039887
C10   C     C_1   0.294182 0.111432 0.772014 -0.043003
C11   C     C_1   0.365863 0.649746 0.275413 0.046283
C12   C     C_R   0.381729 0.645337 0.593285 0.551412
C13   C     C_1   0.340931 0.665097 0.204693 0.027779
C14   C     C_R   0.795415 0.652432 0.147754 0.006786
C15   C     C_R   0.769631 0.525681 0.196606 -0.031517
C16   C     C_R   0.725622 0.499198 0.271715 -0.027836
C17   C     C_R   0.716472 0.723764 0.250839 0.079678
C18   C     C_R   0.758476 0.748682 0.172641 0.100017
C19   C     C_3   0.865462 0.456957 0.224833 0.031889
C20   C     C_3   0.813088 0.423518 0.306627 0.054405
C21   C     C_R   0.713853 0.603774 0.303410 -0.028081
C22   C     C_R   0.270433 0.061771 0.179558 -0.010527
C23   C     C_R   0.775314 0.617655 0.627279 0.606203
C24   C     C_R   0.179738 0.102073 0.204382 -0.066473
C25   C     C_R   0.193768 0.132058 0.281225 0.030403
C26   C     C_R   0.387624 0.074270 0.317094 -0.107229
C27   C     C_R   0.372045 0.039441 0.238596 0.169756
C28   C     C_3   0.129447 0.210667 0.167426 0.075387
C29   C     C_3   0.148247 0.245851 0.252402 0.496953
C30   C     C_R   0.307285 0.134640 0.336016 -0.063637
C31   C     C_R   0.889534 0.701671 0.856352 0.559823
C32   C     C_R   0.315533 0.705316 0.899506 0.525183
C33   C     C_R   0.252936 0.059410 0.851355 0.559996
C34   C     C_R   0.348154 0.219505 0.402946 0.541772
C35   C     C_R   0.882907 0.689609 0.082107 0.580792
C36   C     C_R   0.315631 0.699753 0.122669 0.556323
C37   C     C_R   0.248751 0.039645 0.095304 0.585560
C38   C     C_R   0.399207 0.629947 0.358403 0.575954
C39   C     C_R   0.701152 0.584787 0.389429 0.574220
C40   C     C_R   0.344537 0.650949 0.835824 -0.004591
C41   C     C_R   0.231170 0.554729 0.788490 -0.081409
C42   C     C_R   0.244476 0.549809 0.710074 0.045934
Cr1   Cr    Cr6+3 0.608440 0.389080 0.519680 1.004966
Cr2   Cr    Cr6+3 0.288640 0.400090 0.490760 1.044579
Cr3   Cr    Cr6+3 0.602940 0.710800 0.489510 0.996959
Cr4   Cr    Cr6+3 0.052530 0.947560 0.964210 1.018463
Cr5   Cr    Cr6+3 0.059970 0.626800 0.992920 0.997471
Cr6   Cr    Cr6+3 0.373320 0.938440 0.995370 0.993338
H1    H     H_    0.593380 0.780443 0.704665 0.163725
H2    H     H_    0.834184 0.364619 0.191430 0.110252
H3    H     H_    0.896894 0.476475 0.354899 0.179864
H4    H     H_    0.469029 0.064496 0.360735 0.177253
H5    H     H_    0.017140 0.161525 0.141285 0.098132
H6    H     H_    0.065909 0.620464 0.776216 0.163228
H7    H     H_    0.005329 0.426060 0.801941 0.119680
O1    O     O_R   0.754020 0.497590 0.609930 -0.497467
O2    O     O_R   0.295080 0.533620 0.397890 -0.470390
O3    O     O_R   0.485280 0.746620 0.388440 -0.501554
O4    O     O_R   0.720550 0.696220 0.420010 -0.494295
O5    O     O_3   0.500010 0.499990 0.499980 -0.306510
O6    O     O_R   0.163320 0.092900 0.874450 -0.514517
O7    O     O_R   0.934650 0.822080 0.882840 -0.488371
O8    O     O_R   0.915520 0.604140 0.893670 -0.530357
O9    O     O_R   0.191760 0.638110 0.923230 -0.518726
O10   O     O_R   0.406180 0.826930 0.920660 -0.507464
O11   O     O_R   0.358620 0.062870 0.901950 -0.480395
O12   O     O_R   0.481420 0.271390 0.600630 -0.495248
O13   O     O_R   0.163910 0.085460 0.050210 -0.502819
O14   O     O_R   0.935200 0.815170 0.045770 -0.493690
O15   O     O_R   0.916120 0.596690 0.069430 -0.496250
O16   O     O_R   0.192310 0.631200 0.086170 -0.482008
O17   O     O_R   0.406770 0.819480 0.096420 -0.535421
O18   O     O_R   0.359170 0.055960 0.064880 -0.512304
O19   O     O_3   0.161940 0.837600 0.984160 -0.292457
O20   O     O_R   0.263810 0.254550 0.589590 -0.519327
O21   O     O_R   0.300820 0.531200 0.560890 -0.489467
O22   O     O_R   0.491480 0.744020 0.564270 -0.529139
O23   O     O_R   0.726290 0.693800 0.583010 -0.510784
O24   O     O_R   0.747830 0.500190 0.434090 -0.520045
O25   O     O_R   0.475680 0.273800 0.437630 -0.515118
O26   O     O_R   0.257620 0.257160 0.413750 -0.448907
N1    N     N_2   0.725064 0.273651 0.328506 -0.518212
H8    H     H_    0.684805 0.210131 0.282361 0.257240
C43   C     C_3   0.777401 0.212957 0.400892 -0.294655
H9    H     H_    0.700268 0.100323 0.414498 0.131715
H10   H     H_    0.790481 0.270318 0.452470 0.173052
H11   H     H_    0.880935 0.218921 0.393516 0.179326
O27   O     O_3   0.460750 0.990418 0.221669 -0.718199
H12   H     H_    0.515924 0.057884 0.178489 0.334031
N2    N     N_2   0.220126 0.330911 0.114100 -0.483236
H13   H     H_    0.168607 0.355387 0.061583 0.260317
C44   C     C_3   0.370865 0.378028 0.112344 -0.264178
H14   H     H_    0.426567 0.495695 0.104651 0.123212
H15   H     H_    0.387751 0.339605 0.060562 0.172329
H16   H     H_    0.420065 0.341600 0.167854 0.130419
O28   O     O_3   0.252924 0.381641 0.265786 -0.669681
H17   H     H_    0.348524 0.388657 0.266459 0.290706
O29   O     O_3   0.023397 0.216297 0.282515 -0.720307
H18   H     H_    0.976390 0.263679 0.243011 0.297353
O30   O     O_3   0.603575 0.790099 0.855607 -0.694455
H19   H     H_    0.587058 0.745173 0.911090 0.313708
N3    N     N_2   0.004361 0.376777 0.655528 -0.504941
H20   H     H_    0.899644 0.355026 0.639642 0.276851
C45   C     C_3   0.020599 0.254959 0.697592 -0.284932
H21   H     H_    0.961418 0.163801 0.661311 0.149033
H22   H     H_    0.976920 0.224172 0.756350 0.145086
H23   H     H_    0.133564 0.277125 0.706581 0.181953
O31   O     O_3   0.078299 0.625509 0.630213 -0.698985
H24   H     H_    0.094023 0.614378 0.576616 0.344570
N4    N     N_2   0.676066 0.818712 0.275235 -0.496764
H25   H     H_    0.613465 0.847679 0.230983 0.285131
C46   C     C_3   0.787844 0.940869 0.311445 -0.222700
H26   H     H_    0.893783 0.944971 0.313079 0.178096
H27   H     H_    0.786069 0.037741 0.277512 0.143155
H28   H     H_    0.767166 0.938781 0.373258 0.187852
N5    N     N_2   0.784662 0.880102 0.125180 -0.514155
H29   H     H_    0.810969 0.965545 0.155399 0.241369
C47   C     C_3   0.692163 0.874337 0.052053 -0.247939
H30   H     H_    0.646754 0.948668 0.050698 0.156830
H31   H     H_    0.604295 0.765499 0.046284 0.135601
H32   H     H_    0.755070 0.910284 0.000105 0.180422
N6    N     N_2   0.016260 0.555786 0.225436 -0.490991
H33   H     H_    0.078306 0.504372 0.235101 0.292149
C48   C     C_3   0.077815 0.683405 0.266448 -0.284160
H34   H     H_    0.167463 0.767022 0.234936 0.168727
H35   H     H_    0.117961 0.662116 0.329176 0.148212
H36   H     H_    0.002151 0.725985 0.266937 0.140939

loop_
_geom_bond_atom_site_label_1
_geom_bond_atom_site_label_2
_ccdc_geom_bond_type
C5    C42   S    
Cr3   O5    S    
C16   C21   A    
C27   O27   S    
C20   N1    S    
C11   C38   S    
C41   C42   A    
C14   C18   A    
C19   C20   S    
C43   H11   S    
C17   N4    S    
C46   H27   S    
C7    C8    T    
C19   N6    S    
O31   H24   S    
C15   C19   S    
C26   C27   A    
C29   O29   S    
Cr4   O7    S    
C44   H14   S    
C28   C29   S    
C43   H10   S    
C20   H3    S    
Cr5   O8    S    
C4    C41   S    
Cr1   O24   S    
C15   C16   A    
O29   H18   S    
C37   O13   A    
N5    H29   S    
C46   H28   S    
Cr2   O21   S    
C47   H30   S    
C46   H26   S    
Cr4   O14   S    
C34   O25   A    
C38   O3    A    
C3    O30   S    
C35   O15   A    
Cr3   O23   S    
C34   O26   A    
Cr6   O10   S    
C9    C10   T    
C36   O16   A    
O28   H17   S    
C31   O7    A    
C2    C6    A    
Cr6   O17   S    
C45   H22   S    
C45   H21   S    
Cr6   O19   S    
C33   O11   A    
C47   H31   S    
C25   C29   S    
Cr3   O3    S    
C30   C34   S    
Cr4   O6    S    
C1    O20   A    
C31   O8    A    
C23   O1    A    
C1    C9    S    
C43   H9    S    
C32   O9    A    
C13   C36   S    
Cr2   O26   S    
C18   N5    S    
C14   C35   S    
Cr1   O25   S    
C22   C37   S    
C44   H16   S    
C17   C21   A    
N4    H25   S    
C47   H32   S    
C39   O24   A    
Cr2   O20   S    
Cr5   O15   S    
Cr4   O13   S    
C2    H1    S    
C26   H4    S    
C38   O2    A    
N2    C44   S    
C21   C39   S    
Cr2   O2    S    
C16   C20   S    
C39   O4    A    
C12   O22   A    
C44   H15   S    
C17   C18   A    
C24   C25   A    
N3    C45   S    
Cr5   O16   S    
Cr1   O5    S    
C48   H36   S    
C33   O6    A    
C40   C41   A    
C3    C40   A    
C26   C30   A    
N1    C43   S    
C22   C27   A    
C12   O21   A    
C4    H7    S    
C22   C24   A    
N6    C48   S    
Cr4   O19   S    
C48   H35   S    
C25   C30   A    
C37   O18   A    
C5    N3    S    
Cr3   O4    S    
C4    H6    S    
C8    C31   S    
Cr6   O18   S    
C24   C28   S    
Cr5   O19   S    
C4    C5    S    
C29   O28   S    
C28   N2    S    
C28   H5    S    
Cr5   O9    S    
C2    C3    A    
C6    C12   S    
C11   C13   T    
C19   H2    S    
N2    H13   S    
Cr2   O5    S    
C7    C23   S    
O30   H19   S    
C1    O12   A    
N5    C47   S    
C10   C33   S    
C32   C40   S    
C23   O23   A    
N3    H20   S    
N4    C46   S    
Cr1   O1    S    
O27   H12   S    
C35   O14   A    
Cr1   O12   S    
N1    H8    S    
C6    C42   A    
C14   C15   A    
C48   H34   S    
Cr3   O22   S    
Cr6   O11   S    
N6    H33   S    
C45   H23   S    
C36   O17   A    
C32   O10   A    
C5    O31   S    
