data_mof_unit_35932.cif
_audit_creation_date              2013-03-05T15:40:02-0500
_audit_creation_method            fapswitch 2.2
_symmetry_space_group_name_H-M    P1
_symmetry_Int_Tables_number       1
_space_group_crystal_system       triclinic
_cell_length_a                    24.466286
_cell_length_b                    17.44783
_cell_length_c                    15.57701
_cell_angle_alpha                 89.937391
_cell_angle_beta                  128.673469
_cell_angle_gamma                 89.793995
_cell_volume                      5191.37027558

loop_
_atom_site_label
_atom_site_type_symbol
_atom_site_description
_atom_site_fract_x
_atom_site_fract_y
_atom_site_fract_z
_atom_type_partial_charge
C1    C     C_R   0.335344 0.387910 0.206316 -0.132410
C2    C     C_R   0.664368 0.388374 0.795920 -0.163624
C3    C     C_R   0.851121 0.861764 0.245020 -0.127360
C4    C     C_R   0.164148 0.886166 0.792769 -0.133785
H1    H     H_    0.283925 0.385463 0.184267 0.096816
H2    H     H_    0.716583 0.386447 0.821598 0.100176
H3    H     H_    0.802323 0.849907 0.229357 0.096380
H4    H     H_    0.215886 0.883805 0.815777 0.095956
N1    N     N_R   0.389060 0.424180 0.294540 -0.048309
N2    N     N_R   0.610940 0.424180 0.705460 -0.051169
N3    N     N_R   0.889060 0.924180 0.294540 -0.053538
N4    N     N_R   0.110940 0.924180 0.705460 -0.048587
C5    C     C_R   0.585320 0.357358 0.406905 -0.150452
C6    C     C_R   0.387202 0.396266 0.592902 -0.164834
C7    C     C_R   0.113478 0.896269 0.408033 -0.179630
C8    C     C_R   0.888349 0.892117 0.592512 -0.185861
H5    H     H_    0.556203 0.341157 0.321946 0.100989
H6    H     H_    0.407542 0.397936 0.677573 0.091485
H7    H     H_    0.093523 0.897992 0.323645 0.095916
H8    H     H_    0.909733 0.888708 0.677314 0.108386
N5    N     N_R   0.579670 0.423790 0.443360 -0.052253
N6    N     N_R   0.420330 0.423790 0.556640 -0.043427
N7    N     N_R   0.079670 0.923790 0.443360 -0.042259
N8    N     N_R   0.920330 0.923790 0.556640 -0.045303
C9    C     C_R   0.660078 0.356738 0.590514 -0.100395
C10   C     C_R   0.312662 0.398028 0.409828 -0.128067
C11   C     C_R   0.187650 0.897877 0.590836 -0.125120
C12   C     C_R   0.812827 0.897541 0.409872 -0.134814
H9    H     H_    0.700684 0.340792 0.674887 0.107186
H10   H     H_    0.264780 0.403328 0.326286 0.085988
H11   H     H_    0.235426 0.903510 0.674303 0.085073
H12   H     H_    0.764571 0.904418 0.327037 0.085682
N9    N     N_R   0.625470 0.423490 0.556600 -0.054776
N10   N     N_R   0.374530 0.423490 0.443400 -0.044594
N11   N     N_R   0.125470 0.923490 0.556600 -0.043048
N12   N     N_R   0.874530 0.923490 0.443400 -0.043195
C13   C     C_R   0.574022 0.387442 0.796724 -0.147657
C14   C     C_R   0.423840 0.389698 0.200709 -0.173269
C15   C     C_R   0.074346 0.886050 0.796010 -0.154897
C16   C     C_R   0.942083 0.860024 0.243653 -0.150042
H13   H     H_    0.543467 0.387367 0.825203 0.091412
H14   H     H_    0.452122 0.392036 0.168366 0.090831
H15   H     H_    0.044509 0.885689 0.825754 0.092191
H16   H     H_    0.977787 0.845497 0.227348 0.101760
N13   N     N_R   0.555250 0.423100 0.705420 -0.039727
N14   N     N_R   0.444750 0.423100 0.294580 -0.037975
N15   N     N_R   0.055250 0.923100 0.705420 -0.039106
N16   N     N_R   0.944750 0.923100 0.294580 -0.043389
C17   C     C_R   0.355162 0.366773 0.143742 0.155109
C18   C     C_R   0.643226 0.365627 0.856125 0.145823
C19   C     C_R   0.884172 0.819579 0.213565 0.144512
C20   C     C_R   0.143273 0.862927 0.853385 0.146627
C21   C     C_R   0.633972 0.313306 0.497505 0.174141
C22   C     C_R   0.319006 0.382316 0.502640 0.189753
C23   C     C_R   0.181774 0.882315 0.498572 0.189410
C24   C     C_R   0.819990 0.879059 0.502500 0.191752
C25   C     C_R   0.332557 0.638072 0.410821 -0.286912
C26   C     C_R   0.668845 0.635999 0.589563 -0.294234
C27   C     C_R   0.814845 0.109028 0.411274 -0.235270
C28   C     C_R   0.170499 0.134361 0.589536 -0.279122
H17   H     H_    0.287506 0.652362 0.329210 0.210467
H18   H     H_    0.711724 0.651705 0.671981 0.196670
H19   H     H_    0.765123 0.104056 0.330638 0.171409
H20   H     H_    0.216656 0.146105 0.671080 0.206094
N17   N     N_R   0.375210 0.577180 0.443400 -0.079565
N18   N     N_R   0.624790 0.577180 0.556600 -0.072736
N19   N     N_R   0.875210 0.077180 0.443400 -0.078022
N20   N     N_R   0.124790 0.077180 0.556600 -0.079570
C29   C     C_R   0.433907 0.632685 0.224416 -0.231044
C30   C     C_R   0.575317 0.609922 0.799608 -0.160904
C31   C     C_R   0.931329 0.130912 0.220442 -0.197034
C32   C     C_R   0.063655 0.136140 0.769416 -0.270529
H21   H     H_    0.465887 0.646075 0.201352 0.203830
H22   H     H_    0.548231 0.606733 0.833465 0.162498
H23   H     H_    0.959677 0.140993 0.190076 0.203798
H24   H     H_    0.030118 0.152602 0.788381 0.217449
N21   N     N_R   0.445430 0.577570 0.294580 -0.080897
N22   N     N_R   0.554570 0.577570 0.705420 -0.077401
N23   N     N_R   0.945430 0.077570 0.294580 -0.083627
N24   N     N_R   0.054570 0.077570 0.705420 -0.074914
C33   C     C_R   0.665685 0.608442 0.799142 0.573532
C34   C     C_R   0.340473 0.626145 0.217082 0.602902
C35   C     C_R   0.157833 0.128516 0.778763 0.617579
C36   C     C_R   0.841112 0.127793 0.222022 0.613010
N25   N     N_R   0.611620 0.576500 0.705460 -0.110820
N26   N     N_R   0.388380 0.576500 0.294540 -0.115308
N27   N     N_R   0.111620 0.076500 0.705460 -0.117566
N28   N     N_R   0.888380 0.076500 0.294540 -0.119563
C37   C     C_R   0.405596 0.636244 0.592677 0.640558
C38   C     C_R   0.599362 0.630709 0.407486 0.621959
C39   C     C_R   0.888889 0.109541 0.592373 0.588479
C40   C     C_R   0.098351 0.132734 0.408043 0.628710
N29   N     N_R   0.421010 0.576890 0.556640 -0.115658
N30   N     N_R   0.578990 0.576890 0.443360 -0.112344
N31   N     N_R   0.921010 0.076890 0.556640 -0.108767
N32   N     N_R   0.078990 0.076890 0.443360 -0.112794
Ni1   Ni    Ni4+2 0.383200 0.500680 0.370150 0.197539
Ni2   Ni    Ni4+2 0.616800 0.500680 0.629850 0.202160
Ni3   Ni    Ni4+2 0.883200 0.000680 0.370150 0.195076
Ni4   Ni    Ni4+2 0.116800 0.000680 0.629850 0.195187
Ni5   Ni    Ni4+2 0.512440 0.500680 0.370150 0.200310
Ni6   Ni    Ni4+2 0.487560 0.500680 0.629850 0.201967
Ni7   Ni    Ni4+2 0.012440 0.000680 0.370150 0.198375
Ni8   Ni    Ni4+2 0.987560 0.000680 0.629850 0.202032
C41   C     C_R   0.353623 0.678230 0.502751 0.063724
C42   C     C_R   0.651103 0.672382 0.497052 0.088403
C43   C     C_R   0.823130 0.132663 0.503246 0.066368
C44   C     C_R   0.151201 0.173184 0.497741 0.068721
C45   C     C_R   0.370986 0.667632 0.181957 0.046381
C46   C     C_R   0.643154 0.633640 0.856233 0.039977
C47   C     C_R   0.869027 0.166821 0.180845 0.010232
C48   C     C_R   0.125943 0.171711 0.810423 0.042401
C49   C     C_2   0.655823 0.796106 0.427223 0.462153
C50   C     C_2   0.348120 0.801490 0.574905 0.447716
C51   C     C_2   0.154998 0.297455 0.426467 0.455873
C52   C     C_2   0.775488 0.193992 0.586472 0.444705
C53   C     C_2   0.688040 0.735657 0.496362 -0.367030
C54   C     C_2   0.316918 0.743036 0.502486 -0.372992
C55   C     C_2   0.187470 0.237652 0.497123 -0.364230
C56   C     C_2   0.766495 0.151542 0.506387 -0.378529
H25   H     H_    0.744581 0.728846 0.550876 0.139569
H26   H     H_    0.260339 0.737767 0.444878 0.140587
H27   H     H_    0.244127 0.232234 0.553265 0.139372
H28   H     H_    0.715962 0.125901 0.443216 0.143609
C57   C     C_2   0.198618 0.349274 0.418344 -0.239549
C58   C     C_2   0.715747 0.208401 0.583969 -0.284765
C59   C     C_2   0.699477 0.847661 0.419056 -0.222604
C60   C     C_2   0.303079 0.851201 0.583226 -0.239788
C61   C     C_2   0.263442 0.365357 0.508383 -0.267126
C62   C     C_2   0.659342 0.239671 0.492118 -0.201229
C63   C     C_2   0.764834 0.862040 0.508921 -0.286045
C64   C     C_2   0.237868 0.867047 0.493229 -0.271147
H29   H     H_    0.181065 0.363394 0.336787 0.168398
H30   H     H_    0.728004 0.221496 0.662341 0.168154
H31   H     H_    0.681436 0.862773 0.337506 0.164547
H32   H     H_    0.320116 0.863721 0.664814 0.168101
H33   H     H_    0.278647 0.354840 0.589563 0.139539
H34   H     H_    0.645883 0.226229 0.412845 0.138933
H35   H     H_    0.780546 0.850730 0.590301 0.152859
H36   H     H_    0.222994 0.858375 0.412004 0.146619
H37   H     H_    0.782067 0.364680 0.995247 0.140030
H38   H     H_    0.216322 0.361156 0.008702 0.148625
H39   H     H_    0.281853 0.863027 0.991763 0.147657
H40   H     H_    0.781051 0.729141 0.164558 0.129573
C65   C     C_2   0.688819 0.335760 0.968585 -0.158897
C66   C     C_2   0.309082 0.337949 0.031085 -0.166697
C67   C     C_2   0.189125 0.833189 0.965740 -0.163071
C68   C     C_2   0.853607 0.756150 0.138174 -0.146719
C69   C     C_2   0.758243 0.337792 0.026776 -0.339038
C70   C     C_2   0.239723 0.337662 0.974329 -0.377441
C71   C     C_2   0.258531 0.836348 0.024295 -0.375886
C72   C     C_2   0.794207 0.727269 0.109605 -0.340579
H41   H     H_    0.349843 0.742522 0.051695 0.116386
H42   H     H_    0.682021 0.644161 0.026274 0.124323
H43   H     H_    0.841649 0.236460 0.042003 0.132789
H44   H     H_    0.144050 0.247289 0.937476 0.122889
C73   C     C_2   0.341878 0.735654 0.112609 -0.279539
C74   C     C_2   0.687670 0.664694 0.966269 -0.387902
C75   C     C_2   0.837694 0.232562 0.107648 -0.306850
C76   C     C_2   0.154385 0.239783 0.879452 -0.323333
C77   C     C_2   0.303633 0.786833 0.119549 0.672519
C78   C     C_2   0.738837 0.712431 0.994522 0.668808
C79   C     C_2   0.802573 0.285844 0.118243 0.648079
C80   C     C_2   0.195426 0.289455 0.877360 0.672238
H45   H     H_    0.665549 0.306330 0.000176 0.167304
H46   H     H_    0.332410 0.312319 0.997134 0.165727
H47   H     H_    0.166035 0.804311 0.997992 0.167608
H48   H     H_    0.868629 0.748680 0.086066 0.170069
O1    O     O_3   0.293442 0.779076 0.197505 -0.624265
C81   C     C_3   0.306648 0.848899 0.253292 0.111651
H49   H     H_    0.276981 0.847798 0.285533 0.143391
H50   H     H_    0.287851 0.900405 0.199055 0.106271
C82   C     C_3   0.384765 0.855649 0.350623 -0.273029
H51   H     H_    0.402497 0.803322 0.402701 0.252019
H52   H     H_    0.415051 0.860183 0.319659 0.226450
C83   C     C_3   0.399392 0.925856 0.420313 -0.896612
H53   H     H_    0.383298 0.978931 0.370184 0.248253
H54   H     H_    0.456293 0.928928 0.490262 0.289520
H55   H     H_    0.370418 0.922066 0.453561 0.262707
O2    O     O_3   0.742858 0.744408 0.916808 -0.619256
C84   C     C_3   0.699805 0.810233 0.869444 0.146105
H56   H     H_    0.729542 0.860197 0.923219 0.116468
H57   H     H_    0.650143 0.804398 0.857936 0.134345
C85   C     C_3   0.680905 0.823934 0.756681 -0.222095
H58   H     H_    0.729605 0.829968 0.766016 0.196350
H59   H     H_    0.651549 0.773721 0.703155 0.224954
C86   C     C_3   0.636024 0.895814 0.701277 -0.963322
H60   H     H_    0.587034 0.891190 0.691252 0.297960
H61   H     H_    0.621967 0.902623 0.618700 0.284309
H62   H     H_    0.665473 0.947268 0.750984 0.254076
O3    O     O_3   0.799192 0.284303 0.203701 -0.619195
C87   C     C_3   0.849049 0.336267 0.284751 0.132619
H63   H     H_    0.831234 0.396200 0.254968 0.110763
H64   H     H_    0.901453 0.327092 0.305927 0.147929
C88   C     C_3   0.856919 0.324087 0.389138 -0.200925
H65   H     H_    0.805481 0.332775 0.370610 0.210186
H66   H     H_    0.874699 0.264328 0.419083 0.218472
C89   C     C_3   0.910087 0.379534 0.479258 -0.972303
H67   H     H_    0.962107 0.370545 0.500106 0.268974
H68   H     H_    0.915159 0.369509 0.554288 0.309392
H69   H     H_    0.892893 0.439725 0.451800 0.259018
O4    O     O_3   0.208504 0.281048 0.802873 -0.623157
C90   C     C_3   0.200019 0.351465 0.750671 0.152622
H70   H     H_    0.232684 0.348598 0.723761 0.139329
H71   H     H_    0.218671 0.402077 0.805891 0.099327
C91   C     C_3   0.123439 0.362374 0.649022 -0.324400
H72   H     H_    0.105199 0.310261 0.597025 0.252367
H73   H     H_    0.090676 0.370332 0.675167 0.190502
C92   C     C_3   0.114403 0.431804 0.581455 -0.917844
H74   H     H_    0.131275 0.484751 0.631511 0.251805
H75   H     H_    0.058475 0.438103 0.508347 0.282089
H76   H     H_    0.145817 0.424386 0.552833 0.266880
O5    O     O_3   0.732685 0.618251 0.832716 -0.647054
C93   C     C_3   0.764887 0.549476 0.838091 0.162934
H77   H     H_    0.797874 0.563136 0.813796 0.140673
H78   H     H_    0.727743 0.505398 0.779636 0.079649
C94   C     C_3   0.812856 0.520233 0.956825 -0.341087
H79   H     H_    0.843263 0.568903 0.013322 0.233741
H80   H     H_    0.780410 0.496510 0.977652 0.188376
C95   C     C_3   0.864476 0.459810 0.974664 -0.923722
H81   H     H_    0.836568 0.412106 0.915261 0.260517
H82   H     H_    0.895184 0.436326 0.059456 0.284457
H83   H     H_    0.901330 0.485946 0.964209 0.274261
O6    O     O_3   0.270042 0.632120 0.169267 -0.653246
C96   C     C_3   0.238335 0.561468 0.158172 0.141112
H84   H     H_    0.200916 0.572627 0.174670 0.144887
H85   H     H_    0.274725 0.516949 0.218152 0.077078
C97   C     C_3   0.197299 0.532572 0.040091 -0.307737
H86   H     H_    0.172519 0.581845 0.981861 0.228817
H87   H     H_    0.233876 0.504012 0.030588 0.186061
C98   C     C_3   0.139650 0.477082 0.010256 -0.986759
H88   H     H_    0.161498 0.429519 0.070989 0.255126
H89   H     H_    0.114345 0.452868 0.927356 0.270673
H90   H     H_    0.099146 0.507664 0.008723 0.277795
O7    O     O_3   0.228170 0.134398 0.826830 -0.648588
C99   C     C_3   0.261647 0.062814 0.848752 0.141334
H91   H     H_    0.303457 0.071427 0.841163 0.148000
H92   H     H_    0.227509 0.017567 0.788555 0.072495
C100  C     C_3   0.295454 0.037251 0.966554 -0.333432
H93   H     H_    0.312913 0.088226 0.020579 0.232821
H94   H     H_    0.256117 0.006446 0.967355 0.186339
C101  C     C_3   0.359097 0.985723 0.013308 -0.936769
H95   H     H_    0.345348 0.937493 0.956628 0.251232
H96   H     H_    0.378369 0.962354 0.094280 0.275679
H97   H     H_    0.401867 0.019234 0.025173 0.275290
O8    O     O_3   0.772471 0.133540 0.182516 -0.639590
C102  C     C_3   0.738640 0.061720 0.144486 0.132733
H98   H     H_    0.691291 0.065274 0.139275 0.140938
H99   H     H_    0.770798 0.013817 0.202315 0.086403
C103  C     C_3   0.715032 0.044470 0.029341 -0.325715
H100  H     H_    0.685984 0.094722 0.974719 0.222766
H101  H     H_    0.761535 0.033685 0.033747 0.184607
C104  C     C_3   0.667589 0.974428 0.980345 -0.958343
H102  H     H_    0.696312 0.922913 0.031827 0.250348
H103  H     H_    0.649890 0.964329 0.896156 0.271611
H104  H     H_    0.620592 0.983865 0.974930 0.281665
O9    O     O_3   0.427280 0.646462 0.697875 -0.656504
C105  C     C_3   0.413129 0.580426 0.733693 0.110721
H105  H     H_    0.440330 0.587730 0.822870 0.149694
H106  H     H_    0.435672 0.527817 0.726480 0.079698
C106  C     C_3   0.334333 0.571561 0.673805 -0.284738
H107  H     H_    0.311941 0.627647 0.672056 0.217424
H108  H     H_    0.307386 0.553165 0.587646 0.188027
C107  C     C_3   0.320565 0.512485 0.730579 -1.021151
H109  H     H_    0.344190 0.456346 0.736552 0.256796
H110  H     H_    0.263278 0.504983 0.682537 0.273985
H111  H     H_    0.343001 0.532069 0.814542 0.266763
O10   O     O_3   0.585792 0.633131 0.306708 -0.678307
C108  C     C_3   0.583663 0.558813 0.268424 0.116534
H112  H     H_    0.560891 0.564738 0.180762 0.146300
H113  H     H_    0.548284 0.519601 0.269199 0.095321
C109  C     C_3   0.657575 0.524457 0.332552 -0.303188
H114  H     H_    0.692888 0.567333 0.337352 0.215804
H115  H     H_    0.678348 0.509954 0.417629 0.193894
C110  C     C_3   0.657585 0.452181 0.277485 -0.972565
H116  H     H_    0.621675 0.408788 0.269637 0.259236
H117  H     H_    0.711250 0.427523 0.327948 0.274610
H118  H     H_    0.640838 0.466022 0.194496 0.259731
O11   O     O_3   0.916497 0.119218 0.700894 -0.653908
C111  C     C_3   0.931039 0.049324 0.756763 0.147119
H119  H     H_    0.972201 0.061106 0.845707 0.149586
H120  H     H_    0.954090 0.005988 0.735970 0.075531
C112  C     C_3   0.865648 0.020666 0.739778 -0.289284
H121  H     H_    0.839855 0.069556 0.747726 0.229066
H122  H     H_    0.827853 0.997131 0.655616 0.187990
C113  C     C_3   0.883543 0.959863 0.824611 -1.021481
H123  H     H_    0.912901 0.911366 0.824520 0.257530
H124  H     H_    0.834504 0.937526 0.805235 0.273684
H125  H     H_    0.915810 0.985322 0.908165 0.269357
O12   O     O_3   0.078609 0.142205 0.303849 -0.670324
C114  C     C_3   0.085460 0.073202 0.264058 0.114099
H126  H     H_    0.056724 0.081266 0.174463 0.156143
H127  H     H_    0.059724 0.024453 0.271673 0.083318
C115  C     C_3   0.162709 0.056063 0.319350 -0.281429
H128  H     H_    0.189186 0.109919 0.325775 0.220689
H129  H     H_    0.189291 0.033738 0.403848 0.188715
C116  C     C_3   0.170389 0.997812 0.254340 -1.023048
H130  H     H_    0.142133 0.944201 0.242087 0.257054
H131  H     H_    0.226657 0.983948 0.299923 0.268878
H132  H     H_    0.149133 0.021881 0.172731 0.269832
N33   N     N_R   0.580911 0.807161 0.355456 0.246377
O13   O     O_R   0.544775 0.787851 0.387399 -0.433336
O14   O     O_R   0.550530 0.847797 0.266120 -0.411220
N34   N     N_R   0.423068 0.811455 0.650704 0.257384
O15   O     O_R   0.461711 0.791462 0.623490 -0.421602
O16   O     O_R   0.451425 0.851262 0.739830 -0.403761
N35   N     N_R   0.079930 0.307515 0.352567 0.255661
O17   O     O_R   0.042631 0.287254 0.382026 -0.445239
O18   O     O_R   0.050195 0.347905 0.263171 -0.407282
N36   N     N_R   0.837699 0.238429 0.662516 0.270819
O19   O     O_R   0.867927 0.274108 0.628953 -0.404679
O20   O     O_R   0.856954 0.253968 0.759587 -0.407452

loop_
_geom_bond_atom_site_label_1
_geom_bond_atom_site_label_2
_geom_bond_distance
_ccdc_geom_bond_type
C32   C48   1.380837 A    
N21   Ni5   1.855311 S    
C114  H126  1.111047 S    
N33   O13   1.301675 A    
C90   H71   1.114418 S    
C9    C21   1.389463 A    
H42   C74   1.087277 S    
C11   C23   1.379444 A    
C34   O6    1.389081 S    
C103  H101  1.111514 S    
C96   C97   1.530745 S    
C66   C70   1.336554 D    
C83   H55   1.110952 S    
N7    Ni7   1.855360 S    
C110  H116  1.109407 S    
C109  H114  1.111640 S    
C71   C77   1.452484 S    
C30   H22   1.075808 S    
C101  H96   1.110710 S    
C4    N4    1.327924 A    
C88   C89   1.525960 S    
C103  C104  1.525905 S    
H39   C71   1.077892 S    
N1    N14   1.362200 A    
N3    N16   1.362200 A    
N4    N15   1.362336 A    
C97   H86   1.112060 S    
C84   H57   1.116943 S    
C9    H9    1.075697 S    
N36   O20   1.301306 A    
C101  H97   1.110850 S    
O4    C90   1.413797 S    
C11   H11   1.080828 S    
O3    C87   1.410570 S    
C87   C88   1.527701 S    
C39   C43   1.371598 A    
C12   H12   1.080734 S    
C91   H72   1.111192 S    
C11   N11   1.333847 A    
C84   H56   1.111523 S    
C50   C60   1.468118 S    
C8    H8    1.076137 S    
C5    N5    1.335471 A    
C67   H47   1.087016 S    
C18   C65   1.461603 S    
C35   O7    1.386979 S    
C108  H113  1.111225 S    
C41   C54   1.439819 S    
C13   N13   1.341814 A    
C62   H34   1.086863 S    
C43   C56   1.453388 S    
C15   N15   1.341388 A    
C102  C103  1.532620 S    
C16   N16   1.335093 A    
N15   Ni8   1.872070 S    
C48   C76   1.457633 S    
C113  H125  1.110937 S    
N20   Ni4   1.843645 S    
C36   N28   1.331199 A    
C25   H17   1.067384 S    
C55   H27   1.085860 S    
C27   H19   1.075389 S    
C28   H20   1.067825 S    
C113  H124  1.110643 S    
C13   C18   1.380019 A    
C109  C110  1.525997 S    
C17   C66   1.461821 S    
N12   Ni3   1.860635 S    
C59   C63   1.336259 D    
N28   Ni3   1.826917 S    
C3    N3    1.325462 A    
N13   Ni6   1.872070 S    
C88   H65   1.111188 S    
C57   C61   1.336148 D    
N5    N9    1.377252 A    
C33   C46   1.378345 A    
C58   H30   1.084460 S    
C23   C64   1.449686 S    
C40   O12   1.383466 S    
C35   C48   1.377477 A    
C89   H68   1.109101 S    
C26   C42   1.371966 A    
C97   C98   1.527847 S    
C87   H64   1.117205 S    
C29   N21   1.345160 A    
C45   C73   1.453398 S    
C31   N23   1.347709 A    
C12   C24   1.378098 A    
N8    N12   1.377296 A    
C114  H127  1.109504 S    
C106  H107  1.111709 S    
C93   H78   1.103995 S    
C81   H49   1.111350 S    
C40   N32   1.343214 A    
N10   Ni1   1.860635 S    
C85   H58   1.111914 S    
C36   O8    1.384247 S    
O9    C105  1.414774 S    
C54   H26   1.085635 S    
N26   Ni1   1.826917 S    
C30   C46   1.371156 A    
C27   N19   1.345461 A    
C40   C44   1.368612 A    
C33   O5    1.385900 S    
C85   H59   1.111908 S    
C107  H109  1.109356 S    
C98   H90   1.110828 S    
C78   O2    1.390740 S    
C77   O1    1.390437 S    
N34   O16   1.301137 A    
C112  C113  1.527712 S    
N19   N31   1.377251 A    
C116  H131  1.110614 S    
N23   Ni7   1.855311 S    
C10   C22   1.381232 A    
C95   H81   1.109666 S    
C82   H52   1.111279 S    
N6    N10   1.377296 A    
N14   Ni5   1.882513 S    
C31   H23   1.070721 S    
H43   C75   1.087739 S    
C24   C63   1.445935 S    
C34   C45   1.376279 A    
H44   C76   1.087958 S    
C110  H118  1.110829 S    
C111  H119  1.111021 S    
C94   H79   1.112200 S    
N16   Ni7   1.882513 S    
C27   C43   1.379354 A    
C52   C56   1.346617 D    
C7    C23   1.375333 A    
C67   C71   1.335520 D    
C8    C24   1.373971 A    
O11   C111  1.406682 S    
N2    N13   1.362336 A    
C92   H74   1.110787 S    
C61   H33   1.087294 S    
C100  H94   1.110852 S    
C39   O11   1.384456 S    
C28   N20   1.342147 A    
C49   C53   1.350628 D    
N22   N25   1.395470 A    
C107  H110  1.110093 S    
C10   H10   1.080793 S    
C51   C55   1.352776 D    
C108  C109  1.536436 S    
N11   Ni4   1.861334 S    
N27   Ni4   1.828120 S    
O8    C102  1.415139 S    
C83   H53   1.110809 S    
C51   N35   1.443651 S    
C68   C72   1.327226 D    
C28   C44   1.370465 A    
C104  H104  1.110753 S    
C16   C19   1.379548 A    
C70   C80   1.458441 S    
C99   C100  1.532647 S    
C5    H5    1.078343 S    
N18   Ni2   1.843645 S    
C105  H105  1.111031 S    
C32   N24   1.346993 A    
C19   C68   1.440265 S    
C107  H111  1.110746 S    
C96   H85   1.105817 S    
C13   H13   1.081721 S    
C65   C69   1.335786 D    
C14   N14   1.344846 A    
C63   H35   1.087909 S    
C39   N31   1.340208 A    
C16   H16   1.080598 S    
C109  H115  1.111397 S    
C37   C41   1.371401 A    
C112  H121  1.111401 S    
C79   O3    1.384618 S    
C95   H83   1.110772 S    
C33   N25   1.335849 A    
C9    N9    1.336050 A    
C88   H66   1.111771 S    
C26   H18   1.069343 S    
C35   N27   1.342394 A    
N22   Ni6   1.865666 S    
C100  H93   1.112131 S    
C111  C112  1.535158 S    
O6    C96   1.411040 S    
C97   H87   1.110681 S    
C14   C17   1.383094 A    
C65   H45   1.087034 S    
O5    C93   1.406485 S    
C94   C95   1.528034 S    
C7    H7    1.079320 S    
N20   N32   1.377296 A    
N24   Ni8   1.865666 S    
C1    H1    1.078349 S    
C76   C80   1.344432 D    
C59   H31   1.084296 S    
C3    H3    1.079624 S    
C60   H32   1.084371 S    
C115  H128  1.111846 S    
C91   H73   1.111297 S    
C112  H122  1.109603 S    
C58   C62   1.332084 D    
C92   H76   1.110825 S    
O12   C114  1.411298 S    
C116  H130  1.108826 S    
C47   C75   1.449759 S    
C86   H62   1.110663 S    
O7    C99   1.410533 S    
C29   H21   1.071574 S    
C46   C74   1.445994 S    
N19   Ni3   1.844433 S    
C102  H99   1.112157 S    
C108  H112  1.110939 S    
C44   C55   1.438959 S    
N23   N28   1.395606 A    
C38   N30   1.338952 A    
C5    C21   1.375115 A    
N33   O14   1.301168 A    
C90   C91   1.530672 S    
C36   C47   1.375312 A    
N35   O17   1.301401 A    
C1    N1    1.329272 A    
C38   C42   1.370866 A    
C115  C116  1.527243 S    
C3    C19   1.388321 A    
C103  H100  1.111722 S    
C34   N26   1.342723 A    
C38   O10   1.387339 S    
C106  C107  1.526700 S    
C101  H95   1.110547 S    
C98   H89   1.110518 S    
N7    N11   1.377252 A    
C42   C53   1.433486 S    
C68   H48   1.087935 S    
C73   C77   1.343592 D    
O2    C84   1.411077 S    
C84   C85   1.529536 S    
N36   O19   1.301410 A    
N1    Ni1   1.844556 S    
C25   N17   1.343242 A    
C51   C57   1.465562 S    
N29   Ni6   1.838551 S    
C85   C86   1.525403 S    
C64   H36   1.087002 S    
H38   C70   1.079089 S    
C86   H60   1.110993 S    
C6    N6    1.334537 A    
C104  H102  1.111032 S    
C81   H50   1.114743 S    
N17   N29   1.377251 A    
C99   H92   1.108018 S    
H41   C73   1.087965 S    
N4    Ni4   1.843438 S    
O10   C108  1.415315 S    
C12   N12   1.332977 A    
C49   N33   1.443071 S    
N32   Ni7   1.848791 S    
C72   C78   1.443718 S    
H40   C72   1.087079 S    
C81   C82   1.531647 S    
C52   N36   1.441588 S    
C25   C41   1.374623 A    
C90   H70   1.111460 S    
C30   N22   1.342387 A    
O1    C81   1.413492 S    
C6    H6    1.080712 S    
C4    H4    1.079406 S    
C95   H82   1.110541 S    
H37   C69   1.077165 S    
C82   H51   1.111542 S    
C99   H91   1.111367 S    
C4    C20   1.385689 A    
N3    Ni3   1.844556 S    
C110  H117  1.110074 S    
C111  H120  1.104729 S    
C14   H14   1.081713 S    
N24   N27   1.395470 A    
C113  H123  1.108520 S    
N9    Ni2   1.861334 S    
N2    Ni2   1.843438 S    
C53   H25   1.085978 S    
N25   Ni2   1.828120 S    
C29   C45   1.378043 A    
C26   N18   1.340179 A    
N30   Ni5   1.848791 S    
C31   C47   1.383371 A    
C89   H67   1.109862 S    
C69   C79   1.444537 S    
C2    C18   1.382584 A    
N18   N30   1.377296 A    
N5    Ni5   1.855360 S    
C7    N7    1.335724 A    
C15   C20   1.384244 A    
C66   H46   1.086911 S    
C8    N8    1.333681 A    
C52   C58   1.458506 S    
C37   N29   1.338962 A    
C2    H2    1.074329 S    
C60   C64   1.337125 D    
C106  H108  1.111563 S    
C10   N10   1.333457 A    
C114  C115  1.537620 S    
C37   O9    1.383223 S    
N35   O18   1.301187 A    
C104  H103  1.108915 S    
C93   H77   1.111003 S    
C15   H15   1.081811 S    
N8    Ni8   1.865687 S    
C105  H106  1.110596 S    
C89   H69   1.110772 S    
C50   N34   1.443491 S    
C96   H84   1.111272 S    
C32   H24   1.069821 S    
C50   C54   1.351801 D    
C80   O4    1.390769 S    
N34   O15   1.301571 A    
C6    C22   1.375441 A    
N21   N26   1.395606 A    
C20   C67   1.459736 S    
C116  H132  1.110787 S    
C75   C79   1.342269 D    
C105  C106  1.538049 S    
C2    N2    1.332208 A    
N31   Ni8   1.838551 S    
C82   C83   1.525646 S    
C57   H29   1.084340 S    
C22   C61   1.448613 S    
C93   C94   1.529468 S    
C102  H98   1.111056 S    
C49   C59   1.463751 S    
C94   H80   1.109376 S    
N6    Ni6   1.865687 S    
C87   H63   1.114288 S    
N17   Ni1   1.844433 S    
C115  H129  1.111021 S    
C91   C92   1.525967 S    
C83   H54   1.110442 S    
C92   H75   1.110170 S    
C100  C101  1.527912 S    
C86   H61   1.110626 S    
C74   C78   1.332043 D    
C98   H88   1.110185 S    
C21   C62   1.450021 S    
C1    C17   1.382516 A    
C56   H28   1.086971 S    
