data_mof_unit_13832.cif
_audit_creation_date              2012-12-11T15:45:01-0500
_audit_creation_method            fapswitch 2.2
_symmetry_space_group_name_H-M    P1
_symmetry_Int_Tables_number       1
_space_group_crystal_system       triclinic
_cell_length_a                    6.947956
_cell_length_b                    16.873236
_cell_length_c                    17.092172
_cell_angle_alpha                 100.402368
_cell_angle_beta                  87.92245
_cell_angle_gamma                 91.622643
_cell_volume                      1969.07926803

loop_
_atom_site_label
_atom_site_type_symbol
_atom_type_description
_atom_site_fract_x
_atom_site_fract_y
_atom_site_fract_z
_atom_type_partial_charge
O1    O     O_R   0.494370 0.415690 0.413450 -0.547103
O2    O     O_R   0.819420 0.429360 0.578420 -0.543816
O3    O     O_R   0.994280 0.584310 0.586550 -0.546273
C1    C     C_R   0.646389 0.413598 0.604643 0.734272
O4    O     O_R   0.823790 0.406230 0.413570 -0.505615
O5    O     O_R   0.998670 0.561000 0.420530 -0.537384
C2    C     C_R   0.655380 0.382286 0.385786 0.753845
O6    O     O_R   0.489970 0.439000 0.579470 -0.550489
O7    O     O_3   0.662300 0.550810 0.502470 -0.367395
V1    V     V_3+5 0.935380 0.490570 0.499540 1.537350
O8    O     O_R   0.328650 0.570640 0.421580 -0.536972
C3    C     C_R   0.165001 0.584742 0.393507 0.741848
O9    O     O_R   0.324290 0.593770 0.586430 -0.516219
C4    C     C_R   0.154712 0.616287 0.615498 0.771969
V2    V     V_3+5 0.435930 0.509430 0.500460 1.535729
O10   O     O_3   0.159140 0.449190 0.497530 -0.369020
C5    C     C_R   0.274195 0.750598 0.688335 0.357677
C6    C     C_R   0.261479 0.817005 0.752155 0.235668
C7    C     C_R   0.121238 0.816179 0.814786 -0.190225
C8    C     C_R   0.991092 0.749949 0.811646 0.309009
C9    C     C_R   0.003101 0.684023 0.747031 -0.189032
C10   C     C_R   0.143304 0.684606 0.684790 -0.219355
C11   C     C_R   0.175284 0.634849 0.329510 -0.127621
C12   C     C_R   0.091577 0.858365 0.165489 -0.222170
C13   C     C_R   0.918004 0.808929 0.275988 -0.060563
C14   C     C_R   0.938090 0.864354 0.223332 -0.110141
C15   C     C_R   0.227662 0.796488 0.162713 0.357286
C16   C     C_R   0.214562 0.743376 0.219129 0.065892
C17   C     C_R   0.056076 0.748668 0.274722 -0.029639
C18   C     C_R   0.039212 0.694166 0.328913 -0.191225
C19   C     C_R   0.330755 0.628125 0.272978 -0.156814
C20   C     C_R   0.354596 0.683584 0.219744 0.383380
H1    H     H_    0.922126 0.698671 0.372938 0.145779
C21   C     C_R   0.621620 0.362348 0.666419 -0.076029
C22   C     C_R   0.642731 0.140031 0.834283 -0.225581
C23   C     C_R   0.822505 0.175907 0.718788 -0.057083
C24   C     C_R   0.784077 0.122355 0.772176 -0.113800
C25   C     C_R   0.530418 0.209995 0.838909 0.348203
C26   C     C_R   0.555410 0.259764 0.780147 0.067662
C27   C     C_R   0.708325 0.244536 0.722057 -0.023113
C28   C     C_R   0.741996 0.297589 0.667242 -0.196719
C29   C     C_R   0.467454 0.375452 0.721796 -0.247765
C30   C     C_R   0.433395 0.325782 0.778985 0.420481
H2    H     H_    0.857939 0.287420 0.622777 0.143225
H3    H     H_    0.372820 0.425198 0.720728 0.124919
C31   C     C_R   0.811962 0.283482 0.273609 0.354121
C32   C     C_R   0.800759 0.209833 0.219291 -0.140552
C33   C     C_R   0.622368 0.182691 0.186532 -0.112267
C34   C     C_R   0.456412 0.216358 0.226198 -0.179679
H4    H     H_    0.318491 0.195533 0.204513 0.155097
C35   C     C_R   0.468763 0.270906 0.298244 -0.117819
C36   C     C_R   0.645184 0.311989 0.318470 -0.115204
O11   O     O_R   0.774880 0.061150 0.920630 -0.540072
O12   O     O_R   0.440980 0.093710 0.086500 -0.543064
O13   O     O_R   0.266190 0.938890 0.079390 -0.526063
C37   C     C_R   0.609304 0.115590 0.116251 0.727842
O14   O     O_R   0.445420 0.070740 0.921670 -0.538293
O15   O     O_R   0.270660 0.915760 0.913380 -0.551109
C38   C     C_R   0.618359 0.086681 0.895310 0.698276
O16   O     O_R   0.770400 0.084270 0.086640 -0.541250
O17   O     O_3   0.602590 0.949210 0.997500 -0.355286
V3    V     V_3+5 0.329470 0.009420 0.000470 1.517641
O18   O     O_R   0.940650 0.906250 0.913470 -0.505279
C39   C     C_R   0.110303 0.883815 0.884455 0.771697
O19   O     O_R   0.936210 0.929220 0.078300 -0.533456
C40   C     C_R   0.100174 0.913157 0.104987 0.733296
V4    V     V_3+5 0.828930 0.990510 0.999490 1.573648
O20   O     O_3   0.105680 0.050790 0.002500 -0.377573
O21   O     O_3   0.408185 0.749945 0.626216 -0.627736
H5    H     H_    0.496670 0.797319 0.637156 0.344769
O22   O     O_3   0.370305 0.785041 0.103593 -0.589700
H6    H     H_    0.315799 0.794080 0.053275 0.291813
C41   C     C_1   0.978741 0.158988 0.659706 0.334166
N1    N     N_1   0.103387 0.145555 0.612784 -0.320686
O23   O     O_3   0.278509 0.339943 0.832375 -0.597572
H7    H     H_    0.207795 0.387304 0.822659 0.295374
C42   C     C_1   0.885759 0.046957 0.760500 0.376205
N2    N     N_1   0.966209 0.986705 0.750621 -0.370926
O24   O     O_3   0.399506 0.232160 0.901316 -0.594551
H8    H     H_    0.450346 0.217722 0.950136 0.284367
O25   O     O_3   0.981762 0.327836 0.282915 -0.630307
H9    H     H_    0.071801 0.306775 0.238113 0.277087
C43   C     C_1   0.950726 0.152058 0.218059 0.325810
N3    N     N_1   0.063268 0.102757 0.217913 -0.361503
O26   O     O_3   0.385540 0.882230 0.750226 -0.637286
H10   H     H_    0.322499 0.932068 0.777190 0.309109
C44   C     C_1   0.309737 0.273649 0.355372 0.385261
N4    N     N_1   0.184561 0.274797 0.402118 -0.300393
O27   O     O_3   0.859123 0.750664 0.874592 -0.626217
H11   H     H_    0.759018 0.708038 0.861369 0.308799
C45   C     C_1   0.879867 0.613355 0.747591 0.331351
N5    N     N_1   0.781286 0.557062 0.748454 -0.372040
C46   C     C_1   0.460845 0.561295 0.266102 0.317698
N6    N     N_1   0.564866 0.508028 0.260371 -0.349315
C47   C     C_1   0.752630 0.814202 0.331214 0.326507
N7    N     N_1   0.620748 0.818328 0.375006 -0.325206
O28   O     O_3   0.513310 0.680664 0.167892 -0.598597
H12   H     H_    0.619298 0.651698 0.186678 0.297621
C48   C     C_1   0.799078 0.928177 0.229977 0.407221
N8    N     N_1   0.687505 0.978705 0.235527 -0.342808

loop_
_geom_bond_atom_site_label_1
_geom_bond_atom_site_label_2
_ccdc_geom_bond_type
O15   V3    S    
C44   N4    T    
C5    O21   S    
C46   N6    T    
C47   N7    T    
C41   N1    T    
C7    C8    A    
C21   C29   A    
C12   C15   A    
C1    O6    A    
O28   H12   S    
O11   C38   A    
O14   V3    S    
C42   N2    T    
C3    C11   S    
C23   C24   A    
C22   C24   A    
C12   C14   A    
C2    C36   S    
O5    C3    A    
C25   C26   A    
O14   C38   A    
C25   O24   S    
V2    O10   S    
O13   V3    S    
C31   C36   A    
C20   O28   S    
C22   C38   S    
C6    C7    A    
C34   H4    S    
O8    V2    S    
C43   N3    T    
O16   V4    S    
O19   V4    S    
O1    V2    S    
C32   C43   S    
O7    V1    S    
C12   C40   S    
C14   C48   S    
O9    C4    A    
O15   C39   A    
O17   V3    S    
C21   C28   A    
O4    V1    S    
O25   H9    S    
O12   C37   A    
C13   C17   A    
O18   V4    S    
C6    O26   S    
V4    O20   S    
C11   C18   A    
C16   C20   A    
C22   C25   A    
O24   H8    S    
C35   C44   S    
C26   C27   A    
O4    C2    A    
C26   C30   A    
O12   V3    S    
C34   C35   A    
C13   C14   A    
C19   C46   S    
C24   C42   S    
C37   O16   A    
C29   H3    S    
C11   C19   A    
O2    C1    A    
O23   H7    S    
C17   C18   A    
C31   O25   S    
O17   V4    S    
C32   C33   A    
C23   C27   A    
C7    C39   S    
C5    C6    A    
O26   H10   S    
O3    C4    A    
C33   C34   A    
C13   C47   S    
O6    V2    S    
O9    V2    S    
C28   H2    S    
C29   C30   A    
O2    V1    S    
C45   N5    T    
O13   C40   A    
C15   O22   S    
C30   O23   S    
C9    C45   S    
C33   C37   S    
C31   C32   A    
C16   C17   A    
C18   H1    S    
O1    C2    A    
C19   C20   A    
O5    V1    S    
O8    C3    A    
C8    O27   S    
C5    C10   A    
C48   N8    T    
V3    O20   S    
C4    C10   S    
O7    V2    S    
C35   C36   A    
O3    V1    S    
V1    O10   S    
C1    C21   S    
O21   H5    S    
O11   V4    S    
C23   C41   S    
O18   C39   A    
O22   H6    S    
C8    C9    A    
O19   C40   A    
C15   C16   A    
C27   C28   A    
O27   H11   S    
C9    C10   A    
