data_mof_unit_52838.cif
_audit_creation_date              2012-12-10T18:11:51-0500
_audit_creation_method            fapswitch 2.2
_symmetry_space_group_name_H-M    P1
_symmetry_Int_Tables_number       1
_space_group_crystal_system       triclinic
_cell_length_a                    15.826739
_cell_length_b                    10.812447
_cell_length_c                    9.580508
_cell_angle_alpha                 90.521986
_cell_angle_beta                  88.212887
_cell_angle_gamma                 90.265086
_cell_volume                      1638.59096297

loop_
_atom_site_label
_atom_site_type_symbol
_atom_type_description
_atom_site_fract_x
_atom_site_fract_y
_atom_site_fract_z
_atom_type_partial_charge
C1    C     C_R   0.500703 0.260987 0.499884 0.775005
C2    C     C_3   0.083369 0.498590 0.502737 0.114087
C3    C     C_3   0.967590 0.552349 0.616059 -0.224001
C4    C     C_3   0.916751 0.499305 0.494338 0.141725
C5    C     C_3   0.028675 0.616442 0.508290 -0.233757
C6    C     C_3   0.976561 0.562780 0.387792 0.003282
C7    C     C_1   0.175058 0.499242 0.505178 0.055091
C8    C     C_1   0.825064 0.499501 0.493222 0.039770
C9    C     C_3   0.507314 0.072760 0.649546 -0.379908
C10   C     C_3   0.518526 0.932305 0.642820 -0.368035
C11   C     C_3   0.412922 0.075119 0.438782 -0.180873
C12   C     C_R   0.340287 0.499988 0.501747 0.819170
C13   C     C_3   0.574642 0.074756 0.411403 -0.465114
C14   C     C_3   0.497976 0.123796 0.500128 -0.022233
C15   C     C_3   0.495946 0.879592 0.495581 -0.089131
C16   C     C_3   0.404196 0.930170 0.459806 -0.084568
C17   C     C_3   0.565594 0.932779 0.386701 -0.033503
C18   C     C_3   0.510175 0.626830 0.088751 -0.242813
C19   C     C_3   0.509716 0.631541 0.922638 0.078170
C20   C     C_3   0.573160 0.425521 0.074489 -0.079176
C21   C     C_3   0.421392 0.449110 0.088128 -0.102283
C22   C     C_3   0.571461 0.427065 0.908954 -0.307380
C23   C     C_R   0.498110 0.740026 0.499749 0.741312
C24   C     C_3   0.423227 0.441217 0.922790 -0.128857
C25   C     C_R   0.659738 0.500100 0.498169 0.844673
C26   C     C_3   0.971104 0.381110 0.488607 -0.252829
C27   C     C_3   0.031811 0.446289 0.382660 -0.074780
C28   C     C_1   0.250626 0.499661 0.505094 -0.083528
C29   C     C_1   0.749451 0.499825 0.494288 -0.106937
C30   C     C_3   0.023199 0.435287 0.608828 0.031403
Cu1   Cu    Cu3+1 0.500040 0.499860 0.642410 0.918004
Cu2   Cu    Cu3+1 0.499960 0.500140 0.357590 0.955227
H1    H     H_    0.478148 0.892602 0.726330 0.226015
H2    H     H_    0.581533 0.125933 0.311004 0.183275
H3    H     H_    0.633621 0.097008 0.467330 0.166867
H4    H     H_    0.418305 0.095603 0.325356 0.200721
H5    H     H_    0.458069 0.683289 0.136702 0.165035
H6    H     H_    0.946981 0.284804 0.480388 0.160428
H7    H     H_    0.567817 0.670669 0.130130 0.204982
H8    H     H_    0.633012 0.458842 0.863789 0.151985
H9    H     H_    0.369601 0.512582 0.124822 0.164727
H10   H     H_    0.422673 0.342534 0.887826 0.119030
H11   H     H_    0.566653 0.327683 0.107601 0.142181
H12   H     H_    0.566112 0.330317 0.869416 0.166000
H13   H     H_    0.052968 0.712675 0.516045 0.169626
H14   H     H_    0.940191 0.595485 0.712757 0.158408
H15   H     H_    0.450624 0.096307 0.716011 0.182249
H16   H     H_    0.563152 0.114544 0.700288 0.189344
H17   H     H_    0.584439 0.908637 0.667921 0.193698
N1    N     N_3   0.501840 0.500250 0.143650 -0.221494
N2    N     N_3   0.501160 0.503300 0.856280 -0.200918
O1    O     O_R   0.500050 0.317570 0.620260 -0.602508
O2    O     O_R   0.499980 0.317810 0.379740 -0.595639
O3    O     O_R   0.379110 0.499870 0.620240 -0.575802
O4    O     O_R   0.379040 0.500110 0.379720 -0.575190
O5    O     O_R   0.500020 0.682190 0.620260 -0.598541
O6    O     O_R   0.499950 0.682430 0.379740 -0.604313
O7    O     O_R   0.620960 0.499890 0.620280 -0.629395
O8    O     O_R   0.620890 0.500130 0.379760 -0.531045
C31   C     C_1   0.067803 0.388344 0.255121 0.283969
N3    N     N_1   0.096257 0.342798 0.154615 -0.185990
C32   C     C_2   0.335957 0.146832 0.493105 0.439958
H18   H     H_    0.337321 0.197132 0.591548 0.057227
O9    O     O_2   0.270499 0.144412 0.429017 -0.450297
C33   C     C_1   0.341827 0.901470 0.573992 0.219882
N4    N     N_1   0.291158 0.880484 0.660269 -0.216338
C34   C     C_2   0.651362 0.871345 0.403091 0.348144
H19   H     H_    0.686619 0.887862 0.496775 0.069344
O10   O     O_2   0.682112 0.802861 0.313020 -0.505835
C35   C     C_1   0.540017 0.918468 0.239947 0.342281
N5    N     N_1   0.519510 0.912882 0.125316 -0.223240
C36   C     C_2   0.366020 0.866597 0.333349 0.359608
H20   H     H_    0.357682 0.766959 0.332286 0.069023
O11   O     O_2   0.340050 0.924821 0.234851 -0.488877
C37   C     C_1   0.436887 0.710120 0.890903 0.294656
N6    N     N_1   0.378398 0.770798 0.872730 -0.240022
C38   C     C_2   0.589402 0.697778 0.869141 0.298700
H21   H     H_    0.631206 0.656520 0.791335 0.124381
O12   O     O_2   0.608254 0.800348 0.912614 -0.550768
C39   C     C_2   0.661115 0.464607 0.115115 0.445932
H22   H     H_    0.683562 0.558342 0.098466 0.109483
O13   O     O_2   0.709792 0.388878 0.161230 -0.539989
C40   C     C_2   0.397851 0.323327 0.145878 0.461294
H23   H     H_    0.439321 0.244698 0.129556 0.040673
O14   O     O_2   0.329369 0.307061 0.205143 -0.493151
C41   C     C_1   0.340225 0.487666 0.880557 0.322015
N7    N     N_1   0.274142 0.523237 0.851696 -0.203185
C42   C     C_2   0.952478 0.634907 0.262402 0.383745
H24   H     H_    0.001492 0.675401 0.195433 0.074595
O15   O     O_2   0.878356 0.648364 0.234862 -0.491550
C43   C     C_2   0.046751 0.363194 0.734403 0.405002
H25   H     H_    0.997441 0.325283 0.802761 0.072628
O16   O     O_2   0.120773 0.346562 0.760459 -0.500242

loop_
_geom_bond_atom_site_label_1
_geom_bond_atom_site_label_2
_ccdc_geom_bond_type
C24   H10   S    
C2    C7    S    
C16   C36   S    
Cu1   O1    S    
C37   N6    T    
C11   C32   S    
C23   O5    A    
C38   H21   S    
C26   C27   S    
C12   C28   S    
C8    C29   T    
Cu1   O7    S    
C11   H4    S    
C18   H5    S    
C13   H3    S    
C27   C31   S    
C5    C6    S    
C39   H22   S    
C11   C14   S    
C15   C16   S    
C6    C42   S    
C15   C17   S    
C18   C19   S    
C19   C38   S    
C1    O2    A    
C20   N1    S    
C22   H12   S    
C40   H23   S    
C32   O9    D    
C35   N5    T    
Cu1   O5    S    
C9    C10   S    
Cu2   O4    S    
C6    C27   S    
C4    C8    S    
C36   H20   S    
C24   N2    S    
C15   C23   S    
C17   C35   S    
C13   C14   S    
Cu2   O6    S    
C21   N1    S    
C38   O12   D    
C25   C29   S    
C17   C34   S    
C20   C39   S    
C34   H19   S    
C21   C40   S    
C2    C30   S    
C36   O11   D    
Cu1   N2    S    
C43   H25   S    
C9    C14   S    
C41   N7    T    
C26   H6    S    
C5    H13   S    
C7    C28   T    
C31   N3    T    
C34   O10   D    
C3    C30   S    
C18   H7    S    
C32   H18   S    
C43   O16   D    
C11   C16   S    
Cu1   Cu2   S    
C22   H8    S    
Cu2   N1    S    
C2    C27   S    
C21   H9    S    
C39   O13   D    
C40   O14   D    
C42   O15   D    
C9    H15   S    
C4    C6    S    
C25   O7    A    
C3    C4    S    
Cu2   O2    S    
C20   H11   S    
C18   N1    S    
C23   O6    A    
C20   C22   S    
C30   C43   S    
C3    C5    S    
C4    C26   S    
C26   C30   S    
C1    C14   S    
C3    H14   S    
C13   C17   S    
C10   C15   S    
C19   C37   S    
C13   H2    S    
C10   H1    S    
Cu1   O3    S    
C1    O1    A    
C12   O4    A    
C2    C5    S    
C19   N2    S    
C42   H24   S    
C9    H16   S    
C33   N4    T    
C21   C24   S    
C16   C33   S    
C25   O8    A    
Cu2   O8    S    
C10   H17   S    
C24   C41   S    
C12   O3    A    
C22   N2    S    
