data_mof_unit_22958.cif
_audit_creation_date              2012-12-10T16:49:27-0500
_audit_creation_method            fapswitch 2.2
_symmetry_space_group_name_H-M    P1
_symmetry_Int_Tables_number       1
_space_group_crystal_system       triclinic
_cell_length_a                    19.36333
_cell_length_b                    8.738227
_cell_length_c                    7.428523
_cell_angle_alpha                 102.46383
_cell_angle_beta                  95.113258
_cell_angle_gamma                 92.399961
_cell_volume                      1219.99277034

loop_
_atom_site_label
_atom_site_type_symbol
_atom_type_description
_atom_site_fract_x
_atom_site_fract_y
_atom_site_fract_z
_atom_type_partial_charge
C1    C     C_R   0.500305 0.200628 0.454386 0.842380
C2    C     C_R   0.499695 0.799371 0.545613 0.842388
C3    C     C_2   0.509599 0.036009 0.433586 -0.034821
C4    C     C_2   0.490399 0.963990 0.566412 -0.034808
C5    C     C_R   0.367301 0.495983 0.500037 0.783855
C6    C     C_R   0.632699 0.504023 0.499961 0.783810
C7    C     C_R   0.261385 0.538240 0.665679 -0.241392
C8    C     C_R   0.738616 0.461488 0.334373 -0.241282
C9    C     C_R   0.189553 0.539011 0.667442 -0.166081
C10   C     C_R   0.810447 0.460661 0.332639 -0.166020
C11   C     C_R   0.145797 0.490743 0.501923 0.027810
C12   C     C_R   0.854199 0.509141 0.498136 0.027728
C13   C     C_R   0.174936 0.438759 0.335220 -0.192769
C14   C     C_R   0.825057 0.561400 0.664778 -0.192716
C15   C     C_R   0.246958 0.436316 0.331319 0.163906
C16   C     C_R   0.753035 0.563906 0.668642 0.163890
C17   C     C_R   0.290992 0.489271 0.498537 -0.046393
C18   C     C_R   0.709005 0.510722 0.501461 -0.046461
C19   C     C_R   0.930102 0.504861 0.498661 0.422628
C20   C     C_R   0.069893 0.494976 0.501424 0.422627
Cu1   Cu    Cu3+1 0.507710 0.517380 0.684380 0.971401
Cu2   Cu    Cu3+1 0.492290 0.482620 0.315620 0.971403
H1    H     H_    0.293818 0.578290 0.795396 0.176376
H2    H     H_    0.706181 0.421257 0.204688 0.176320
H3    H     H_    0.168429 0.578838 0.798488 0.162666
H4    H     H_    0.831573 0.420614 0.201641 0.162728
H5    H     H_    0.141640 0.399045 0.206947 0.154282
H6    H     H_    0.858352 0.601286 0.793022 0.154276
H7    H     H_    0.445060 0.379816 0.948195 0.239668
H8    H     H_    0.554940 0.620185 0.051805 0.239692
N1    N     N_R   0.027962 0.451620 0.340092 -0.234641
N2    N     N_R   0.972033 0.548212 0.659995 -0.234628
N3    N     N_R   0.959407 0.456330 0.338642 -0.236767
N4    N     N_R   0.040589 0.543500 0.661446 -0.236766
N5    N     N_2   0.480680 0.456420 0.038530 -0.203778
N6    N     N_2   0.519320 0.543580 0.961470 -0.203768
O1    O     O_R   0.505010 0.286130 0.619770 -0.558768
O2    O     O_R   0.494990 0.713870 0.380230 -0.558751
O3    O     O_R   0.491990 0.256780 0.308370 -0.592002
O4    O     O_R   0.508010 0.743220 0.691630 -0.592000
O5    O     O_R   0.406650 0.514660 0.655750 -0.599573
O6    O     O_R   0.593350 0.485340 0.344250 -0.599556
O7    O     O_R   0.393640 0.485310 0.344340 -0.549923
O8    O     O_R   0.606360 0.514690 0.655660 -0.549930
N7    N     N_3   0.275031 0.378046 0.158412 -0.569346
H9    H     H_    0.293012 0.267488 0.162134 0.214653
H10   H     H_    0.236356 0.361334 0.047132 0.210271
N8    N     N_3   0.724952 0.622471 0.841461 -0.569312
H11   H     H_    0.706878 0.732876 0.837336 0.214602
H12   H     H_    0.763643 0.639585 0.952742 0.210330
N9    N     N_3   0.544564 0.955407 0.279584 -0.579141
H13   H     H_    0.553067 0.027300 0.187071 0.236289
H14   H     H_    0.593763 0.931329 0.332874 0.199135
N10   N     N_3   0.455434 0.044591 0.720415 -0.579144
H15   H     H_    0.446909 0.972676 0.812891 0.236278
H16   H     H_    0.406242 0.068715 0.667119 0.199145

loop_
_geom_bond_atom_site_label_1
_geom_bond_atom_site_label_2
_ccdc_geom_bond_type
C2    C4    S    
N1    N3    A    
N10   H16   S    
C15   C17   A    
C1    O1    A    
C8    C18   A    
Cu1   O8    S    
C11   C13   A    
H7    N5    S    
C1    O3    A    
N5    N6    D    
C13   C15   A    
H8    N6    S    
C20   N4    A    
C16   N8    S    
N8    H12   S    
C5    O7    A    
C9    H3    S    
Cu1   N6    S    
C6    O8    A    
N7    H9    S    
Cu2   N5    S    
C9    C11   A    
C10   H4    S    
Cu2   O6    S    
Cu1   O4    S    
C10   C12   A    
C7    H1    S    
Cu2   O3    S    
C12   C19   S    
C8    C10   A    
N8    H11   S    
C8    H2    S    
C12   C14   A    
C14   C16   A    
N7    H10   S    
C19   N3    A    
C6    C18   S    
Cu1   O5    S    
C11   C20   S    
C5    C17   S    
C15   N7    S    
N9    H14   S    
N9    H13   S    
Cu2   O2    S    
C2    O4    A    
Cu1   O1    S    
C16   C18   A    
C6    O6    A    
C1    C3    S    
C7    C9    A    
C3    N9    S    
C2    O2    A    
N10   H15   S    
C13   H5    S    
C5    O5    A    
C14   H6    S    
Cu1   Cu2   S    
C19   N2    A    
Cu2   O7    S    
C4    N10   S    
C3    C4    D    
C7    C17   A    
C20   N1    A    
N2    N4    A    
