data_mof_unit_19672.cif
_audit_creation_date              2012-12-10T19:04:15-0500
_audit_creation_method            fapswitch 2.2
_symmetry_space_group_name_H-M    P1
_symmetry_Int_Tables_number       1
_space_group_crystal_system       triclinic
_cell_length_a                    10.640488
_cell_length_b                    10.806009
_cell_length_c                    9.630366
_cell_angle_alpha                 88.3098
_cell_angle_beta                  89.943514
_cell_angle_gamma                 91.688699
_cell_volume                      1106.34674566

loop_
_atom_site_label
_atom_site_type_symbol
_atom_type_description
_atom_site_fract_x
_atom_site_fract_y
_atom_site_fract_z
_atom_type_partial_charge
C1    C     C_R   0.499765 0.262767 0.501899 0.881581
C2    C     C_3   0.962233 0.610343 0.455342 -0.178450
C3    C     C_3   0.042464 0.522519 0.370545 -0.059151
C4    C     C_3   0.123332 0.499634 0.499918 -0.082212
C5    C     C_R   0.403639 0.058493 0.559789 -0.036093
C6    C     C_R   0.504315 0.129440 0.504483 -0.166851
C7    C     C_R   0.602274 0.070330 0.436977 0.348351
C8    C     C_R   0.603344 0.940570 0.438037 0.385691
C9    C     C_R   0.500767 0.870644 0.494295 -0.168659
C10   C     C_R   0.399207 0.931175 0.549596 -0.016656
C11   C     C_3   0.339069 0.911320 0.688805 -0.447414
C12   C     C_R   0.259804 0.499945 0.499954 0.829618
C13   C     C_3   0.350738 0.050498 0.704312 0.301874
C14   C     C_R   0.597784 0.553103 0.069610 0.109225
C15   C     C_R   0.413667 0.430725 0.076839 0.422414
C16   C     C_R   0.412273 0.432473 0.928547 0.445240
C17   C     C_R   0.598679 0.550523 0.923790 0.123029
C18   C     C_3   0.654685 0.676766 0.904610 -0.447403
C19   C     C_3   0.651554 0.683515 0.062093 0.648202
C20   C     C_R   0.500408 0.737158 0.498445 0.861113
C21   C     C_R   0.740605 0.499566 0.500255 0.867539
C22   C     C_3   0.040214 0.387759 0.546169 -0.151344
C23   C     C_3   0.956673 0.410900 0.416822 -0.143086
C24   C     C_3   0.877942 0.498840 0.501383 -0.102655
C25   C     C_3   0.960338 0.476144 0.629446 0.451045
C26   C     C_3   0.045667 0.587721 0.584696 -0.220658
Cu1   Cu    Cu3+1 0.499990 0.499980 0.640670 1.053237
Cu2   Cu    Cu3+1 0.500010 0.500020 0.359330 1.098954
H1    H     H_    0.920292 0.339843 0.345466 0.242084
H2    H     H_    0.074847 0.296894 0.583970 0.190225
N1    N     N_R   0.500800 0.500930 0.147930 -0.256678
N2    N     N_R   0.500800 0.500890 0.852020 -0.244205
O1    O     O_R   0.500000 0.319640 0.618810 -0.523242
O2    O     O_R   0.500010 0.319680 0.381230 -0.519457
O3    O     O_R   0.316850 0.499950 0.618770 -0.548492
O4    O     O_R   0.316860 0.499990 0.381190 -0.556633
O5    O     O_R   0.499990 0.680320 0.618770 -0.615377
O6    O     O_R   0.500000 0.680360 0.381190 -0.517302
O7    O     O_R   0.683140 0.500010 0.618810 -0.555393
O8    O     O_R   0.683150 0.500050 0.381230 -0.538354
H3    H     H_    0.397041 0.856801 0.763027 0.244551
H4    H     H_    0.258801 0.095758 0.713448 0.157505
Cl1   Cl    Cl    0.464228 0.089929 0.834408 -0.436785
Cl2   Cl    Cl    0.303741 0.332691 0.166765 -0.465364
Cl3   Cl    Cl    0.294432 0.343595 0.846211 -0.482139
H5    H     H_    0.750649 0.675162 0.859135 0.239271
H6    H     H_    0.590871 0.741506 0.850191 0.217206
Cl4   Cl    Cl    0.805755 0.693929 0.133756 -0.484405
Cl5   Cl    Cl    0.548308 0.800760 0.115100 -0.480550
Cl6   Cl    Cl    0.909779 0.443928 0.803601 -0.501026
H7    H     H_    0.084528 0.659753 0.653870 0.179020
H8    H     H_    0.931217 0.702064 0.417668 0.251673
H9    H     H_    0.078604 0.541771 0.263647 0.217368
Cl7   Cl    Cl    0.729293 0.157451 0.362088 -0.506810
Cl8   Cl    Cl    0.741335 0.867632 0.389682 -0.493449
H10   H     H_    0.240009 0.876818 0.680074 0.180278

loop_
_geom_bond_atom_site_label_1
_geom_bond_atom_site_label_2
_ccdc_geom_bond_type
C16   Cl3   S    
C15   Cl2   S    
C4    C26   S    
C23   C24   S    
C15   N1    A    
C6    C7    A    
C4    C12   S    
C4    C22   S    
C9    C10   A    
C19   Cl5   S    
C9    C20   S    
C5    C13   S    
C21   O7    A    
Cu2   O6    S    
C14   N1    A    
C18   H6    S    
C13   Cl1   S    
C17   C18   S    
Cu1   N2    S    
C1    O1    A    
C5    C10   A    
C2    C26   S    
C26   H7    S    
Cu1   O1    S    
C12   O3    A    
C20   O5    A    
C11   C13   S    
C14   C17   A    
C3    H9    S    
C21   O8    A    
C2    H8    S    
Cu1   O5    S    
C16   N2    A    
C18   H5    S    
C8    Cl8   S    
C13   H4    S    
C1    O2    A    
C11   H3    S    
C2    C3    S    
C22   C23   S    
C2    C24   S    
C5    C6    A    
C12   O4    A    
C10   C11   S    
Cu2   O8    S    
Cu2   O2    S    
C3    C4    S    
C23   H1    S    
C7    C8    A    
C20   O6    A    
C24   C25   S    
Cu2   O4    S    
C18   C19   S    
C21   C24   S    
Cu1   Cu2   S    
C17   N2    A    
C25   Cl6   S    
C22   H2    S    
C7    Cl7   S    
Cu1   O3    S    
C25   C26   S    
C19   Cl4   S    
C3    C23   S    
C14   C19   S    
Cu2   N1    S    
C11   H10   S    
C15   C16   A    
Cu1   O7    S    
C8    C9    A    
C22   C25   S    
C1    C6    S    
