data_mof_unit_53697.cif
_audit_creation_date              2013-03-05T15:46:12-0500
_audit_creation_method            fapswitch 2.2
_symmetry_space_group_name_H-M    P1
_symmetry_Int_Tables_number       1
_space_group_crystal_system       triclinic
_cell_length_a                    10.5613
_cell_length_b                    10.722623
_cell_length_c                    17.175109
_cell_angle_alpha                 80.094348
_cell_angle_beta                  90.107799
_cell_angle_gamma                 119.32946
_cell_volume                      1662.69701296

loop_
_atom_site_label
_atom_site_type_symbol
_atom_site_description
_atom_site_fract_x
_atom_site_fract_y
_atom_site_fract_z
_atom_type_partial_charge
O1    O     O_R   0.521780 0.757110 0.108900 -0.500390
O2    O     O_R   0.275160 0.783810 0.101120 -0.486100
C1    C     C_R   0.223684 0.854826 0.128925 0.549710
O3    O     O_R   0.237900 0.972600 0.090980 -0.503766
O4    O     O_R   0.511190 0.220540 0.061620 -0.475359
C2    C     C_R   0.633198 0.268063 0.091831 0.594929
O5    O     O_R   0.736920 0.257720 0.063840 -0.479973
O6    O     O_R   0.710450 0.984050 0.081720 -0.492124
C3    C     C_R   0.640764 0.858082 0.125246 0.547483
O7    O     O_R   0.524090 0.765520 0.933110 -0.525981
O8    O     O_R   0.277300 0.791600 0.938160 -0.470323
C4    C     C_R   0.225745 0.865066 0.898893 0.583032
O9    O     O_R   0.240210 0.981010 0.915190 -0.497338
O10   O     O_R   0.513330 0.228330 0.898660 -0.488244
C5    C     C_R   0.636734 0.283501 0.860665 0.536956
O11   O     O_R   0.739230 0.266130 0.888050 -0.499748
O12   O     O_R   0.712580 0.991850 0.918770 -0.443922
C6    C     C_R   0.648849 0.865798 0.900273 0.554924
Cr1   Cr    Cr6+3 0.402240 0.783890 0.019450 1.065308
Cr2   Cr    Cr6+3 0.382360 0.097900 0.991800 1.085506
Cr3   Cr    Cr6+3 0.715380 0.118170 0.988700 1.099490
O13   O     O_3   0.499990 0.999980 0.999980 -0.295158
C7    C     C_R   0.538372 0.327724 0.204404 0.028854
C8    C     C_R   0.530805 0.331480 0.285479 0.154125
C9    C     C_R   0.628648 0.307694 0.333584 -0.019079
C10   C     C_R   0.713108 0.254266 0.305006 0.164830
C11   C     C_R   0.729908 0.261629 0.223659 0.028595
C12   C     C_R   0.640424 0.296377 0.172801 0.019996
C13   C     C_1   0.669330 0.846846 0.205204 -0.018090
C14   C     C_1   0.680659 0.836842 0.274544 -0.012777
C15   C     C_1   0.181349 0.826110 0.211432 -0.019791
C16   C     C_1   0.151450 0.820181 0.279795 -0.014337
C17   C     C_1   0.642260 0.320978 0.777883 -0.000007
C18   C     C_1   0.650130 0.343374 0.707394 -0.001824
C19   C     C_R   0.603805 0.712560 0.804103 -0.166596
H1    H     H_    0.535126 0.617249 0.849310 0.189852
C20   C     C_R   0.576464 0.704927 0.726210 0.162857
C21   C     C_R   0.665117 0.827176 0.665482 -0.029234
C22   C     C_R   0.770290 0.960347 0.686369 0.035928
C23   C     C_R   0.786865 0.968509 0.766554 0.229366
C24   C     C_R   0.694774 0.846533 0.825253 -0.056332
C25   C     C_R   0.254773 0.967370 0.758793 -0.141147
H2    H     H_    0.315676 0.075829 0.772083 0.171151
C26   C     C_R   0.240825 0.954051 0.680314 0.041842
C27   C     C_R   0.161090 0.814631 0.662256 0.094414
C28   C     C_R   0.112842 0.688587 0.722878 0.062118
C29   C     C_R   0.128911 0.703707 0.802162 0.066589
C30   C     C_R   0.193797 0.843162 0.819481 0.041592
O14   O     O_R   0.083770 0.911170 0.376030 -0.470580
O15   O     O_R   0.808770 0.880340 0.383890 -0.464895
C31   C     C_R   0.686907 0.808872 0.356896 0.583934
O16   O     O_R   0.584340 0.689460 0.394160 -0.460786
O17   O     O_R   0.614320 0.443940 0.423590 -0.462880
C32   C     C_R   0.679501 0.381967 0.400623 0.573865
O18   O     O_R   0.805020 0.410040 0.421340 -0.462664
O19   O     O_R   0.049240 0.685450 0.403290 -0.491108
C33   C     C_R   0.103224 0.810234 0.359075 0.551550
O20   O     O_R   0.077520 0.903010 0.551800 -0.484236
O21   O     O_R   0.802980 0.872780 0.546830 -0.510397
C34   C     C_R   0.677175 0.800328 0.585839 0.567864
O22   O     O_R   0.578090 0.681300 0.569920 -0.439128
O23   O     O_R   0.608530 0.436370 0.586530 -0.488999
C35   C     C_R   0.678970 0.382714 0.624510 0.529977
O24   O     O_R   0.798770 0.401880 0.597100 -0.472062
O25   O     O_R   0.043450 0.677890 0.566230 -0.466703
C36   C     C_R   0.100119 0.801534 0.586120 0.591742
Cr4   Cr    Cr6+3 0.936650 0.882420 0.465510 1.132137
Cr5   Cr    Cr6+3 0.605770 0.565620 0.493360 1.153808
Cr6   Cr    Cr6+3 0.921340 0.550490 0.496380 1.127473
O26   O     O_3   0.821250 0.666180 0.485090 -0.321049
N1    N     N_3   0.443145 0.355627 0.153661 -0.577715
H3    H     H_    0.335147 0.285418 0.177873 0.273637
H4    H     H_    0.468109 0.463567 0.150354 0.276648
N2    N     N_3   0.305672 0.082313 0.618871 -0.561883
H5    H     H_    0.268562 0.152239 0.630390 0.272393
H6    H     H_    0.418347 0.134509 0.621758 0.233859
N3    N     N_3   0.042119 0.545834 0.704363 -0.521740
H7    H     H_    0.099868 0.493374 0.725711 0.317315
H8    H     H_    0.937519 0.487646 0.733860 0.243350
N4    N     N_3   0.076164 0.578763 0.865586 -0.596188
H9    H     H_    0.126266 0.518304 0.856801 0.269807
H10   H     H_    0.963650 0.514687 0.864784 0.249816
N5    N     N_R   0.421052 0.354106 0.319397 0.095207
O27   O     O_R   0.406652 0.465803 0.289079 -0.325459
O28   O     O_R   0.337015 0.263979 0.382324 -0.286597
N6    N     N_R   0.782454 0.193792 0.359231 0.084319
O29   O     O_R   0.709015 0.103335 0.424576 -0.350525
O30   O     O_R   0.921776 0.241137 0.348632 -0.310263
N7    N     N_3   0.836950 0.232383 0.192766 -0.554129
H11   H     H_    0.820779 0.132120 0.223284 0.257778
H12   H     H_    0.940698 0.314471 0.200953 0.275109
N8    N     N_R   0.451967 0.574958 0.710898 0.100722
O31   O     O_R   0.353698 0.586033 0.669236 -0.313118
O32   O     O_R   0.421295 0.447550 0.751275 -0.348136
N9    N     N_3   0.859549 0.089183 0.627561 -0.522658
H13   H     H_    0.946046 0.081783 0.603801 0.274337
H14   H     H_    0.796503 0.100265 0.582782 0.275115
N10   N     N_R   0.897425 0.100278 0.788032 0.119750
O33   O     O_R   0.985242 0.095419 0.840195 -0.318001
O34   O     O_R   0.911339 0.225410 0.755249 -0.321422

loop_
_geom_bond_atom_site_label_1
_geom_bond_atom_site_label_2
_geom_bond_distance
_ccdc_geom_bond_type
C14   C31   1.402835 S    
O11   Cr3   2.057999 S    
N9    H13   1.044463 S    
C4    C30   1.435308 S    
O4    Cr2   1.949900 S    
O17   C32   1.269017 A    
O8    Cr1   1.938424 S    
C10   C11   1.392475 A    
O23   C35   1.264250 A    
N2    H6    1.043380 S    
N5    O27   1.300880 A    
C29   N4    1.435558 S    
C19   C20   1.375835 A    
C8    N5    1.438226 S    
C23   N10   1.434319 S    
C21   C22   1.422115 A    
N6    O30   1.301290 A    
C5    O11   1.262202 A    
O14   C33   1.274717 A    
O19   C33   1.263614 A    
O17   Cr5   1.949398 S    
N8    O31   1.300745 A    
O21   Cr4   1.941434 S    
C32   O18   1.272276 A    
O20   C36   1.273410 A    
C2    C12   1.467691 S    
C15   C16   1.199349 T    
O6    C3    1.267172 A    
C7    C8    1.403508 A    
N7    H12   1.045125 S    
C13   C14   1.188367 T    
O15   Cr4   1.940056 S    
O16   Cr5   2.057169 S    
C3    C13   1.403050 S    
O21   C34   1.277029 A    
Cr3   O13   1.977690 S    
C25   C26   1.379781 A    
C16   C33   1.422769 S    
O15   C31   1.269804 A    
N3    H8    1.041364 S    
O1    Cr1   2.057352 S    
N2    H5    1.046020 S    
C31   O16   1.258713 A    
O10   Cr2   1.942082 S    
Cr1   O13   1.984354 S    
O1    C3    1.265123 A    
C9    C32   1.463755 S    
N4    H10   1.042911 S    
C6    C24   1.459521 S    
C22   C23   1.400183 A    
N1    H4    1.044419 S    
N6    O29   1.301417 A    
C9    C10   1.401354 A    
N3    H7    1.042655 S    
O12   Cr3   1.948939 S    
C34   O22   1.268592 A    
C19   H1    1.084578 S    
C1    C15   1.421328 S    
C20   C21   1.419053 A    
C7    N1    1.436083 S    
C29   C30   1.393728 A    
O7    Cr1   2.061527 S    
C10   N6    1.441918 S    
N8    O32   1.301367 A    
O12   C6    1.279250 A    
C25   C30   1.399855 A    
O24   Cr6   2.060733 S    
C8    C9    1.413501 A    
C26   N2    1.433446 S    
C22   N9    1.436996 S    
O18   Cr6   2.070657 S    
C21   C34   1.463641 S    
C23   C24   1.405979 A    
N5    O28   1.301433 A    
Cr2   O13   1.972810 S    
N10   O33   1.301423 A    
N10   O34   1.298515 A    
C7    C12   1.410369 A    
C25   H2    1.084553 S    
C1    O3    1.254398 A    
C11   C12   1.422961 A    
C26   C27   1.401943 A    
C28   C29   1.399097 A    
O14   Cr4   2.061029 S    
C20   N8    1.438692 S    
O2    Cr1   1.942782 S    
O9    Cr2   2.067042 S    
N4    H9    1.045474 S    
O6    Cr3   1.939014 S    
C28   N3    1.431279 S    
O8    C4    1.268024 A    
N9    H14   1.045523 S    
C2    O5    1.258072 A    
O23   Cr5   1.938712 S    
Cr4   O26   1.984819 S    
O2    C1    1.278713 A    
N1    H3    1.045708 S    
O5    Cr3   2.070286 S    
O22   Cr5   2.066617 S    
O4    C2    1.278472 A    
O7    C6    1.271435 A    
O25   Cr6   1.949529 S    
C18   C35   1.402272 S    
C17   C18   1.187872 T    
C11   N7    1.436921 S    
O25   C36   1.268990 A    
Cr6   O26   1.973567 S    
C19   C24   1.394549 A    
C35   O24   1.256549 A    
O3    Cr2   2.061243 S    
C27   C28   1.418977 A    
O20   Cr4   2.059403 S    
C4    O9    1.257291 A    
Cr5   O26   1.976469 S    
O19   Cr6   1.942201 S    
C27   C36   1.454552 S    
O10   C5    1.260741 A    
N7    H11   1.042247 S    
C5    C17   1.402559 S    
