data_mof_unit_43310.cif
_audit_creation_date              2012-12-11T14:45:31-0500
_audit_creation_method            fapswitch 2.2
_symmetry_space_group_name_H-M    P1
_symmetry_Int_Tables_number       1
_space_group_crystal_system       triclinic
_cell_length_a                    24.825747
_cell_length_b                    7.170875
_cell_length_c                    14.431323
_cell_angle_alpha                 89.482921
_cell_angle_beta                  102.619877
_cell_angle_gamma                 87.973644
_cell_volume                      2505.09365412

loop_
_atom_site_label
_atom_site_type_symbol
_atom_type_description
_atom_site_fract_x
_atom_site_fract_y
_atom_site_fract_z
_atom_type_partial_charge
O1    O     O_R   0.319150 0.364170 0.330530 -0.553106
O2    O     O_R   0.680850 0.635830 0.669470 -0.553108
O3    O     O_R   0.180850 0.864170 0.169470 -0.539355
O4    O     O_R   0.819150 0.135830 0.830530 -0.539356
O5    O     O_R   0.210330 0.696850 0.354180 -0.530041
O6    O     O_R   0.789670 0.303150 0.645820 -0.530031
O7    O     O_R   0.289670 0.196850 0.145820 -0.529741
O8    O     O_R   0.710330 0.803150 0.854180 -0.529741
C1    C     C_R   0.197225 0.526283 0.378279 0.764013
C2    C     C_R   0.802775 0.473717 0.621720 0.764012
C3    C     C_R   0.302548 0.024495 0.121411 0.769603
C4    C     C_R   0.697452 0.975505 0.878589 0.769600
O9    O     O_R   0.320550 0.694110 0.341970 -0.533252
O10   O     O_R   0.679450 0.305890 0.658030 -0.533248
O11   O     O_R   0.179450 0.194110 0.158030 -0.550531
O12   O     O_R   0.820550 0.805890 0.841970 -0.550531
O13   O     O_R   0.291860 0.861000 0.157170 -0.537574
O14   O     O_R   0.708140 0.139000 0.842830 -0.537575
O15   O     O_R   0.208140 0.361000 0.342830 -0.536713
O16   O     O_R   0.791860 0.639000 0.657170 -0.536717
C5    C     C_R   0.341749 0.521446 0.362617 0.721339
C6    C     C_R   0.658251 0.478554 0.637383 0.721327
C7    C     C_R   0.157901 0.029620 0.137561 0.724358
C8    C     C_R   0.842099 0.970380 0.862438 0.724356
O17   O     O_3   0.240460 0.529330 0.189380 -0.374903
O18   O     O_3   0.759540 0.470670 0.810620 -0.374905
O19   O     O_3   0.259540 0.029330 0.310620 -0.375397
O20   O     O_3   0.740460 0.970670 0.689380 -0.375393
V1    V     V_3+5 0.251770 0.805510 0.261240 1.530280
V2    V     V_3+5 0.748230 0.194490 0.738760 1.530296
V3    V     V_3+5 0.248230 0.305510 0.238760 1.511416
V4    V     V_3+5 0.751770 0.694490 0.761240 1.511408
C9    C     C_R   0.101637 0.037924 0.075273 -0.059692
C10   C     C_R   0.898363 0.962076 0.924725 -0.059693
C11   C     C_R   0.397355 0.496126 0.425489 -0.046992
C12   C     C_R   0.602645 0.503874 0.574511 -0.046993
C13   C     C_R   0.971345 0.779697 0.032357 -0.142798
C14   C     C_R   0.028656 0.220303 0.967640 -0.142802
C15   C     C_R   0.534873 0.708953 0.469611 -0.151056
C16   C     C_R   0.465127 0.291047 0.530389 -0.151060
C17   C     C_R   0.916741 0.801318 0.981452 -0.074501
C18   C     C_R   0.083260 0.198683 0.018546 -0.074507
C19   C     C_R   0.588878 0.669455 0.519898 -0.090008
C20   C     C_R   0.411122 0.330546 0.480102 -0.089985
C21   C     C_R   0.935747 0.103439 0.921673 -0.200973
C22   C     C_R   0.064253 0.896560 0.078324 -0.200966
C23   C     C_R   0.561410 0.375758 0.576238 -0.192429
C24   C     C_R   0.438590 0.624242 0.423762 -0.192437
C25   C     C_R   0.990976 0.081808 0.972275 0.138664
C26   C     C_R   0.009025 0.918191 0.027722 0.138670
C27   C     C_R   0.506736 0.415755 0.526681 0.145170
C28   C     C_R   0.493264 0.584245 0.473319 0.145172
H1    H     H_    0.077538 0.772922 0.122370 0.116909
H2    H     H_    0.922462 0.227076 0.877627 0.116912
H3    H     H_    0.428655 0.751047 0.381037 0.114475
H4    H     H_    0.571345 0.248953 0.618963 0.114474
H5    H     H_    0.111061 0.310009 0.014388 0.178469
H6    H     H_    0.888940 0.689995 0.985611 0.178460
H7    H     H_    0.380066 0.229464 0.482775 0.169688
H8    H     H_    0.619934 0.770536 0.517225 0.169682
H9    H     H_    0.984210 0.653645 0.074597 0.145983
H10   H     H_    0.015791 0.346357 0.925401 0.146002
H11   H     H_    0.525556 0.838185 0.428818 0.149959
H12   H     H_    0.474443 0.161815 0.571182 0.149960
C29   C     C_R   0.665897 0.985136 0.953206 -0.184697
C30   C     C_R   0.334102 0.014864 0.046793 -0.184693
C31   C     C_R   0.834458 0.478753 0.547168 -0.182869
C32   C     C_R   0.165545 0.521246 0.452835 -0.182869
C33   C     C_R   0.660559 0.976576 0.119184 0.432061
C34   C     C_R   0.339439 0.023410 0.880815 0.432070
C35   C     C_R   0.840400 0.462329 0.381644 0.432374
C36   C     C_R   0.159618 0.537577 0.618375 0.432368
C37   C     C_R   0.692087 0.969456 0.049161 0.326919
C38   C     C_R   0.307911 0.030528 0.950838 0.326929
C39   C     C_R   0.808946 0.456739 0.451699 0.325550
C40   C     C_R   0.191067 0.543163 0.548313 0.325518
C41   C     C_R   0.608607 0.997165 0.926278 -0.252424
C42   C     C_R   0.391392 0.002846 0.073719 -0.252427
C43   C     C_R   0.891401 0.494956 0.573846 -0.252541
C44   C     C_R   0.108598 0.505121 0.426158 -0.252518
C45   C     C_R   0.575282 0.994961 0.993952 0.020050
C46   C     C_R   0.424716 0.005048 0.006045 0.020049
C47   C     C_R   0.924891 0.491282 0.506316 0.018979
C48   C     C_R   0.075112 0.508796 0.493695 0.018994
C49   C     C_R   0.601730 0.001576 0.092277 -0.125881
C50   C     C_R   0.398269 0.998425 0.907720 -0.125878
C51   C     C_R   0.898382 0.492396 0.407878 -0.125045
C52   C     C_R   0.101626 0.507626 0.592137 -0.125083
C53   C     C_R   0.516328 0.989905 0.965671 0.040670
C54   C     C_R   0.483671 0.010107 0.034326 0.040673
C55   C     C_R   0.983948 0.490410 0.534647 0.039208
C56   C     C_R   0.016054 0.509699 0.465363 0.039217
C57   C     C_R   0.510751 0.042772 0.128910 -0.224584
C58   C     C_R   0.489247 0.957241 0.871086 -0.224583
C59   C     C_R   0.988099 0.537675 0.369932 -0.222988
C60   C     C_R   0.011902 0.462455 0.630077 -0.222967
C61   C     C_R   0.568062 0.036694 0.158417 0.444376
C62   C     C_R   0.431937 0.963312 0.841579 0.444383
C63   C     C_R   0.930997 0.527594 0.340764 0.450257
C64   C     C_R   0.069005 0.472490 0.659248 0.450262
H13   H     H_    0.408740 0.988312 0.148852 0.122697
H14   H     H_    0.591259 0.011709 0.851145 0.122698
H15   H     H_    0.091706 0.486321 0.351520 0.123882
H16   H     H_    0.908287 0.513810 0.648479 0.123898
H17   H     H_    0.488164 0.080695 0.182170 0.151612
H18   H     H_    0.511834 0.919320 0.817826 0.151612
H19   H     H_    0.009640 0.575111 0.315642 0.148066
H20   H     H_    0.990356 0.425065 0.684366 0.148072
Cl1   Cl    Cl    0.592942 0.101665 0.277505 -0.525175
Cl2   Cl    Cl    0.407057 0.898341 0.722491 -0.525177
Cl3   Cl    Cl    0.904059 0.589177 0.220303 -0.533125
Cl4   Cl    Cl    0.095927 0.410975 0.779715 -0.533204
Cl5   Cl    Cl    0.234989 0.058351 0.918734 -0.458366
Cl6   Cl    Cl    0.765009 0.941608 0.081266 -0.458333
Cl7   Cl    Cl    0.263182 0.574904 0.579997 -0.459087
Cl8   Cl    Cl    0.736841 0.424865 0.420014 -0.459063
Cl9   Cl    Cl    0.696737 0.929843 0.237569 -0.346818
Cl10  Cl    Cl    0.303259 0.070125 0.762429 -0.346820
Cl11  Cl    Cl    0.805966 0.407170 0.264758 -0.344431
Cl12  Cl    Cl    0.194085 0.592533 0.735290 -0.344346

loop_
_geom_bond_atom_site_label_1
_geom_bond_atom_site_label_2
_ccdc_geom_bond_type
O17   V3    S    
C24   H3    S    
C47   C51   A    
O1    C5    A    
C62   Cl2   S    
O19   V1    S    
O13   V1    S    
O3    C7    A    
C44   C48   A    
O15   V3    S    
C14   C25   A    
C2    C31   S    
O7    C3    A    
C9    C18   A    
O9    V1    S    
C17   H6    S    
C14   C18   A    
O4    C8    A    
C59   C63   A    
C58   C62   A    
C20   H7    S    
C30   C38   A    
O1    V3    S    
C40   Cl7   S    
C29   C37   A    
C12   C23   A    
O2    V4    S    
C53   C58   A    
O3    V1    S    
C34   C38   A    
C57   H17   S    
C55   C60   A    
C1    O15   A    
C58   H18   S    
C2    O16   A    
C7    C9    S    
O2    C6    A    
C33   C37   A    
O14   V2    S    
C21   C25   A    
C16   C20   A    
O5    V1    S    
C3    C30   S    
C36   C40   A    
C45   C53   A    
O11   C7    A    
C15   C28   A    
C60   H20   S    
O12   C8    A    
C42   H13   S    
C9    C22   A    
C41   H14   S    
C10   C17   A    
O10   V2    S    
C11   C24   A    
C18   H5    S    
C36   C52   A    
C51   C63   A    
C30   C42   A    
C29   C41   A    
C44   H15   S    
C27   C28   A    
O8    V4    S    
O7    V3    S    
C55   C56   A    
O18   V4    S    
C15   C19   A    
C46   C50   A    
C38   Cl5   S    
C56   C59   A    
C8    C10   S    
C37   Cl6   S    
O5    C1    A    
C61   Cl1   S    
C42   C46   A    
C13   H9    S    
C6    C12   S    
C41   C45   A    
O8    C4    A    
C63   Cl3   S    
C36   Cl12  S    
O9    C5    A    
C10   C21   A    
C32   C40   A    
C11   C20   A    
C52   C64   A    
C59   H19   S    
C19   H8    S    
C35   C51   A    
O6    V2    S    
C21   H2    S    
C64   Cl4   S    
C43   H16   S    
C31   C39   A    
C32   C44   A    
C34   C50   A    
C57   C61   A    
C33   C49   A    
C54   C57   A    
O16   V4    S    
C3    O13   A    
C48   C52   A    
C46   C54   A    
O6    C2    A    
C23   C27   A    
O11   V3    S    
C5    C11   S    
O12   V4    S    
C16   C27   A    
C15   H11   S    
C4    C29   S    
C22   C26   A    
C16   H12   S    
C35   Cl11  S    
O10   C6    A    
O20   V2    S    
C1    C32   S    
C35   C39   A    
C13   C26   A    
C34   Cl10  S    
C60   C64   A    
C22   H1    S    
C33   Cl9   S    
C47   C55   A    
C13   C17   A    
C50   C62   A    
O4    V2    S    
C49   C61   A    
C43   C47   A    
C24   C28   A    
C25   C26   A    
C4    O14   A    
C12   C19   A    
C39   Cl8   S    
C48   C56   A    
C53   C54   A    
C31   C43   A    
C45   C49   A    
C23   H4    S    
C14   H10   S    
