data_mof_unit_28805.cif
_audit_creation_date              2012-12-11T14:43:57-0500
_audit_creation_method            fapswitch 2.2
_symmetry_space_group_name_H-M    P1
_symmetry_Int_Tables_number       1
_space_group_crystal_system       triclinic
_cell_length_a                    18.927166
_cell_length_b                    10.917269
_cell_length_c                    18.7636
_cell_angle_alpha                 89.953096
_cell_angle_beta                  90.444647
_cell_angle_gamma                 90.015017
_cell_volume                      3877.06007842

loop_
_atom_site_label
_atom_site_type_symbol
_atom_type_description
_atom_site_fract_x
_atom_site_fract_y
_atom_site_fract_z
_atom_type_partial_charge
C1    C     C_R   0.730530 0.377625 0.146345 0.551911
C2    C     C_R   0.272261 0.371975 0.856330 0.549844
C3    C     C_R   0.230530 0.877625 0.146346 0.551909
C4    C     C_R   0.772261 0.871974 0.856331 0.549841
C5    C     C_R   0.526908 0.380120 0.922530 -0.091335
C6    C     C_R   0.506072 0.396965 0.068939 -0.087036
C7    C     C_R   0.026907 0.880122 0.922529 -0.091332
C8    C     C_R   0.006072 0.896965 0.068939 -0.087036
C9    C     C_R   0.032567 0.993120 0.956512 -0.131336
C10   C     C_R   0.020141 0.002047 0.029207 -0.138186
C11   C     C_R   0.532569 0.493118 0.956512 -0.131339
C12   C     C_R   0.520143 0.502046 0.029206 -0.138182
C13   C     C_R   0.691467 0.880676 0.037321 -0.138293
C14   C     C_R   0.298396 0.859383 0.961742 -0.143373
C15   C     C_R   0.191466 0.380679 0.037319 -0.138289
C16   C     C_R   0.798395 0.359383 0.961742 -0.143371
C17   C     C_R   0.697003 0.869494 0.963868 -0.148979
C18   C     C_R   0.296131 0.843923 0.035092 -0.135808
C19   C     C_R   0.197001 0.369500 0.963867 -0.148979
C20   C     C_R   0.796131 0.343924 0.035092 -0.135808
C21   C     C_R   0.761638 0.894480 0.931370 0.033458
C22   C     C_R   0.251011 0.917657 0.076119 0.029361
C23   C     C_R   0.261637 0.394485 0.931369 0.033457
C24   C     C_R   0.751010 0.417656 0.076118 0.029361
C25   C     C_R   0.821473 0.922605 0.973023 -0.126055
C26   C     C_R   0.213037 0.012857 0.044506 -0.124341
C27   C     C_R   0.321471 0.422612 0.973022 -0.126056
C28   C     C_R   0.713035 0.512853 0.044505 -0.124340
C29   C     C_R   0.816284 0.931350 0.045706 -0.139566
C30   C     C_R   0.214420 0.026787 0.971792 -0.114891
C31   C     C_R   0.316282 0.431358 0.045704 -0.139570
C32   C     C_R   0.714417 0.526781 0.971791 -0.114889
C33   C     C_R   0.750805 0.916282 0.077946 0.027866
C34   C     C_R   0.255265 0.947780 0.929719 0.035638
C35   C     C_R   0.250804 0.416285 0.077945 0.027867
C36   C     C_R   0.755263 0.447776 0.929718 0.035638
C37   C     C_R   0.501613 0.058266 0.464061 -0.148781
C38   C     C_R   0.499780 0.058418 0.536480 -0.148769
C39   C     C_R   0.001392 0.558273 0.463991 -0.148796
C40   C     C_R   0.999580 0.558400 0.536411 -0.148732
C41   C     C_R   0.495860 0.168292 0.574196 0.008085
C42   C     C_R   0.504638 0.168036 0.426034 0.008576
C43   C     C_R   0.995772 0.668277 0.574154 0.008129
C44   C     C_R   0.004542 0.668056 0.425987 0.008568
C45   C     C_R   0.530285 0.156389 0.147321 0.540975
C46   C     C_R   0.468574 0.154878 0.853487 0.535147
C47   C     C_R   0.030285 0.656389 0.147321 0.540968
C48   C     C_R   0.968575 0.654878 0.853487 0.535160
C49   C     C_R   0.499936 0.282861 0.537950 -0.025532
C50   C     C_R   0.500084 0.282696 0.462027 -0.025388
C51   C     C_R   0.999875 0.782856 0.537918 -0.025601
C52   C     C_R   0.000042 0.782712 0.461993 -0.025417
C53   C     C_R   0.776975 0.063090 0.481421 -0.141188
C54   C     C_R   0.222850 0.062802 0.518526 -0.141310
C55   C     C_R   0.277011 0.563045 0.481410 -0.141159
C56   C     C_R   0.722816 0.562750 0.518539 -0.141282
C57   C     C_R   0.782003 0.037368 0.553700 -0.134880
C58   C     C_R   0.217843 0.037107 0.446264 -0.134826
C59   C     C_R   0.282035 0.537334 0.553689 -0.134855
C60   C     C_R   0.717809 0.537068 0.446276 -0.134790
C61   C     C_R   0.742893 0.941160 0.583050 0.027398
C62   C     C_R   0.257068 0.941100 0.416950 0.027758
C63   C     C_R   0.242898 0.441167 0.583050 0.027402
C64   C     C_R   0.757059 0.441103 0.416950 0.027780
C65   C     C_R   0.688013 0.888866 0.542855 -0.145144
C66   C     C_R   0.312033 0.889062 0.457167 -0.144918
C67   C     C_R   0.187992 0.388924 0.542864 -0.145156
C68   C     C_R   0.812041 0.389100 0.457158 -0.144962
C69   C     C_R   0.680893 0.917894 0.470735 -0.130886
C70   C     C_R   0.319160 0.918141 0.529264 -0.130666
C71   C     C_R   0.180866 0.417970 0.470747 -0.130887
C72   C     C_R   0.819169 0.418175 0.529257 -0.130697
C73   C     C_R   0.728816 0.999409 0.438588 0.031340
C74   C     C_R   0.271126 0.999374 0.561390 0.030666
C75   C     C_R   0.228818 0.499421 0.438588 0.031326
C76   C     C_R   0.771118 0.499366 0.561391 0.030681
C77   C     C_R   0.741524 0.967306 0.148256 0.554880
C78   C     C_R   0.260009 0.974572 0.854527 0.553646
C79   C     C_R   0.241524 0.467307 0.148256 0.554860
C80   C     C_R   0.760008 0.474568 0.854526 0.553624
C81   C     C_R   0.731586 0.382847 0.351023 0.537597
C82   C     C_R   0.268409 0.382898 0.648985 0.541071
C83   C     C_R   0.231587 0.882845 0.351024 0.537594
C84   C     C_R   0.768408 0.882898 0.648986 0.541068
C85   C     C_R   0.531690 0.157717 0.353509 0.532568
C86   C     C_R   0.468418 0.157810 0.646566 0.533413
C87   C     C_R   0.031667 0.657722 0.353493 0.532581
C88   C     C_R   0.968401 0.657807 0.646553 0.533393
C89   C     C_R   0.727139 0.022889 0.361574 0.569621
C90   C     C_R   0.272839 0.022870 0.638399 0.570160
C91   C     C_R   0.227139 0.522892 0.361574 0.569625
C92   C     C_R   0.772837 0.522866 0.638398 0.570138
C93   C     C_R   0.493773 0.160891 0.927122 0.002723
C94   C     C_R   0.499214 0.168693 0.076040 -0.001462
C95   C     C_R   0.993775 0.660891 0.927122 0.002721
C96   C     C_R   0.999215 0.668692 0.076039 -0.001455
C97   C     C_R   0.508576 0.273626 0.961202 0.020726
C98   C     C_R   0.504420 0.279944 0.036393 0.030912
C99   C     C_R   0.008577 0.773627 0.961202 0.020721
C100  C     C_R   0.004420 0.779943 0.036393 0.030910
C101  C     C_R   0.484903 0.059006 0.040865 -0.155927
C102  C     C_R   0.483134 0.054803 0.968005 -0.147182
C103  C     C_R   0.984906 0.559004 0.040864 -0.155925
C104  C     C_R   0.983139 0.554801 0.968004 -0.147182
Cr1   Cr    Cr6+3 0.772000 0.169640 0.250110 0.983413
Cr2   Cr    Cr6+3 0.228000 0.169640 0.749890 0.981725
Cr3   Cr    Cr6+3 0.272000 0.669640 0.250110 0.983453
Cr4   Cr    Cr6+3 0.728000 0.669640 0.749890 0.981745
Cr5   Cr    Cr6+3 0.614960 0.323350 0.249260 1.015854
Cr6   Cr    Cr6+3 0.385040 0.323350 0.750740 1.016080
Cr7   Cr    Cr6+3 0.114960 0.823350 0.249260 1.015867
Cr8   Cr    Cr6+3 0.885040 0.823350 0.750740 1.016089
Cr9   Cr    Cr6+3 0.616670 0.010620 0.250840 0.999079
Cr10  Cr    Cr6+3 0.383330 0.010620 0.749160 1.001428
Cr11  Cr    Cr6+3 0.116670 0.510620 0.250840 0.999073
Cr12  Cr    Cr6+3 0.883330 0.510620 0.749160 1.001435
H1    H     H_    0.478735 0.973587 0.069668 0.133629
H2    H     H_    0.470874 0.967054 0.943956 0.142265
H3    H     H_    0.978739 0.473584 0.069666 0.133628
H4    H     H_    0.970880 0.467051 0.943955 0.142264
H5    H     H_    0.812551 0.129186 0.458533 0.121561
H6    H     H_    0.187196 0.128726 0.541366 0.121316
H7    H     H_    0.312615 0.629086 0.458516 0.121565
H8    H     H_    0.687133 0.628618 0.541391 0.121308
H9    H     H_    0.820225 0.086441 0.585619 0.128135
H10   H     H_    0.179560 0.086070 0.414332 0.127371
H11   H     H_    0.320273 0.586380 0.585601 0.128080
H12   H     H_    0.679502 0.586001 0.414354 0.127352
H13   H     H_    0.653324 0.821178 0.565988 0.114596
H14   H     H_    0.346812 0.821577 0.434065 0.114611
H15   H     H_    0.153287 0.321262 0.566002 0.114605
H16   H     H_    0.846835 0.321645 0.434049 0.114583
H17   H     H_    0.640228 0.872232 0.439782 0.122004
H18   H     H_    0.359940 0.872755 0.560224 0.122354
H19   H     H_    0.140172 0.372370 0.439802 0.122067
H20   H     H_    0.859964 0.372818 0.560210 0.122304
H21   H     H_    0.537944 0.376891 0.866097 0.125733
H22   H     H_    0.493788 0.409724 0.124567 0.125604
H23   H     H_    0.037943 0.876893 0.866097 0.125759
H24   H     H_    0.993788 0.909723 0.124567 0.125622
H25   H     H_    0.045482 0.074307 0.926114 0.104811
H26   H     H_    0.021951 0.090606 0.055070 0.099779
H27   H     H_    0.545486 0.574304 0.926114 0.104799
H28   H     H_    0.521955 0.590605 0.055069 0.099775
H29   H     H_    0.640123 0.868821 0.061495 0.130999
H30   H     H_    0.332326 0.801246 0.930135 0.120613
H31   H     H_    0.140121 0.368825 0.061493 0.131000
H32   H     H_    0.832327 0.301247 0.930135 0.120616
H33   H     H_    0.651058 0.843392 0.932606 0.114085
H34   H     H_    0.326075 0.769610 0.058841 0.135282
H35   H     H_    0.151056 0.343398 0.932604 0.114086
H36   H     H_    0.826076 0.269614 0.058842 0.135281
H37   H     H_    0.872944 0.937144 0.949704 0.154647
H38   H     H_    0.178807 0.071703 0.075398 0.128558
H39   H     H_    0.372942 0.437150 0.949703 0.154647
H40   H     H_    0.678804 0.571697 0.075396 0.128558
H41   H     H_    0.862542 0.958170 0.076171 0.126121
H42   H     H_    0.183428 0.100330 0.948688 0.136457
H43   H     H_    0.362540 0.458179 0.076169 0.126113
H44   H     H_    0.683424 0.600322 0.948686 0.136458
H45   H     H_    0.504166 0.969712 0.438129 0.135771
H46   H     H_    0.497842 0.969950 0.562666 0.135859
H47   H     H_    0.003859 0.469721 0.438039 0.135742
H48   H     H_    0.997576 0.469916 0.562575 0.135827
O1    O     O_R   0.787540 0.042690 0.170470 -0.536199
O2    O     O_R   0.212460 0.042690 0.829530 -0.540731
O3    O     O_R   0.287540 0.542690 0.170470 -0.536216
O4    O     O_R   0.712460 0.542690 0.829530 -0.540760
O5    O     O_R   0.556540 0.252920 0.323970 -0.490770
O6    O     O_R   0.443460 0.252920 0.676030 -0.489871
O7    O     O_R   0.056540 0.752920 0.323970 -0.490786
O8    O     O_R   0.943460 0.752920 0.676030 -0.489902
O9    O     O_R   0.545870 0.051100 0.330840 -0.538724
O10   O     O_R   0.454130 0.051100 0.669160 -0.537805
O11   O     O_R   0.045870 0.551100 0.330840 -0.538722
O12   O     O_R   0.954130 0.551100 0.669160 -0.537817
O13   O     O_R   0.681340 0.959300 0.325510 -0.508950
O14   O     O_R   0.318660 0.959300 0.674490 -0.506244
O15   O     O_R   0.181340 0.459300 0.325510 -0.508943
O16   O     O_R   0.818660 0.459300 0.674490 -0.506248
O17   O     O_3   0.667880 0.167870 0.250070 -0.254634
O18   O     O_3   0.332120 0.167870 0.749930 -0.259028
O19   O     O_3   0.167880 0.667870 0.250070 -0.254634
O20   O     O_3   0.832120 0.667870 0.749930 -0.259029
O21   O     O_R   0.765660 0.292160 0.175050 -0.507941
O22   O     O_R   0.234340 0.292160 0.824950 -0.508924
O23   O     O_R   0.265660 0.792160 0.175050 -0.507935
O24   O     O_R   0.734340 0.792160 0.824950 -0.508920
O25   O     O_R   0.670190 0.408980 0.168550 -0.517192
O26   O     O_R   0.329810 0.408980 0.831450 -0.524445
O27   O     O_R   0.170190 0.908980 0.168550 -0.517191
O28   O     O_R   0.829810 0.908980 0.831450 -0.524445
O29   O     O_R   0.556580 0.251450 0.175160 -0.506553
O30   O     O_R   0.443420 0.251450 0.824840 -0.508714
O31   O     O_R   0.056580 0.751450 0.175160 -0.506557
O32   O     O_R   0.943420 0.751450 0.824840 -0.508713
O33   O     O_R   0.545920 0.049510 0.170320 -0.522882
O34   O     O_R   0.454080 0.049510 0.829680 -0.524486
O35   O     O_R   0.045920 0.549510 0.170320 -0.522894
O36   O     O_R   0.954080 0.549510 0.829680 -0.524475
O37   O     O_R   0.681390 0.957840 0.176710 -0.498746
O38   O     O_R   0.318610 0.957840 0.823290 -0.495876
O39   O     O_R   0.181390 0.457840 0.176710 -0.498744
O40   O     O_R   0.818610 0.457840 0.823290 -0.495868
O41   O     O_R   0.787500 0.044280 0.330990 -0.535054
O42   O     O_R   0.212500 0.044280 0.669010 -0.533456
O43   O     O_R   0.287500 0.544280 0.330990 -0.535015
O44   O     O_R   0.712500 0.544280 0.669010 -0.533431
O45   O     O_R   0.765610 0.293630 0.323860 -0.523556
O46   O     O_R   0.234390 0.293630 0.676140 -0.522056
O47   O     O_R   0.265610 0.793630 0.323860 -0.523542
O48   O     O_R   0.734390 0.793630 0.676140 -0.522042
O49   O     O_R   0.670140 0.410570 0.329080 -0.510856
O50   O     O_R   0.329860 0.410570 0.670920 -0.507874
O51   O     O_R   0.170140 0.910570 0.329080 -0.510841
O52   O     O_R   0.829860 0.910570 0.670920 -0.507863
C105  C     C_R   0.505520 0.399213 0.580006 0.040494
C106  C     C_R   0.459206 0.497818 0.567890 -0.073126
C107  C     C_R   0.464450 0.604721 0.608677 -0.115751
C108  C     C_R   0.512748 0.611349 0.665024 -0.115265
C109  C     C_R   0.557345 0.512554 0.679314 -0.088852
C110  C     C_R   0.555735 0.408912 0.635569 -0.065107
H49   H     H_    0.419813 0.492445 0.526119 0.118000
H50   H     H_    0.430336 0.681916 0.597425 0.090802
H51   H     H_    0.515316 0.692709 0.697882 0.100438
H52   H     H_    0.593151 0.516393 0.724450 0.143199
H53   H     H_    0.591798 0.334152 0.646678 0.109334
C111  C     C_R   0.494194 0.398804 0.419706 0.040644
C112  C     C_R   0.540467 0.497605 0.431387 -0.072568
C113  C     C_R   0.535210 0.604047 0.390108 -0.115902
C114  C     C_R   0.486876 0.610023 0.333765 -0.116181
C115  C     C_R   0.442254 0.511061 0.319975 -0.089247
C116  C     C_R   0.443910 0.407889 0.364176 -0.065190
H54   H     H_    0.579865 0.492689 0.473172 0.117908
H55   H     H_    0.569351 0.681355 0.400975 0.090743
H56   H     H_    0.484306 0.690991 0.300522 0.098918
H57   H     H_    0.406406 0.514365 0.274859 0.141199
H58   H     H_    0.407887 0.332938 0.353410 0.108022
C117  C     C_R   0.005431 0.899224 0.579965 0.040534
C118  C     C_R   0.959122 0.997815 0.567789 -0.073042
C119  C     C_R   0.964409 0.104851 0.608462 -0.115790
C120  C     C_R   0.012734 0.111622 0.664783 -0.115361
C121  C     C_R   0.057293 0.012799 0.679171 -0.088943
C122  C     C_R   0.055647 0.909019 0.635523 -0.065104
H59   H     H_    0.919728 0.992359 0.526020 0.118045
H60   H     H_    0.930321 0.182057 0.597125 0.090754
H61   H     H_    0.015354 0.193120 0.697534 0.100524
H62   H     H_    0.093105 0.016734 0.724303 0.143234
H63   H     H_    0.091702 0.834265 0.646687 0.109351
C123  C     C_R   0.994234 0.898858 0.419689 0.040676
C124  C     C_R   0.040548 0.997586 0.431429 -0.072446
C125  C     C_R   0.035322 0.104125 0.390228 -0.115849
C126  C     C_R   0.986976 0.110280 0.333899 -0.116302
C127  C     C_R   0.942318 0.011388 0.320048 -0.089433
C128  C     C_R   0.943947 0.908108 0.364172 -0.065245
H64   H     H_    0.079942 0.992548 0.473214 0.117965
H65   H     H_    0.069488 0.181388 0.401145 0.090716
H66   H     H_    0.984414 0.191344 0.300725 0.098971
H67   H     H_    0.906454 0.014856 0.274957 0.141269
H68   H     H_    0.907883 0.833227 0.353367 0.108102

loop_
_geom_bond_atom_site_label_1
_geom_bond_atom_site_label_2
_ccdc_geom_bond_type
C58   C62   A    
Cr9   O13   S    
C62   C83   S    
C90   O14   A    
Cr7   O27   S    
C101  C102  A    
C56   C76   A    
C48   C95   S    
C55   C59   A    
C83   O51   A    
C4    O28   A    
C81   O45   A    
C117  C118  A    
C13   H29   S    
C72   C76   A    
C43   C51   A    
C97   C98   A    
C106  C107  A    
C106  H49   S    
Cr8   O20   S    
C71   C75   A    
Cr8   O8    S    
C127  H67   S    
C15   C19   A    
C41   C86   S    
C84   O48   A    
C37   C38   A    
C57   C61   A    
C7    C99   A    
C96   C100  A    
C48   O36   A    
C88   O8    A    
C43   C88   S    
Cr2   O2    S    
C47   O31   A    
Cr6   O50   S    
Cr7   O51   S    
C5    C11   A    
Cr5   O49   S    
C66   H14   S    
C71   H19   S    
C126  C127  A    
Cr12  O36   S    
C95   C99   A    
C46   O34   A    
C67   C71   A    
Cr3   O47   S    
C94   C98   A    
C45   O33   A    
C121  C122  A    
Cr2   O46   S    
C29   C33   A    
C103  C104  A    
C37   C42   A    
Cr1   O45   S    
C30   H42   S    
C119  C120  A    
C10   H26   S    
Cr1   O21   S    
C112  H54   S    
C68   H16   S    
C14   C18   A    
Cr8   O32   S    
Cr11  O11   S    
C92   O16   A    
Cr4   O48   S    
C107  H50   S    
C54   C74   A    
C50   C111  S    
C126  H66   S    
C40   C43   A    
C89   O41   A    
C20   C24   A    
C94   C101  A    
Cr5   O25   S    
C60   C64   A    
Cr10  O14   S    
C91   O15   A    
Cr3   O19   S    
C70   C74   A    
C19   H35   S    
C47   C96   S    
Cr10  O38   S    
Cr5   O29   S    
C114  H56   S    
Cr9   O37   S    
C44   C87   S    
C24   C28   A    
C9    C10   A    
Cr3   O43   S    
C56   H8    S    
C75   C91   S    
C55   C75   A    
C44   C52   A    
C54   H6    S    
C14   C34   A    
C82   O50   A    
C26   C30   A    
C48   O32   A    
C45   O29   A    
Cr4   O44   S    
C77   O37   A    
C47   O35   A    
C1    O25   A    
C45   C94   S    
C41   C49   A    
C108  C109  A    
Cr12  O40   S    
C112  C113  A    
Cr5   O5    S    
C125  H65   S    
C46   O30   A    
Cr3   O3    S    
C23   C27   A    
C11   H27   S    
C25   C29   A    
C18   C22   A    
C81   O49   A    
C78   O2    A    
C122  H63   S    
C30   C34   A    
C63   C82   S    
C27   C31   A    
C51   C52   A    
C6    C98   A    
C78   O38   A    
C60   H12   S    
C62   C66   A    
C17   H33   S    
Cr2   O22   S    
C38   C41   A    
C124  C125  A    
C36   C80   S    
C107  C108  A    
C53   C57   A    
C82   O46   A    
C29   H41   S    
C123  C124  A    
Cr10  O18   S    
C38   H46   S    
Cr11  O35   S    
C109  H52   S    
Cr6   O26   S    
C85   O5    A    
C12   H28   S    
Cr11  O39   S    
C68   C72   A    
C86   O10   A    
C16   H32   S    
C6    H22   S    
C19   C23   A    
C116  H58   S    
C2    O22   A    
C63   C67   A    
Cr6   O30   S    
C109  C110  A    
C92   O44   A    
C83   O47   A    
C3    O27   A    
C65   H13   S    
Cr8   O28   S    
C119  H60   S    
C85   O9    A    
C99   C100  A    
C28   C32   A    
C16   C20   A    
C121  H62   S    
C87   O7    A    
Cr7   O19   S    
C120  C121  A    
Cr11  O15   S    
C113  H55   S    
C42   C85   S    
C69   C73   A    
C111  C116  A    
C117  C122  A    
C67   H15   S    
C76   C92   S    
Cr6   O6    S    
Cr12  O12   S    
C7    H23   S    
C114  C115  A    
C42   C50   A    
C58   H10   S    
C89   O13   A    
Cr12  O16   S    
Cr10  O34   S    
C118  H59   S    
C49   C50   A    
C31   C35   A    
C59   C63   A    
C26   H38   S    
Cr9   O17   S    
C37   H45   S    
C39   H47   S    
C55   H7    S    
C64   C68   A    
C39   C40   A    
C95   C104  A    
Cr9   O9    S    
C54   C58   A    
C28   H40   S    
Cr5   O17   S    
C123  C128  A    
C7    C9    A    
C21   C25   A    
C128  H68   S    
C105  C110  A    
C9    H25   S    
C118  C119  A    
C86   O6    A    
C53   C73   A    
Cr4   O24   S    
C40   H48   S    
C103  H3    S    
C2    O26   A    
C5    C97   A    
C61   C84   S    
C102  H2    S    
C93   C102  A    
Cr2   O42   S    
Cr11  O19   S    
C11   C12   A    
C32   C36   A    
Cr1   O41   S    
C39   C44   A    
Cr4   O20   S    
C69   H17   S    
C87   O11   A    
C14   H30   S    
C77   O1    A    
C79   O39   A    
C120  H61   S    
C88   O12   A    
C13   C17   A    
C8    H24   S    
C101  H1    S    
C1    O21   A    
C4    O24   A    
C127  C128  A    
C15   H31   S    
C105  C106  A    
C73   C89   S    
C5    H21   S    
C8    C100  A    
C25   H37   S    
C53   H5    S    
C16   C36   A    
C57   H9    S    
C6    C12   A    
C4    C21   S    
C33   C77   S    
C124  H64   S    
C66   C70   A    
C46   C93   S    
C52   C123  S    
C110  H53   S    
C115  C116  A    
C65   C69   A    
C74   C90   S    
Cr12  O20   S    
C35   C79   S    
C91   O43   A    
C93   C97   A    
Cr1   O1    S    
C108  H51   S    
Cr9   O33   S    
Cr7   O7    S    
Cr2   O18   S    
Cr8   O52   S    
C61   C65   A    
Cr4   O4    S    
C113  C114  A    
C17   C21   A    
C64   C81   S    
C15   C35   A    
C32   H44   S    
C72   H20   S    
C115  H57   S    
C111  C112  A    
C20   H36   S    
Cr10  O10   S    
C56   C60   A    
C3    O23   A    
Cr6   O18   S    
C1    C24   S    
C8    C10   A    
C13   C33   A    
C22   C26   A    
C96   C103  A    
C49   C105  S    
C2    C23   S    
C70   H18   S    
C79   O3    A    
C90   O42   A    
C31   H43   S    
C3    C22   S    
C51   C117  S    
Cr1   O17   S    
C18   H34   S    
C59   H11   S    
C80   O4    A    
C34   C78   S    
C84   O52   A    
Cr3   O23   S    
Cr7   O31   S    
C125  C126  A    
C104  H4    S    
C27   H39   S    
C80   O40   A    
