data_mof_unit_11885.cif
_audit_creation_date              2012-12-11T15:16:46-0500
_audit_creation_method            fapswitch 2.2
_symmetry_space_group_name_H-M    P1
_symmetry_Int_Tables_number       1
_space_group_crystal_system       triclinic
_cell_length_a                    25.411035
_cell_length_b                    7.266387
_cell_length_c                    21.690549
_cell_angle_alpha                 89.999876
_cell_angle_beta                  110.078521
_cell_angle_gamma                 90.00031
_cell_volume                      3761.66529211

loop_
_atom_site_label
_atom_site_type_symbol
_atom_type_description
_atom_site_fract_x
_atom_site_fract_y
_atom_site_fract_z
_atom_type_partial_charge
O1    O     O_R   0.554350 0.505270 0.581390 -0.537737
O2    O     O_R   0.445650 0.005270 0.418610 -0.537735
O3    O     O_R   0.553380 0.177580 0.454800 -0.505796
O4    O     O_R   0.446620 0.677580 0.545200 -0.505794
C1    C     C_R   0.565865 0.344271 0.438401 0.732047
C2    C     C_R   0.434135 0.844270 0.561599 0.732040
O5    O     O_R   0.560970 0.175640 0.583140 -0.532040
O6    O     O_R   0.439030 0.675640 0.416860 -0.532040
O7    O     O_R   0.453290 0.004120 0.547860 -0.541227
O8    O     O_R   0.546710 0.504120 0.452140 -0.541225
C3    C     C_R   0.575671 0.344135 0.607743 0.693340
C4    C     C_R   0.424328 0.844134 0.392258 0.693339
O9    O     O_3   0.464660 0.338800 0.488280 -0.363325
O10   O     O_3   0.535340 0.838800 0.511720 -0.363329
V1    V     V_3+5 0.506560 0.064420 0.502170 1.527459
V2    V     V_3+5 0.493440 0.564420 0.497830 1.527464
C5    C     C_R   0.154337 0.998589 0.288337 -0.151950
C6    C     C_R   0.845668 0.498489 0.711658 -0.151942
H1    H     H_    0.072295 0.053307 0.222892 0.125784
H2    H     H_    0.927708 0.553240 0.777101 0.125784
H3    H     H_    0.236513 0.959537 0.401402 0.141207
H4    H     H_    0.763495 0.459356 0.598594 0.141213
H5    H     H_    0.143200 0.035050 0.330752 0.130481
H6    H     H_    0.856807 0.534909 0.669241 0.130481
C7    C     C_R   0.124003 0.945989 0.171164 -0.077898
C8    C     C_R   0.875997 0.445978 0.828835 -0.077905
C9    C     C_R   0.399739 0.853142 0.272415 -0.279664
C10   C     C_R   0.600258 0.353248 0.727585 -0.279469
C11   C     C_R   0.362665 0.890563 0.208866 0.461772
C12   C     C_R   0.637335 0.390687 0.791124 0.461675
C13   C     C_R   0.305593 0.912098 0.198299 -0.143852
C14   C     C_R   0.694409 0.412166 0.801698 -0.144115
C15   C     C_R   0.283618 0.895907 0.249678 0.024765
C16   C     C_R   0.716384 0.395903 0.750322 0.024847
C17   C     C_R   0.323092 0.879282 0.315148 0.045739
C18   C     C_R   0.676910 0.379241 0.684852 0.045743
C19   C     C_R   0.224600 0.914123 0.239291 0.037670
C20   C     C_R   0.775402 0.414092 0.760708 0.037678
C21   C     C_R   0.209286 0.949610 0.295442 0.087189
C22   C     C_R   0.790718 0.449521 0.704555 0.087168
C23   C     C_R   0.248799 0.937743 0.358774 -0.147325
C24   C     C_R   0.751207 0.437610 0.641223 -0.147332
C25   C     C_R   0.304300 0.896013 0.368563 -0.127493
C26   C     C_R   0.695704 0.395902 0.631436 -0.127485
C27   C     C_R   0.179668 0.898390 0.176866 0.292834
C28   C     C_R   0.820332 0.398392 0.823136 0.292839
C29   C     C_R   0.113223 0.005270 0.226749 -0.246159
C30   C     C_R   0.886780 0.505211 0.773247 -0.246172
C31   C     C_R   0.381090 0.854241 0.325927 -0.124412
C32   C     C_R   0.618909 0.354250 0.674073 -0.124577
H7    H     H_    0.443789 0.830621 0.280829 0.118921
H8    H     H_    0.556207 0.330798 0.719185 0.119171
H9    H     H_    0.280176 0.956894 0.150032 0.190051
H10   H     H_    0.719825 0.456983 0.849963 0.190028
H11   H     H_    0.332945 0.885358 0.418643 0.123364
H12   H     H_    0.667060 0.385217 0.581357 0.123386
C33   C     C_R   0.118698 0.764134 0.876663 0.405513
C34   C     C_R   0.881301 0.264135 0.123337 0.405514
C35   C     C_R   0.160757 0.751508 0.848517 -0.299367
C36   C     C_R   0.839242 0.251510 0.151482 -0.299375
H13   H     H_    0.170173 0.619819 0.832330 0.196652
H14   H     H_    0.829826 0.119822 0.167671 0.196647
C37   C     C_R   0.188573 0.906488 0.838080 -0.185934
C38   C     C_R   0.811425 0.406490 0.161918 -0.185939
C39   C     C_R   0.176241 0.077939 0.859789 0.366901
C40   C     C_R   0.823757 0.577940 0.140208 0.366887
C41   C     C_R   0.141767 0.087316 0.898927 0.295753
C42   C     C_R   0.858233 0.587317 0.101071 0.295766
C43   C     C_R   0.109281 0.932825 0.904601 -0.307459
C44   C     C_R   0.890718 0.432826 0.095398 -0.307457
N1    N     N_R   0.279163 0.965100 0.822490 -0.226460
N2    N     N_R   0.720833 0.465087 0.177505 -0.226485
N3    N     N_R   0.311997 0.960088 0.785892 -0.215283
N4    N     N_R   0.687999 0.460076 0.214102 -0.215298
C45   C     C_R   0.293801 0.882215 0.725171 0.575035
C46   C     C_R   0.706197 0.382220 0.274826 0.575037
N5    N     N_R   0.241759 0.806411 0.703243 -0.310001
N6    N     N_R   0.758240 0.306432 0.296758 -0.309999
N7    N     N_R   0.208980 0.811134 0.739788 -0.331807
N8    N     N_R   0.791020 0.311154 0.260213 -0.331801
C47   C     C_R   0.227013 0.890284 0.800118 0.567363
C48   C     C_R   0.772985 0.390286 0.199880 0.567355
C49   C     C_R   0.325197 0.725438 0.641496 -0.179390
C50   C     C_R   0.674805 0.225452 0.358507 -0.179412
H15   H     H_    0.296106 0.615312 0.640329 0.198498
H16   H     H_    0.703900 0.115335 0.359679 0.198489
C51   C     C_R   0.357726 0.712566 0.600917 0.398117
C52   C     C_R   0.642277 0.212580 0.399087 0.398096
C53   C     C_R   0.396523 0.853400 0.601601 -0.200370
C54   C     C_R   0.603476 0.353403 0.398397 -0.200331
C55   C     C_R   0.400178 0.006466 0.642742 -0.212743
C56   C     C_R   0.599815 0.506457 0.357249 -0.212773
H17   H     H_    0.429044 0.117354 0.644026 0.181863
H18   H     H_    0.570945 0.617335 0.355961 0.181819
C57   C     C_R   0.367432 0.019317 0.683117 0.422410
C58   C     C_R   0.632560 0.519308 0.316874 0.422385
C59   C     C_R   0.329784 0.876504 0.683484 -0.124801
C60   C     C_R   0.670214 0.376507 0.316513 -0.124769
O11   O     O_R   0.953220 0.285790 0.047790 -0.503429
O12   O     O_R   0.046780 0.785790 0.952210 -0.503427
O13   O     O_R   0.939020 0.617570 0.916840 -0.545407
O14   O     O_R   0.060980 0.117570 0.083160 -0.545408
C61   C     C_R   0.923107 0.449046 0.892949 0.737167
C62   C     C_R   0.076893 0.949048 0.107051 0.737162
O15   O     O_R   0.946600 0.615450 0.045180 -0.520709
O16   O     O_R   0.053400 0.115450 0.954820 -0.520709
O17   O     O_R   0.054370 0.786770 0.081410 -0.526569
O18   O     O_R   0.945630 0.286770 0.918590 -0.526575
C63   C     C_R   0.933094 0.446153 0.060565 0.769168
C64   C     C_R   0.066905 0.946154 0.939435 0.769166
O19   O     O_3   0.035300 0.454160 0.011680 -0.373016
O20   O     O_3   0.964700 0.954160 0.988320 -0.373023
V3    V     V_3+5 0.993450 0.728620 0.997830 1.524237
V4    V     V_3+5 0.006550 0.228620 0.002170 1.524233
O21   O     O_3   0.199020 0.237531 0.844818 -0.529358
C65   C     C_3   0.172538 0.279659 0.777212 0.057924
H19   H     H_    0.137346 0.375682 0.771301 0.124052
H20   H     H_    0.154220 0.159286 0.745128 0.106120
C66   C     C_3   0.214700 0.370036 0.751138 -0.569823
H21   H     H_    0.244346 0.266168 0.744804 0.245049
H22   H     H_    0.192483 0.433991 0.702669 0.191349
H23   H     H_    0.238990 0.476458 0.785992 0.244534
O22   O     O_3   0.800977 0.737532 0.155176 -0.529364
C67   C     C_3   0.827456 0.779662 0.222783 0.057943
H24   H     H_    0.862651 0.875678 0.228695 0.124048
H25   H     H_    0.845771 0.659289 0.254868 0.106129
C68   C     C_3   0.785294 0.870051 0.248852 -0.569845
H26   H     H_    0.755644 0.766190 0.255182 0.245058
H27   H     H_    0.807509 0.934001 0.297322 0.191351
H28   H     H_    0.761008 0.976479 0.213998 0.244516
O23   O     O_3   0.139898 0.249820 0.930857 -0.507489
C69   C     C_3   0.184447 0.246712 0.991567 0.100017
H29   H     H_    0.225681 0.228261 0.984744 0.142615
H30   H     H_    0.178345 0.134589 0.023481 0.139973
C70   C     C_3   0.186094 0.427970 0.026451 -0.503156
H31   H     H_    0.145963 0.449673 0.035082 0.249890
H32   H     H_    0.220920 0.426032 0.074414 0.186178
H33   H     H_    0.192904 0.542695 0.996183 0.246802
O24   O     O_3   0.860104 0.749824 0.069143 -0.507483
C71   C     C_3   0.815557 0.746721 0.008431 0.100023
H34   H     H_    0.774321 0.728244 0.015250 0.142553
H35   H     H_    0.821664 0.634616 0.976514 0.139990
C72   C     C_3   0.813906 0.927995 0.973554 -0.503189
H36   H     H_    0.854039 0.949728 0.964930 0.249904
H37   H     H_    0.779083 0.926056 0.925589 0.186152
H38   H     H_    0.807089 0.042702 0.003824 0.246792
Cl1   Cl    Cl    0.345878 0.520027 0.548397 -0.631195
Cl2   Cl    Cl    0.654131 0.020060 0.451616 -0.631208
Cl3   Cl    Cl    0.373164 0.222284 0.729460 -0.628194
Cl4   Cl    Cl    0.626818 0.722259 0.270520 -0.628385
Cl5   Cl    Cl    0.188149 0.798608 0.106826 -0.779335
Cl6   Cl    Cl    0.811847 0.298658 0.893181 -0.779356
O25   O     O_3   0.380069 0.899744 0.154857 -0.545459
C73   C     C_3   0.426451 0.019247 0.166868 0.078689
H39   H     H_    0.465885 0.945688 0.194436 0.156000
H40   H     H_    0.422415 0.144860 0.194543 0.115203
C74   C     C_3   0.430283 0.081161 0.101562 -0.602034
H41   H     H_    0.391592 0.156438 0.072797 0.222557
H42   H     H_    0.466872 0.173884 0.110276 0.189096
H43   H     H_    0.435414 0.959873 0.072971 0.235578
O26   O     O_3   0.619904 0.399958 0.845104 -0.545386
C75   C     C_3   0.573786 0.520564 0.833177 0.078567
H44   H     H_    0.534206 0.448114 0.805370 0.155776
H45   H     H_    0.578184 0.646304 0.805771 0.115191
C76   C     C_3   0.569943 0.582040 0.898523 -0.601881
H46   H     H_    0.608780 0.656220 0.927525 0.222551
H47   H     H_    0.533561 0.675647 0.889873 0.189017
H48   H     H_    0.564452 0.460641 0.926846 0.235594
O27   O     O_3   0.088078 0.607632 0.877483 -0.504050
C77   C     C_3   0.048575 0.580457 0.813832 0.143294
H49   H     H_    0.065948 0.606032 0.773849 0.088398
H50   H     H_    0.012821 0.675798 0.806522 0.085312
C78   C     C_3   0.028070 0.382190 0.806586 -0.672470
H51   H     H_    0.011443 0.346874 0.846080 0.229754
H52   H     H_    0.994795 0.362476 0.758079 0.151476
H53   H     H_    0.062787 0.287493 0.809084 0.213367
O28   O     O_3   0.911921 0.107634 0.122517 -0.504051
C79   C     C_3   0.951424 0.080464 0.186169 0.143294
H54   H     H_    0.934050 0.106027 0.226151 0.088401
H55   H     H_    0.987176 0.175816 0.193480 0.085306
C80   C     C_3   0.971934 0.882203 0.193413 -0.672458
H56   H     H_    0.988559 0.846895 0.153917 0.229756
H57   H     H_    0.005212 0.862496 0.241919 0.151479
H58   H     H_    0.937220 0.787495 0.190918 0.213360

loop_
_geom_bond_atom_site_label_1
_geom_bond_atom_site_label_2
_ccdc_geom_bond_type
C70   H33   S    
C40   C42   A    
C37   C39   A    
O12   C64   A    
C74   H41   S    
C9    C11   A    
O13   V3    S    
O27   C77   S    
C49   C51   A    
O1    C3    A    
C71   C72   S    
C45   C59   S    
O2    C4    A    
C2    O7    A    
C79   H54   S    
O3    V1    S    
O22   C67   S    
C21   C23   A    
C76   H46   S    
C80   H56   S    
O5    C3    A    
C5    H5    S    
N4    C46   A    
O16   V4    S    
C6    H6    S    
C11   O25   S    
C46   N6    A    
O16   C64   A    
H1    C29   S    
C80   H58   S    
C77   H49   S    
C46   C60   S    
O21   C65   S    
O11   C63   A    
C72   H37   S    
C56   C58   A    
C65   H19   S    
C36   H14   S    
C28   Cl6   S    
C5    C21   A    
O18   V4    S    
C6    C22   A    
O17   V3    S    
C15   C17   A    
C10   C32   A    
C69   H29   S    
C39   C41   A    
C58   C60   A    
C17   C31   A    
C13   C15   A    
C61   O18   A    
C57   Cl3   S    
C53   C55   A    
C17   C25   A    
C7    C29   A    
C73   H40   S    
C1    C54   S    
C8    C30   A    
O6    V2    S    
C22   C24   A    
C76   H47   S    
C11   C13   A    
C39   O21   S    
C24   C26   A    
O11   V4    S    
C14   H10   S    
O20   V3    S    
C9    H7    S    
O26   C75   S    
C75   H45   S    
C66   H22   S    
O24   C71   S    
C35   H13   S    
O12   V3    S    
C12   C14   A    
C5    C29   A    
C70   H31   S    
C71   H34   S    
C73   C74   S    
N2    N4    A    
C72   H38   S    
N7    C47   A    
C34   C44   A    
C78   H51   S    
C15   C19   A    
C27   Cl5   S    
C38   C40   A    
O4    V2    S    
C68   H27   S    
C4    C31   S    
O14   V4    S    
C44   C63   S    
C8    C61   S    
C55   H17   S    
C75   C76   S    
C43   C64   S    
C26   H12   S    
C54   C56   A    
O6    C4    A    
C58   Cl4   S    
C56   H18   S    
C52   Cl2   S    
N5    N7    A    
O1    V2    S    
C13   H9    S    
O14   C62   A    
O2    V1    S    
C45   N5    A    
C38   C48   S    
C73   H39   S    
H2    C30   S    
C78   H52   S    
C51   Cl1   S    
C67   C68   S    
H3    C23   S    
C25   H11   S    
C49   H15   S    
C52   C54   A    
C76   H48   S    
C51   C53   A    
C33   C43   A    
C18   C26   A    
O4    C2    A    
N3    C45   A    
C19   C27   A    
C68   H26   S    
C7    C27   A    
C18   C32   A    
C67   H25   S    
C75   H44   S    
O13   C61   A    
C78   H53   S    
O15   V3    S    
C70   H32   S    
O15   C63   A    
C37   C47   S    
C16   C20   A    
C41   O23   S    
C23   C25   A    
C50   C52   A    
C50   H16   S    
O3    C1    A    
C6    C30   A    
C34   O28   S    
C79   H55   S    
C66   H21   S    
C57   C59   A    
C7    C62   S    
C71   H35   S    
C74   H43   S    
C2    C53   S    
C35   C37   A    
C65   C66   S    
C36   C38   A    
C50   C60   A    
C10   C12   A    
O7    V1    S    
C68   H28   S    
C1    O8    A    
C19   C21   A    
C3    C32   S    
O8    V2    S    
O23   C69   S    
C20   C22   A    
C10   H8    S    
H4    C24   S    
C77   H50   S    
C69   C70   S    
C69   H30   S    
O5    V1    S    
C66   H23   S    
N8    C48   A    
C65   H20   S    
O19   V4    S    
N6    N8    A    
C33   O27   S    
C20   C28   A    
C79   C80   S    
C33   C35   A    
C8    C28   A    
C55   C57   A    
C40   O22   S    
C9    C31   A    
C80   H57   S    
C16   C18   A    
C74   H42   S    
O28   C79   S    
C49   C59   A    
O9    V2    S    
N1    N3    A    
C42   C44   A    
O10   V1    S    
C42   O24   S    
C12   O26   S    
C41   C43   A    
O25   C73   S    
C34   C36   A    
C62   O17   A    
N2    C48   A    
C72   H36   S    
C14   C16   A    
C67   H24   S    
N1    C47   A    
C77   C78   S    
