data_mof_unit_31751.cif
_audit_creation_date              2012-12-10T17:31:23-0500
_audit_creation_method            fapswitch 2.2
_symmetry_space_group_name_H-M    P1
_symmetry_Int_Tables_number       1
_space_group_crystal_system       triclinic
_cell_length_a                    19.063528
_cell_length_b                    18.391854
_cell_length_c                    12.351443
_cell_angle_alpha                 90.031143
_cell_angle_beta                  129.007772
_cell_angle_gamma                 89.977145
_cell_volume                      3365.12579341

loop_
_atom_site_label
_atom_site_type_symbol
_atom_type_description
_atom_site_fract_x
_atom_site_fract_y
_atom_site_fract_z
_atom_type_partial_charge
C1    C     C_R   0.612511 0.898380 0.653233 0.780607
C2    C     C_R   0.611797 0.102165 0.652375 0.781182
C3    C     C_R   0.112535 0.398399 0.653264 0.780573
C4    C     C_R   0.111814 0.602150 0.652398 0.781155
C5    C     C_R   0.239652 0.781822 0.029772 0.073783
C6    C     C_R   0.242161 0.219925 0.032535 0.076104
C7    C     C_R   0.739580 0.281881 0.029678 0.073810
C8    C     C_R   0.742084 0.719865 0.032438 0.076099
C9    C     C_R   0.659179 0.279723 0.014084 0.169586
C10   C     C_R   0.659568 0.718506 0.010861 0.167418
C11   C     C_R   0.159203 0.779745 0.014041 0.169558
C12   C     C_R   0.159579 0.218445 0.010755 0.167362
C13   C     C_R   0.582655 0.245581 0.898763 -0.243341
C14   C     C_R   0.582843 0.750972 0.893002 -0.242208
C15   C     C_R   0.082675 0.745646 0.898657 -0.243273
C16   C     C_R   0.082850 0.250857 0.892814 -0.242159
C17   C     C_R   0.586259 0.209955 0.803445 -0.199767
C18   C     C_R   0.587804 0.788103 0.800441 -0.202906
C19   C     C_R   0.086306 0.709992 0.803394 -0.199790
C20   C     C_R   0.087856 0.288041 0.800347 -0.202905
C21   C     C_R   0.315126 0.816625 0.147216 -0.262390
C22   C     C_R   0.317300 0.185624 0.151414 -0.255501
C23   C     C_R   0.815064 0.316692 0.147093 -0.262433
C24   C     C_R   0.817233 0.685545 0.151268 -0.255515
C25   C     C_R   0.230730 0.850085 0.225471 -0.196130
C26   C     C_R   0.229109 0.147045 0.220366 -0.197954
C27   C     C_R   0.730756 0.350032 0.225564 -0.196151
C28   C     C_R   0.729164 0.647151 0.220541 -0.197940
C29   C     C_R   0.675901 0.161171 0.737715 -0.105025
C30   C     C_R   0.679026 0.841404 0.741714 -0.104656
C31   C     C_R   0.175980 0.661101 0.737822 -0.104967
C32   C     C_R   0.179128 0.341494 0.741854 -0.104611
C33   C     C_R   0.682470 0.010811 0.283848 -0.297016
C34   C     C_R   0.182449 0.510880 0.283824 -0.296984
C35   C     C_R   0.343990 0.001068 0.625569 0.024085
C36   C     C_R   0.843988 0.501012 0.625537 0.024131
C37   C     C_R   0.308126 0.011897 0.693282 -0.274434
C38   C     C_R   0.808091 0.511744 0.693217 -0.274507
C39   C     C_R   0.384047 0.098494 0.342145 0.793522
C40   C     C_R   0.383981 0.901513 0.342050 0.793802
C41   C     C_R   0.884045 0.598495 0.342143 0.793511
C42   C     C_R   0.883977 0.401515 0.342043 0.793814
C43   C     C_R   0.364378 0.020421 0.838589 0.168346
C44   C     C_R   0.864310 0.520246 0.838522 0.168403
C45   C     C_R   0.459671 0.009131 0.919257 -0.060904
C46   C     C_R   0.959633 0.509077 0.919232 -0.060870
C47   C     C_R   0.492987 0.003170 0.842185 0.250296
C48   C     C_R   0.992969 0.503172 0.842177 0.250276
C49   C     C_R   0.524322 0.006280 0.070725 -0.038236
C50   C     C_R   0.024293 0.506259 0.070708 -0.038184
C51   C     C_R   0.617995 0.009191 0.138007 0.178893
C52   C     C_R   0.117967 0.509230 0.137985 0.178884
C53   C     C_R   0.647556 0.008406 0.060161 -0.271693
C54   C     C_R   0.147530 0.508464 0.060144 -0.271710
C55   C     C_R   0.586803 0.002938 0.916578 -0.154064
C56   C     C_R   0.086783 0.502972 0.916571 -0.154046
C57   C     C_R   0.501997 0.996804 0.160200 -0.002339
C58   C     C_R   0.001994 0.496764 0.160211 -0.002441
C59   C     C_R   0.654899 0.007477 0.364345 0.070965
C60   C     C_R   0.154891 0.507525 0.364333 0.071050
C61   C     C_R   0.655761 0.313011 0.112929 -0.194254
C62   C     C_R   0.654198 0.683232 0.106146 -0.195465
C63   C     C_R   0.155740 0.813079 0.112803 -0.194231
C64   C     C_R   0.154144 0.183096 0.105915 -0.195495
C65   C     C_R   0.309992 0.853014 0.240983 -0.046100
C66   C     C_R   0.310173 0.146950 0.241059 -0.047310
C67   C     C_R   0.809979 0.353022 0.240964 -0.046099
C68   C     C_R   0.810170 0.646954 0.241057 -0.047329
C69   C     C_R   0.751427 0.168703 0.743395 -0.187647
C70   C     C_R   0.757131 0.838034 0.753569 -0.184334
C71   C     C_R   0.251572 0.668523 0.743658 -0.187615
C72   C     C_R   0.257317 0.338267 0.753922 -0.184270
C73   C     C_R   0.320105 0.716671 0.836498 -0.148092
C74   C     C_R   0.328502 0.293539 0.852253 -0.153057
C75   C     C_R   0.819892 0.216938 0.836090 -0.148038
C76   C     C_R   0.828235 0.793193 0.851719 -0.152946
C77   C     C_R   0.316870 0.755200 0.930015 -0.186845
C78   C     C_R   0.324679 0.253941 0.944144 -0.204424
C79   C     C_R   0.816671 0.255436 0.929654 -0.186894
C80   C     C_R   0.824437 0.753637 0.943672 -0.204338
C81   C     C_R   0.742366 0.248110 0.929010 0.080953
C82   C     C_R   0.746804 0.755922 0.935434 0.083442
C83   C     C_R   0.242483 0.747998 0.929188 0.080977
C84   C     C_R   0.246944 0.256060 0.935654 0.083535
C85   C     C_R   0.667497 0.205778 0.822706 0.080420
C86   C     C_R   0.670554 0.795651 0.825172 0.079845
C87   C     C_R   0.167579 0.705733 0.822782 0.080415
C88   C     C_R   0.170652 0.295702 0.825260 0.079837
Cu1   Cu    Cu3+1 0.526340 0.000000 0.421010 0.929795
Cu2   Cu    Cu3+1 0.026340 0.500000 0.421010 0.929790
Cu3   Cu    Cu3+1 0.473640 0.000000 0.578990 0.916787
Cu4   Cu    Cu3+1 0.973640 0.500000 0.578990 0.916808
H1    H     H_    0.225675 0.878529 0.297135 0.145633
H2    H     H_    0.222623 0.116759 0.288855 0.145207
H3    H     H_    0.725736 0.378431 0.297301 0.145649
H4    H     H_    0.722725 0.616934 0.289143 0.145249
H5    H     H_    0.719136 0.009543 0.111274 0.150878
H6    H     H_    0.219109 0.509631 0.111255 0.150892
H7    H     H_    0.753954 0.014450 0.335344 0.135577
H8    H     H_    0.253929 0.514559 0.335308 0.135574
H9    H     H_    0.434563 0.984746 0.119867 0.159473
H10   H     H_    0.934592 0.484647 0.119940 0.159578
H11   H     H_    0.299076 0.998149 0.513026 0.132923
H12   H     H_    0.799091 0.498087 0.512995 0.132953
H13   H     H_    0.235737 0.018786 0.630361 0.148457
H14   H     H_    0.735687 0.518537 0.630275 0.148434
H15   H     H_    0.616807 0.999498 0.867562 0.208263
H16   H     H_    0.116788 0.499526 0.867557 0.208260
H17   H     H_    0.519764 0.245998 0.882424 0.136327
H18   H     H_    0.518611 0.747818 0.872266 0.135657
H19   H     H_    0.019752 0.746126 0.882221 0.136276
H20   H     H_    0.018575 0.247609 0.871929 0.135637
H21   H     H_    0.594427 0.311861 0.101185 0.130242
H22   H     H_    0.591339 0.681882 0.089970 0.131671
H23   H     H_    0.094370 0.811986 0.100961 0.130293
H24   H     H_    0.091237 0.181656 0.089586 0.131712
H25   H     H_    0.379237 0.816696 0.168403 0.147445
H26   H     H_    0.382561 0.187083 0.176565 0.145220
H27   H     H_    0.879147 0.316798 0.168184 0.147474
H28   H     H_    0.882456 0.686947 0.176284 0.145277
H29   H     H_    0.758628 0.136116 0.677811 0.148660
H30   H     H_    0.764492 0.871795 0.689415 0.149776
H31   H     H_    0.258775 0.635905 0.678108 0.148623
H32   H     H_    0.264684 0.372070 0.689818 0.149730
H33   H     H_    0.372641 0.791438 0.999158 0.126472
H34   H     H_    0.383095 0.221178 0.018410 0.124039
H35   H     H_    0.872375 0.291753 0.998678 0.126437
H36   H     H_    0.882779 0.720767 0.017777 0.124044
H37   H     H_    0.377545 0.722569 0.838896 0.129615
H38   H     H_    0.388421 0.291394 0.860451 0.130452
H39   H     H_    0.877265 0.222934 0.838345 0.129649
H40   H     H_    0.888076 0.790923 0.859723 0.130445
H41   H     H_    0.523645 0.187524 0.712842 0.176869
H42   H     H_    0.525238 0.809320 0.707746 0.174115
H43   H     H_    0.023690 0.687596 0.712738 0.176800
H44   H     H_    0.025293 0.309219 0.707583 0.174011
H45   H     H_    0.704257 0.010031 0.476741 0.115836
H46   H     H_    0.204252 0.510105 0.476726 0.115798
N1    N     N_R   0.566260 1.000000 0.302220 -0.180138
N2    N     N_R   0.066260 0.500000 0.302220 -0.180148
N3    N     N_R   0.434410 0.000000 0.697680 -0.202921
N4    N     N_R   0.934410 0.500000 0.697680 -0.202917
O1    O     O_R   0.608610 0.924520 0.551740 -0.577061
O2    O     O_R   0.608610 0.075480 0.551740 -0.580989
O3    O     O_R   0.108610 0.424520 0.551740 -0.577043
O4    O     O_R   0.108610 0.575480 0.551740 -0.580996
O5    O     O_R   0.564110 0.924510 0.685150 -0.599412
O6    O     O_R   0.564110 0.075490 0.685150 -0.599975
O7    O     O_R   0.064110 0.424510 0.685150 -0.599360
O8    O     O_R   0.064110 0.575490 0.685150 -0.599966
O9    O     O_R   0.435880 0.075470 0.314850 -0.581817
O10   O     O_R   0.435880 0.924530 0.314850 -0.587157
O11   O     O_R   0.935880 0.575470 0.314850 -0.581837
O12   O     O_R   0.935880 0.424530 0.314850 -0.587179
O13   O     O_R   0.391380 0.075460 0.448260 -0.592789
O14   O     O_R   0.391380 0.924540 0.448260 -0.593272
O15   O     O_R   0.891380 0.575460 0.448260 -0.592788
O16   O     O_R   0.891380 0.424540 0.448260 -0.593282
C89   C     C_3   0.319591 0.054660 0.893261 -0.412146
C90   C     C_3   0.258903 0.000711 0.894441 -0.812971
H47   H     H_    0.197301 0.989291 0.786272 0.245312
H48   H     H_    0.294026 0.948378 0.943665 0.247389
H49   H     H_    0.237995 0.024461 0.952936 0.249212
H50   H     H_    0.368406 0.081060 0.995877 0.193934
H51   H     H_    0.276643 0.100729 0.824088 0.212115
C91   C     C_3   0.819378 0.554223 0.893156 -0.412202
C92   C     C_3   0.759014 0.499973 0.894528 -0.812952
H52   H     H_    0.697394 0.488482 0.786409 0.245371
H53   H     H_    0.794384 0.447704 0.943662 0.247321
H54   H     H_    0.738133 0.523493 0.953203 0.249169
H55   H     H_    0.868075 0.580743 0.995679 0.193856
H56   H     H_    0.776160 0.600170 0.823876 0.212050

loop_
_geom_bond_atom_site_label_1
_geom_bond_atom_site_label_2
_ccdc_geom_bond_type
C26   H2    S    
C83   C87   A    
C25   H1    S    
C64   H24   S    
C2    O2    A    
C14   C18   A    
C27   H3    S    
C48   C56   A    
C57   H9    S    
Cu3   O5    S    
C92   H53   S    
C10   C62   A    
C91   H56   S    
C40   O10   A    
C18   C86   A    
C2    C29   S    
C9    C61   A    
C71   H31   S    
C28   C68   A    
C5    C11   A    
Cu2   O3    S    
C43   C89   S    
C6    C12   A    
C5    C83   A    
C9    C13   A    
C59   H45   S    
C19   H43   S    
C6    C22   A    
C39   O9    A    
C49   C57   A    
C57   N1    A    
Cu4   O16   S    
C25   C63   A    
C23   C67   A    
C26   C64   A    
C56   H16   S    
C13   H17   S    
C27   C61   A    
C11   C15   A    
Cu1   O10   S    
C22   C66   A    
C12   C16   A    
C44   C46   A    
C49   C51   A    
C50   C52   A    
C69   C75   A    
C58   H10   S    
C69   H29   S    
C30   C86   A    
Cu4   N4    S    
C47   N3    A    
C29   C85   A    
C63   H23   S    
C52   C54   A    
C45   C47   A    
C91   H55   S    
C33   C59   A    
C55   H15   S    
C72   H32   S    
C34   C60   A    
C42   O16   A    
C41   O11   A    
C17   C85   A    
C21   C65   A    
Cu3   O6    S    
C30   C70   A    
C75   H39   S    
C38   C44   A    
C41   C68   S    
C29   C69   A    
C53   C55   A    
Cu2   Cu4   S    
C54   C56   A    
C3    O7    A    
C6    C84   A    
C24   H28   S    
C26   C66   A    
C90   H49   S    
C15   H19   S    
C31   C87   A    
C32   C72   A    
C10   C14   A    
C92   H52   S    
C79   C81   A    
C80   H36   S    
Cu1   N1    S    
Cu1   O1    S    
C89   H51   S    
C39   O13   A    
Cu4   O15   S    
C33   H7    S    
C90   H48   S    
C38   H14   S    
C15   C19   A    
C37   H13   S    
C1    O1    A    
C78   C84   A    
C70   H30   S    
C34   H8    S    
C89   C90   S    
C16   H20   S    
C59   N1    A    
C16   C20   A    
C4    O4    A    
C45   C49   A    
C50   C58   A    
C48   N4    A    
C44   C91   S    
C21   H25   S    
C20   H44   S    
Cu2   O11   S    
C43   C45   A    
C60   N2    A    
C41   O15   A    
C92   H54   S    
C72   C74   A    
C7    C81   A    
C35   N3    A    
C3    O3    A    
C40   C65   S    
C74   H38   S    
Cu4   O8    S    
C42   C67   S    
C39   C66   S    
C8    C82   A    
C37   C43   A    
C1    O5    A    
Cu1   Cu3   S    
Cu3   O13   S    
C70   C76   A    
C78   H34   S    
C77   H33   S    
C35   C37   A    
C47   C55   A    
C58   N2    A    
C14   H18   S    
C12   C64   A    
C22   H26   S    
C73   C77   A    
C36   H12   S    
C42   O12   A    
C34   C52   A    
C40   O14   A    
C76   C80   A    
Cu2   N2    S    
C28   C62   A    
C62   H22   S    
C33   C51   A    
Cu1   O2    S    
C4    O8    A    
C46   C50   A    
C35   H11   S    
C13   C17   A    
C28   H4    S    
C53   H5    S    
C90   H47   S    
C36   N4    A    
C36   C38   A    
C19   C87   A    
C79   H35   S    
Cu3   O14   S    
Cu2   O4    S    
C82   C86   A    
C17   H41   S    
C76   H40   S    
Cu2   O12   S    
C91   C92   S    
C84   C88   A    
C75   C79   A    
C73   H37   S    
C7    C23   A    
C20   C88   A    
C31   C71   A    
C1    C30   S    
C8    C24   A    
C80   C82   A    
C18   H42   S    
C3    C32   S    
C4    C31   S    
C27   C67   A    
C24   C68   A    
C61   H21   S    
C46   C48   A    
C7    C9    A    
Cu1   O9    S    
C5    C21   A    
C8    C10   A    
C74   C78   A    
C71   C73   A    
Cu4   O7    S    
C25   C65   A    
C77   C83   A    
C89   H50   S    
C54   H6    S    
C23   H27   S    
C51   C53   A    
C11   C63   A    
C2    O6    A    
C81   C85   A    
C60   H46   S    
Cu3   N3    S    
C32   C88   A    
