data_mof_unit_32328.cif
_audit_creation_date              2012-12-10T17:46:22-0500
_audit_creation_method            fapswitch 2.2
_symmetry_space_group_name_H-M    P1
_symmetry_Int_Tables_number       1
_space_group_crystal_system       triclinic
_cell_length_a                    14.142752
_cell_length_b                    10.64055
_cell_length_c                    9.967032
_cell_angle_alpha                 89.625646
_cell_angle_beta                  89.595749
_cell_angle_gamma                 92.744356
_cell_volume                      1498.1123815

loop_
_atom_site_label
_atom_site_type_symbol
_atom_type_description
_atom_site_fract_x
_atom_site_fract_y
_atom_site_fract_z
_atom_type_partial_charge
C1    C     C_R   0.501412 0.260950 0.500363 0.889060
C2    C     C_R   0.429408 0.061982 0.445582 -0.215455
C3    C     C_R   0.428069 0.933110 0.444320 -0.018684
C4    C     C_R   0.329381 0.499714 0.500409 0.913301
C5    C     C_R   0.505117 0.872272 0.498475 -0.089437
C6    C     C_R   0.378215 0.332357 0.147323 -0.111360
C7    C     C_R   0.318420 0.245351 0.084844 -0.342986
C8    C     C_R   0.315775 0.241213 0.947027 -0.077512
C9    C     C_R   0.373239 0.325172 0.870156 0.626171
C10   C     C_R   0.438681 0.415147 0.930477 -0.005837
C11   C     C_R   0.439657 0.416543 0.074955 -0.007600
C12   C     C_1   0.772126 0.500016 0.499040 -0.156857
C13   C     C_R   0.557832 0.579876 0.069933 0.677673
C14   C     C_R   0.557762 0.579788 0.927291 -0.198573
C15   C     C_R   0.501380 0.739259 0.499547 0.857714
C16   C     C_R   0.670629 0.500621 0.499583 0.849013
C17   C     C_1   0.227846 0.499275 0.501163 -0.154400
C18   C     C_1   0.142540 0.498978 0.501207 0.019385
C19   C     C_1   0.042597 0.498836 0.500764 0.042409
C20   C     C_1   0.957306 0.498974 0.500143 0.051112
C21   C     C_1   0.857394 0.499450 0.499375 0.038020
C22   C     C_1   0.251796 0.150378 0.883544 0.289043
C23   C     C_R   0.665417 0.140086 0.602129 -0.316269
C24   C     C_1   0.824799 0.151456 0.698871 0.274662
C25   C     C_1   0.345869 0.865177 0.390309 0.184541
C26   C     C_R   0.743702 0.078829 0.650130 -0.081638
C27   C     C_R   0.743359 0.947620 0.648873 0.663300
C28   C     C_R   0.665114 0.878230 0.599496 -0.270132
C29   C     C_R   0.585054 0.939082 0.551280 0.005972
C30   C     C_R   0.585378 0.070675 0.552691 0.080943
C31   C     C_R   0.506096 0.129088 0.500796 -0.061981
F1    F     F_    0.359129 0.314423 0.738507 -0.660678
F2    F     F_    0.819148 0.886562 0.694084 -0.648061
F3    F     F_    0.617247 0.662062 0.134997 -0.635835
H1    H     H_    0.369887 0.110684 0.405485 0.141766
H2    H     H_    0.605022 0.645233 0.872914 0.184108
H3    H     H_    0.668338 0.241833 0.602289 0.161539
H4    H     H_    0.668683 0.776963 0.597924 0.167507
H5    H     H_    0.373290 0.330228 0.253320 0.216560
H6    H     H_    0.273149 0.181618 0.144955 0.182703
N1    N     N_R   0.499190 0.498800 0.142780 -0.150780
N2    N     N_R   0.499160 0.498720 0.857170 -0.123835
N3    N     N_1   0.200567 0.077595 0.832578 -0.162247
N4    N     N_1   0.889909 0.209907 0.737888 -0.171138
N5    N     N_1   0.280194 0.810864 0.347128 -0.184305
O1    O     O_R   0.500000 0.316780 0.614690 -0.539863
O2    O     O_R   0.499990 0.316750 0.385360 -0.648213
O3    O     O_R   0.373720 0.500010 0.614690 -0.518572
O4    O     O_R   0.373710 0.499990 0.385360 -0.636792
O5    O     O_R   0.500010 0.683250 0.614640 -0.621931
O6    O     O_R   0.500000 0.683220 0.385310 -0.555817
O7    O     O_R   0.626290 0.500010 0.614640 -0.612643
O8    O     O_R   0.626280 0.499990 0.385310 -0.546163
Zn1   Zn    Zn3+2 0.500010 0.500020 0.653130 1.001416
Zn2   Zn    Zn3+2 0.499990 0.499980 0.346870 1.007676

loop_
_geom_bond_atom_site_label_1
_geom_bond_atom_site_label_2
_ccdc_geom_bond_type
C2    H1    S    
C8    C9    A    
C8    C22   S    
C7    H6    S    
C6    C7    A    
C15   O6    A    
C10   N2    A    
C29   C30   A    
C9    C10   A    
C5    C29   A    
C22   N3    T    
C3    C25   S    
C4    O4    A    
C14   N2    A    
O1    Zn1   S    
C13   N1    A    
C17   C18   T    
C13   F3    S    
C27   F2    S    
C23   H3    S    
C13   C14   A    
N2    Zn1   S    
O3    Zn1   S    
C26   C27   A    
O5    Zn1   S    
C4    C17   S    
C16   O8    A    
C28   C29   A    
C24   C26   S    
C11   N1    A    
O6    Zn2   S    
O8    Zn2   S    
C14   H2    S    
C30   C31   A    
C24   N4    T    
C1    O1    A    
C5    C15   S    
C7    C8    A    
C10   C11   A    
C25   N5    T    
C23   C30   A    
C12   C16   S    
C1    C31   S    
C20   C21   S    
O2    Zn2   S    
C18   C19   S    
C4    O3    A    
C15   O5    A    
C6    C11   A    
C23   C26   A    
C6    H5    S    
N1    Zn2   S    
C2    C3    A    
C9    F1    S    
C3    C5    A    
C28   H4    S    
O4    Zn2   S    
C12   C21   T    
C1    O2    A    
C16   O7    A    
C19   C20   T    
O7    Zn1   S    
C2    C31   A    
C27   C28   A    
