data_mof_unit_61330.cif
_audit_creation_date              2012-12-10T21:20:05-0500
_audit_creation_method            fapswitch 2.2
_symmetry_space_group_name_H-M    P1
_symmetry_Int_Tables_number       1
_space_group_crystal_system       triclinic
_cell_length_a                    16.738961
_cell_length_b                    16.817825
_cell_length_c                    17.588769
_cell_angle_alpha                 90.292829
_cell_angle_beta                  89.636156
_cell_angle_gamma                 84.181691
_cell_volume                      4925.77578885

loop_
_atom_site_label
_atom_site_type_symbol
_atom_type_description
_atom_site_fract_x
_atom_site_fract_y
_atom_site_fract_z
_atom_type_partial_charge
C1    C     C_R   0.500178 0.501979 0.353361 0.926554
C2    C     C_R   0.499828 0.497979 0.646633 0.926676
C3    C     C_R   0.558006 0.534775 0.846677 -0.146916
C4    C     C_R   0.442285 0.464035 0.153450 -0.146771
C5    C     C_R   0.557629 0.533973 0.767977 -0.213887
C6    C     C_R   0.442460 0.465415 0.232149 -0.213713
C7    C     C_R   0.499477 0.495563 0.728964 -0.112090
C8    C     C_R   0.500594 0.503997 0.271016 -0.112182
C9    C     C_R   0.442492 0.455679 0.769567 0.249668
C10   C     C_R   0.557769 0.543470 0.230252 0.249740
C11   C     C_R   0.443512 0.456921 0.848471 -0.179386
C12   C     C_R   0.556952 0.541649 0.151354 -0.179377
C13   C     C_R   0.500688 0.496685 0.886288 0.094041
C14   C     C_R   0.499796 0.501713 0.113693 0.093993
C15   C     C_1   0.500458 0.498298 0.966275 -0.032044
C16   C     C_1   0.500062 0.499798 0.033709 -0.032047
C17   C     C_R   0.836594 0.461576 0.441892 -0.249869
C18   C     C_R   0.163398 0.538490 0.558066 -0.249944
C19   C     C_R   0.752284 0.462212 0.443032 0.054582
C20   C     C_R   0.247709 0.537853 0.556928 0.054553
C21   C     C_R   0.743985 0.537644 0.557040 0.050188
C22   C     C_R   0.256024 0.462288 0.442999 0.050307
C23   C     C_R   0.511826 0.346843 0.497290 0.918522
C24   C     C_R   0.488174 0.653157 0.502725 0.918402
C25   C     C_R   0.828106 0.538379 0.557997 -0.254435
C26   C     C_R   0.171904 0.461550 0.442042 -0.254392
C27   C     C_R   0.875594 0.500019 0.499902 0.145233
C28   C     C_R   0.124407 0.499978 0.500095 0.145266
C29   C     C_1   0.963428 0.499996 0.499948 -0.028233
C30   C     C_1   0.036573 0.500001 0.500048 -0.028231
C31   C     C_R   0.521885 0.261101 0.487593 -0.085252
C32   C     C_R   0.478107 0.738881 0.512586 -0.085301
C33   C     C_R   0.477663 0.223530 0.432557 0.267613
C34   C     C_R   0.522270 0.776329 0.567758 0.267648
C35   C     C_R   0.487161 0.140910 0.426476 -0.139068
C36   C     C_R   0.512729 0.858933 0.574043 -0.139034
C37   C     C_R   0.539759 0.096180 0.474948 0.013279
C38   C     C_R   0.460143 0.903774 0.525642 0.013167
C39   C     C_R   0.587364 0.133523 0.526188 -0.167487
C40   C     C_R   0.412581 0.866540 0.474279 -0.167338
C41   C     C_R   0.578836 0.216184 0.532121 -0.219812
C42   C     C_R   0.421154 0.783893 0.468141 -0.219988
C43   C     C_2   0.533055 0.010637 0.482529 0.349034
C44   C     C_2   0.466899 0.989321 0.518183 0.348955
H1    H     H_    0.871000 0.431206 0.396048 0.148200
H2    H     H_    0.128987 0.568914 0.603877 0.148162
H3    H     H_    0.722892 0.432267 0.398152 0.140933
H4    H     H_    0.277093 0.567850 0.601778 0.140777
H5    H     H_    0.708125 0.567156 0.602219 0.164735
H6    H     H_    0.291891 0.432721 0.397854 0.164629
H7    H     H_    0.855787 0.568646 0.603865 0.152680
H8    H     H_    0.144231 0.431228 0.396205 0.152676
H9    H     H_    0.385897 0.755231 0.426584 0.160952
H10   H     H_    0.614128 0.244939 0.573583 0.160994
H11   H     H_    0.627496 0.098577 0.564218 0.152981
H12   H     H_    0.372467 0.901572 0.436296 0.152999
H13   H     H_    0.549185 0.888634 0.613801 0.161932
H14   H     H_    0.450680 0.111120 0.386808 0.161945
H15   H     H_    0.602550 0.565258 0.876569 0.153763
H16   H     H_    0.397727 0.433462 0.123676 0.153792
H17   H     H_    0.602080 0.564261 0.737596 0.194918
H18   H     H_    0.397875 0.435420 0.262648 0.194896
H19   H     H_    0.400083 0.426564 0.880297 0.168410
H20   H     H_    0.600499 0.571729 0.119407 0.168408
N1    N     N_R   0.707230 0.500020 0.500030 -0.094395
N2    N     N_R   0.292770 0.499980 0.499970 -0.094351
O1    O     O_R   0.566570 0.500000 0.389130 -0.588489
O2    O     O_R   0.433430 0.500000 0.610870 -0.588501
O3    O     O_R   0.433480 0.499990 0.389100 -0.630846
O4    O     O_R   0.566520 0.500010 0.610900 -0.630730
O5    O     O_R   0.574410 0.384200 0.500000 -0.638744
O6    O     O_R   0.425590 0.615800 0.500000 -0.638661
O7    O     O_R   0.441320 0.384200 0.499980 -0.560613
O8    O     O_R   0.558680 0.615800 0.500020 -0.560701
Zn1   Zn    Zn3+2 0.588860 0.500000 0.500020 0.996545
Zn2   Zn    Zn3+2 0.411140 0.500000 0.499980 0.996572
Br1   Br    Br    0.404959 0.281284 0.363671 -0.573404
Br2   Br    Br    0.594958 0.718422 0.636556 -0.573452
O9    O     O_3   0.404860 0.047785 0.538350 -0.619123
C45   C     C_3   0.355727 0.022076 0.597000 0.089790
H21   H     H_    0.392493 0.996997 0.645516 0.142116
H22   H     H_    0.317670 0.976668 0.574992 0.152284
C46   C     C_3   0.300694 0.093300 0.626268 -0.736153
H23   H     H_    0.262517 0.119401 0.579410 0.261599
H24   H     H_    0.261384 0.073929 0.672270 0.199684
H25   H     H_    0.336999 0.139617 0.649162 0.272038
O10   O     O_3   0.595086 0.952171 0.462340 -0.619165
C47   C     C_3   0.644215 0.977880 0.403685 0.089912
H26   H     H_    0.682307 0.023251 0.425702 0.152279
H27   H     H_    0.607447 0.003018 0.355193 0.142097
C48   C     C_3   0.699186 0.906639 0.374354 -0.736290
H28   H     H_    0.662840 0.860352 0.351470 0.271928
H29   H     H_    0.738468 0.926010 0.328332 0.199741
H30   H     H_    0.737389 0.880490 0.421174 0.261572
Br3   Br    Br    0.365394 0.394624 0.721758 -0.511898
Br4   Br    Br    0.634877 0.604710 0.277802 -0.512046

loop_
_geom_bond_atom_site_label_1
_geom_bond_atom_site_label_2
_ccdc_geom_bond_type
C38   C40   A    
O10   C47   S    
C27   C29   S    
C1    C8    S    
C2    C7    S    
O6    Zn2   S    
C33   Br1   S    
C21   H5    S    
C39   C41   A    
C35   H14   S    
C20   N2    A    
C35   C37   A    
C17   H1    S    
C11   H19   S    
C42   H9    S    
C12   H20   S    
C19   H3    S    
C15   C16   T    
O3    Zn2   S    
C22   N2    A    
C17   C19   A    
C2    O2    A    
C39   H11   S    
C40   H12   S    
C31   C33   A    
C9    Br3   S    
C18   C20   A    
C3    C13   A    
C22   H6    S    
C40   C42   A    
C23   O7    A    
C45   C46   S    
C18   H2    S    
O8    Zn1   S    
C17   C27   A    
C23   O5    A    
C18   C28   A    
C4    C6    A    
C36   H13   S    
C48   H28   S    
C5    C7    A    
C6    C8    A    
C1    O3    A    
C23   C31   S    
C37   C43   S    
C43   C44   D    
C24   C32   S    
C38   C44   S    
C29   C30   T    
C26   H8    S    
C48   H29   S    
C46   H23   S    
C47   C48   S    
C10   Br4   S    
N2    Zn2   S    
C4    H16   S    
C5    H17   S    
C9    C11   A    
C20   H4    S    
C10   C12   A    
C45   H22   S    
C46   H24   S    
C47   H27   S    
C13   C15   S    
O7    Zn2   S    
C14   C16   S    
C25   C27   A    
C24   O6    A    
C7    C9    A    
C21   C25   A    
C31   C41   A    
C21   N1    A    
C44   O9    S    
C12   C14   A    
C45   H21   S    
C3    C5    A    
C1    O1    A    
O2    Zn2   S    
C26   C28   A    
C25   H7    S    
N1    Zn1   S    
C43   O10   S    
C6    H18   S    
C28   C30   S    
C37   C39   A    
C34   Br2   S    
C48   H30   S    
O5    Zn1   S    
C11   C13   A    
C24   O8    A    
C36   C38   A    
C33   C35   A    
C19   N1    A    
C34   C36   A    
C4    C14   A    
C41   H10   S    
O9    C45   S    
C46   H25   S    
O1    Zn1   S    
C47   H26   S    
C8    C10   A    
C22   C26   A    
O4    Zn1   S    
C32   C42   A    
C2    O4    A    
C32   C34   A    
C3    H15   S    
