data_mof_unit_13230.cif
_audit_creation_date              2012-12-11T16:45:57-0500
_audit_creation_method            fapswitch 2.2
_symmetry_space_group_name_H-M    P1
_symmetry_Int_Tables_number       1
_space_group_crystal_system       triclinic
_cell_length_a                    19.877181
_cell_length_b                    17.265051
_cell_length_c                    15.228581
_cell_angle_alpha                 90.391659
_cell_angle_beta                  52.883518
_cell_angle_gamma                 90.021685
_cell_volume                      4167.24502349

loop_
_atom_site_label
_atom_site_type_symbol
_atom_type_description
_atom_site_fract_x
_atom_site_fract_y
_atom_site_fract_z
_atom_type_partial_charge
C1    C     C_R   0.874867 0.691975 0.991147 -0.207796
C2    C     C_R   0.161753 0.316211 0.053865 0.125360
C3    C     C_3   0.576384 0.268931 0.413189 -1.027333
C4    C     C_3   0.494425 0.569145 0.781461 0.221924
C5    C     C_3   0.466716 0.610210 0.718597 -0.313842
C6    C     C_3   0.387656 0.573173 0.741999 -1.012210
C7    C     C_3   0.480603 0.579065 0.233264 0.216089
C8    C     C_3   0.555110 0.634832 0.175345 -0.373077
C9    C     C_3   0.617026 0.612072 0.199143 -0.912283
C10   C     C_3   0.994142 0.092627 0.749845 0.225669
C11   C     C_3   0.931253 0.160230 0.802929 -0.349815
C12   C     C_3   0.872374 0.157610 0.769820 -0.998030
C13   C     C_R   0.344620 0.813188 0.938037 0.099864
C14   C     C_3   0.966701 0.070092 0.226069 0.213802
C15   C     C_3   0.045461 0.120328 0.170989 -0.372199
C16   C     C_3   0.103962 0.087502 0.195765 -0.917287
C17   C     C_3   0.673351 0.460923 0.491425 0.249456
C18   C     C_3   0.635784 0.480013 0.430658 -0.315545
C19   C     C_3   0.697210 0.460710 0.307829 -0.969851
C20   C     C_3   0.302074 0.463326 0.487703 0.194377
C21   C     C_3   0.364207 0.398990 0.462507 -0.256970
C22   C     C_3   0.343772 0.365574 0.568470 -1.057006
C23   C     C_3   0.178143 0.958797 0.495517 0.256168
C24   C     C_R   0.676539 0.823774 0.034320 0.127250
C25   C     C_3   0.140857 0.976392 0.434028 -0.340461
C26   C     C_3   0.202166 0.954889 0.312016 -0.954106
C27   C     C_3   0.797339 0.962284 0.476666 0.188354
C28   C     C_3   0.860783 0.895848 0.434314 -0.254806
C29   C     C_3   0.854478 0.857227 0.528652 -1.062171
C30   C     C_3   0.755664 0.549275 0.882576 0.167701
C31   C     C_3   0.684165 0.490441 0.925629 -0.330770
C32   C     C_3   0.636245 0.502564 0.877950 -0.874092
C33   C     C_3   0.260324 0.530131 0.076047 0.099940
C34   C     C_3   0.274922 0.491508 0.153604 -0.224229
C35   C     C_R   0.805812 0.637664 0.321629 0.087386
C36   C     C_3   0.368096 0.472517 0.094483 -0.949059
C37   C     C_3   0.266478 0.031278 0.874037 0.149531
C38   C     C_3   0.200253 0.968531 0.907909 -0.262423
C39   C     C_3   0.193823 0.947831 0.815688 -0.982908
C40   C     C_3   0.734703 0.066171 0.138166 0.173361
C41   C     C_3   0.800719 0.013892 0.041373 -0.436614
C42   C     C_3   0.885074 0.018035 0.023429 -0.832996
C43   C     C_R   0.189645 0.639857 0.674841 0.079706
C44   C     C_R   0.307495 0.139022 0.322398 0.082859
C45   C     C_R   0.691485 0.137854 0.675117 0.081957
C46   C     C_R   0.680300 0.634409 0.522732 -0.126218
C47   C     C_R   0.306512 0.635917 0.471055 -0.153476
C48   C     C_R   0.183157 0.135117 0.523039 -0.141487
C49   C     C_R   0.146428 0.683320 0.979164 -0.198075
C50   C     C_R   0.806380 0.133793 0.469805 -0.171248
C51   C     C_R   0.723932 0.666210 0.418013 0.057729
C52   C     C_R   0.270169 0.666399 0.575994 0.061764
C53   C     C_R   0.225848 0.167066 0.418648 0.070335
C54   C     C_R   0.772093 0.163772 0.574848 0.066725
C55   C     C_R   0.194127 0.238166 0.412587 -0.341237
C56   C     C_R   0.811184 0.230329 0.579284 -0.344701
C57   C     C_R   0.693724 0.738211 0.412047 -0.346267
C58   C     C_R   0.307781 0.733775 0.581329 -0.344766
C59   C     C_R   0.143675 0.285916 0.506566 0.548399
C60   C     C_R   0.363414 0.188074 0.005552 -0.215733
C61   C     C_R   0.861583 0.278171 0.485984 0.543943
C62   C     C_R   0.644041 0.786122 0.506114 0.534928
C63   C     C_R   0.359155 0.780968 0.487718 0.548402
C64   C     C_R   0.126217 0.261701 0.607650 -0.011605
C65   C     C_R   0.870689 0.258991 0.388481 -0.013730
C66   C     C_R   0.626368 0.761513 0.607328 -0.023283
C67   C     C_R   0.370304 0.760510 0.389125 -0.009669
C68   C     C_R   0.638768 0.682410 0.613417 -0.243209
C69   C     C_R   0.349758 0.684343 0.382403 -0.286938
C70   C     C_R   0.139579 0.182924 0.613719 -0.293461
C71   C     C_R   0.627714 0.191698 0.004494 -0.220942
C72   C     C_R   0.850146 0.182805 0.381099 -0.269172
C73   C     C_3   0.639258 0.622181 0.683989 0.979451
C74   C     C_3   0.340490 0.630046 0.312335 1.004955
C75   C     C_3   0.137033 0.121440 0.685682 0.988459
C76   C     C_3   0.830809 0.134847 0.315832 0.997899
C77   C     C_R   0.901565 0.302686 0.207894 -0.162737
C78   C     C_R   0.098438 0.302536 0.789868 -0.183484
C79   C     C_R   0.401668 0.802774 0.207962 -0.173898
C80   C     C_R   0.599717 0.802598 0.789156 -0.162818
C81   C     C_3   0.682859 0.566365 0.581694 0.204196
C82   C     C_R   0.889820 0.317300 0.305855 0.067819
C83   C     C_3   0.290388 0.575366 0.412874 0.196277
C84   C     C_3   0.186211 0.067403 0.582661 0.232205
C85   C     C_3   0.779769 0.080087 0.415782 0.195586
C86   C     C_2   0.701541 0.236533 0.077209 -0.179018
C87   C     C_2   0.255093 0.209629 0.979673 -0.168930
C88   C     C_2   0.253107 0.706074 0.007626 -0.173699
C89   C     C_2   0.779319 0.724462 0.947695 -0.170214
C90   C     C_2   0.296763 0.757742 0.927176 -0.214506
C91   C     C_2   0.735627 0.775195 0.030672 -0.200459
C92   C     C_2   0.741887 0.291502 0.001278 -0.199950
C93   C     C_R   0.107409 0.317566 0.693606 0.078957
C94   C     C_2   0.213884 0.263159 0.059235 -0.200331
C95   C     C_R   0.845022 0.399004 0.925530 -0.038406
C96   C     C_R   0.137109 0.389483 0.099386 -0.131419
C97   C     C_R   0.367430 0.886881 0.895250 -0.039873
C98   C     C_R   0.644982 0.893554 0.089321 -0.141059
C99   C     C_R   0.858097 0.580741 0.315966 -0.160678
C100  C     C_R   0.139571 0.580187 0.683278 -0.177154
C101  C     C_R   0.359156 0.081477 0.316373 -0.159651
C102  C     C_R   0.640180 0.079344 0.683719 -0.178429
C103  C     C_R   0.848106 0.314304 0.033887 -0.151776
C104  C     C_R   0.390468 0.817783 0.305495 0.064702
C105  C     C_R   0.129790 0.302006 0.997315 -0.131545
C106  C     C_R   0.373440 0.800911 0.998351 -0.111939
C107  C     C_R   0.639383 0.806072 0.984833 -0.130383
C108  C     C_R   0.849840 0.669768 0.217683 -0.118761
C109  C     C_R   0.146474 0.673609 0.778668 -0.102876
C110  C     C_R   0.351294 0.171435 0.218808 -0.112825
C111  C     C_R   0.649132 0.170942 0.779745 -0.107795
C112  C     C_R   0.905933 0.395650 0.305457 -0.131955
C113  C     C_R   0.090724 0.395583 0.696568 -0.151293
C114  C     C_R   0.406464 0.895972 0.305053 -0.123687
C115  C     C_R   0.607790 0.817355 0.693403 0.101606
C116  C     C_R   0.589894 0.895198 0.697229 -0.167620
C117  C     C_R   0.848929 0.593805 0.916578 0.461929
C118  C     C_R   0.161017 0.587809 0.066206 0.516709
C119  C     C_R   0.341874 0.088395 0.927786 0.468073
C120  C     C_R   0.644771 0.098374 0.091597 0.542256
C121  C     C_R   0.835666 0.672256 0.945520 0.028194
C122  C     C_R   0.193376 0.657936 0.011951 -0.025096
C123  C     C_R   0.318008 0.163256 0.970232 0.027336
C124  C     C_R   0.662579 0.175834 0.057275 -0.005483
C125  C     C_3   0.772162 0.673309 0.636980 0.056708
C126  C     C_R   0.805182 0.336129 0.993346 0.125084
C127  C     C_3   0.844865 0.615928 0.597041 -0.280514
C128  C     C_3   0.906704 0.646122 0.617291 -0.984258
C129  C     C_3   0.220224 0.703988 0.355782 0.035660
C130  C     C_3   0.149102 0.686437 0.346766 -0.201251
C131  C     C_3   0.088475 0.754731 0.385109 -1.031411
C132  C     C_3   0.261866 0.175149 0.658542 0.047821
C133  C     C_3   0.335992 0.119126 0.616807 -0.286119
C134  C     C_3   0.396408 0.148795 0.639891 -0.998308
C135  C     C_3   0.712584 0.218428 0.372525 0.043204
C136  C     C_3   0.631508 0.197930 0.386593 -0.232406
H1    H     H_    0.882270 0.749133 0.013845 0.123672
H2    H     H_    0.248176 0.204109 0.914806 0.117441
H3    H     H_    0.078800 0.121305 0.080578 0.215214
H4    H     H_    0.027553 0.180581 0.203284 0.219410
H5    H     H_    0.070725 0.084453 0.286067 0.248068
H6    H     H_    0.159432 0.124840 0.161776 0.294045
H7    H     H_    0.125921 0.028544 0.159526 0.276683
H8    H     H_    0.662231 0.398550 0.513176 0.097332
H9    H     H_    0.742761 0.467194 0.436584 0.096243
H10   H     H_    0.576577 0.446717 0.467942 0.194694
H11   H     H_    0.619170 0.542361 0.439607 0.218863
H12   H     H_    0.750197 0.502491 0.265867 0.282710
H13   H     H_    0.256157 0.702764 0.076080 0.146693
H14   H     H_    0.663932 0.464101 0.270114 0.268109
H15   H     H_    0.723439 0.401556 0.294361 0.258974
H16   H     H_    0.240937 0.436697 0.518053 0.128175
H17   H     H_    0.294515 0.501391 0.552350 0.125453
H18   H     H_    0.361363 0.352275 0.414208 0.197302
H19   H     H_    0.429465 0.422373 0.412654 0.205635
H20   H     H_    0.354707 0.409608 0.612113 0.276698
H21   H     H_    0.385066 0.315019 0.548519 0.273008
H22   H     H_    0.276999 0.346930 0.623492 0.272908
H23   H     H_    0.167152 0.896605 0.518326 0.104046
H24   H     H_    0.775072 0.722703 0.880080 0.114528
H25   H     H_    0.247452 0.965226 0.441217 0.092352
H26   H     H_    0.081386 0.943312 0.472242 0.193758
H27   H     H_    0.124946 0.038792 0.440830 0.219820
H28   H     H_    0.257421 0.994121 0.269525 0.279824
H29   H     H_    0.170122 0.960539 0.272799 0.272161
H30   H     H_    0.224778 0.894463 0.301481 0.258245
H31   H     H_    0.733771 0.937115 0.520344 0.139500
H32   H     H_    0.801368 0.998024 0.534349 0.119919
H33   H     H_    0.848385 0.852305 0.391537 0.201791
H34   H     H_    0.925954 0.918124 0.374484 0.197612
H35   H     H_    0.291145 0.763170 0.860765 0.139410
H36   H     H_    0.876448 0.897339 0.563816 0.276244
H37   H     H_    0.894663 0.804502 0.497660 0.274676
H38   H     H_    0.788141 0.840975 0.594349 0.268066
H39   H     H_    0.809351 0.533032 0.796942 0.094667
H40   H     H_    0.731063 0.607097 0.884344 0.137881
H41   H     H_    0.709849 0.430663 0.905103 0.178031
H42   H     H_    0.638706 0.495159 0.016649 0.219575
H43   H     H_    0.605855 0.560616 0.902221 0.304575
H44   H     H_    0.586022 0.458242 0.911139 0.246480
H45   H     H_    0.679622 0.496474 0.786921 0.272743
H46   H     H_    0.742192 0.780285 0.096339 0.126400
H47   H     H_    0.303281 0.580298 0.038823 0.119609
H48   H     H_    0.277529 0.488401 0.009236 0.103716
H49   H     H_    0.252931 0.530787 0.224235 0.243442
H50   H     H_    0.238302 0.437106 0.186931 0.167378
H51   H     H_    0.390841 0.431576 0.025087 0.237206
H52   H     H_    0.376562 0.445210 0.153069 0.284440
H53   H     H_    0.406519 0.526128 0.062192 0.296274
H54   H     H_    0.325776 0.017318 0.791435 0.104344
H55   H     H_    0.240415 0.086757 0.870489 0.132430
H56   H     H_    0.215984 0.915047 0.932148 0.204312
H57   H     H_    0.737565 0.297703 0.934030 0.116302
H58   H     H_    0.137645 0.989028 0.980884 0.199713
H59   H     H_    0.171453 0.998419 0.795415 0.319461
H60   H     H_    0.147809 0.900122 0.842916 0.260659
H61   H     H_    0.255959 0.928132 0.741094 0.249773
H62   H     H_    0.729206 0.047432 0.211912 0.175387
H63   H     H_    0.759337 0.125467 0.121900 0.117857
H64   H     H_    0.780839 0.952729 0.058161 0.212314
H65   H     H_    0.809302 0.031716 0.965322 0.202117
H66   H     H_    0.908417 0.078502 0.008228 0.282818
H67   H     H_    0.932573 0.981433 0.951578 0.261339
H68   H     H_    0.223179 0.271105 0.122100 0.129485
H69   H     H_    0.877927 0.996013 0.097020 0.276752
H70   H     H_    0.909783 0.246945 0.170482 0.173165
H71   H     H_    0.091998 0.246547 0.824654 0.172514
H72   H     H_    0.409012 0.746936 0.171224 0.174534
H73   H     H_    0.145717 0.740936 0.952562 0.126233
H74   H     H_    0.595771 0.746623 0.822592 0.176822
H75   H     H_    0.838532 0.420649 0.864992 0.104463
H76   H     H_    0.138888 0.412702 0.163653 0.147878
H77   H     H_    0.367939 0.908670 0.828776 0.095284
H78   H     H_    0.649105 0.916897 0.151722 0.154154
H79   H     H_    0.847724 0.545942 0.380976 0.083039
H80   H     H_    0.150913 0.541941 0.619974 0.090477
H81   H     H_    0.349245 0.047109 0.381482 0.085912
H82   H     H_    0.651061 0.040871 0.621063 0.094699
H83   H     H_    0.840584 0.262905 0.079173 0.128064
H84   H     H_    0.366601 0.245927 0.030484 0.122919
H85   H     H_    0.126126 0.247846 0.964303 0.108570
H86   H     H_    0.378353 0.746898 0.029794 0.121530
H87   H     H_    0.641084 0.752383 0.946462 0.105566
H88   H     H_    0.830104 0.715977 0.190851 0.096967
H89   H     H_    0.163559 0.725178 0.800545 0.089950
H90   H     H_    0.332823 0.219796 0.193813 0.095122
H91   H     H_    0.669435 0.218747 0.804230 0.094238
H92   H     H_    0.914181 0.426290 0.360110 0.173789
H93   H     H_    0.077446 0.426328 0.647493 0.176101
H94   H     H_    0.415019 0.926928 0.359174 0.176317
H95   H     H_    0.617488 0.248027 0.983624 0.129907
H96   H     H_    0.575008 0.925482 0.649510 0.178211
H97   H     H_    0.213883 0.260764 0.334477 0.119050
H98   H     H_    0.796491 0.249815 0.656708 0.124030
H99   H     H_    0.714461 0.761435 0.333816 0.124723
H100  H     H_    0.292169 0.753807 0.659045 0.120636
H101  H     H_    0.133886 0.363587 0.422055 0.317620
H102  H     H_    0.884518 0.348610 0.565467 0.315991
H103  H     H_    0.635565 0.864690 0.421376 0.324420
H104  H     H_    0.380877 0.851992 0.567972 0.312508
H105  H     H_    0.776564 0.723271 0.679535 0.173451
H106  H     H_    0.745925 0.547404 0.554369 0.025874
H107  H     H_    0.780318 0.697929 0.564167 0.092855
H108  H     H_    0.819987 0.559160 0.638200 0.211474
H109  H     H_    0.880188 0.605458 0.507164 0.176496
H110  H     H_    0.932042 0.702911 0.577178 0.273798
H111  H     H_    0.959769 0.604501 0.583136 0.266167
H112  H     H_    0.874884 0.653591 0.706618 0.245215
H113  H     H_    0.239221 0.765272 0.334419 0.155746
H114  H     H_    0.195006 0.696249 0.443051 0.087374
H115  H     H_    0.175804 0.672808 0.260130 0.235340
H116  H     H_    0.113887 0.634682 0.396942 0.187181
H117  H     H_    0.223750 0.567882 0.444626 0.042937
H118  H     H_    0.063996 0.773201 0.469624 0.268558
H119  H     H_    0.034981 0.737566 0.384420 0.275137
H120  H     H_    0.120958 0.804152 0.328190 0.279872
H121  H     H_    0.262011 0.222051 0.708708 0.175466
H122  H     H_    0.272405 0.204606 0.586795 0.098410
H123  H     H_    0.312310 0.061524 0.655131 0.220692
H124  H     H_    0.372229 0.110671 0.526389 0.180351
H125  H     H_    0.423822 0.204806 0.598718 0.277140
H126  H     H_    0.448186 0.106180 0.608803 0.263291
H127  H     H_    0.363120 0.157426 0.729353 0.246003
H128  H     H_    0.249185 0.050759 0.557846 0.021998
H129  H     H_    0.730646 0.278917 0.344332 0.159414
H130  H     H_    0.698811 0.215640 0.454756 0.082654
H131  H     H_    0.646801 0.171140 0.310311 0.225389
H132  H     H_    0.595214 0.154672 0.453221 0.182802
H133  H     H_    0.556070 0.295739 0.492283 0.268700
H134  H     H_    0.520080 0.251385 0.419152 0.273422
H135  H     H_    0.611256 0.311950 0.346152 0.279741
H136  H     H_    0.437850 0.567204 0.868684 0.112670
H137  H     H_    0.509552 0.507049 0.760610 0.158512
H138  H     H_    0.453559 0.672273 0.743478 0.213680
H139  H     H_    0.711434 0.080013 0.453870 0.052159
H140  H     H_    0.516575 0.606207 0.628674 0.223596
H141  H     H_    0.368420 0.604789 0.697042 0.278217
H142  H     H_    0.334894 0.575706 0.831310 0.261192
H143  H     H_    0.400433 0.511725 0.714114 0.267940
H144  H     H_    0.504043 0.520213 0.197412 0.133625
H145  H     H_    0.456446 0.575248 0.320443 0.138090
H146  H     H_    0.587539 0.633194 0.085162 0.219355
H147  H     H_    0.532445 0.694863 0.205534 0.217719
H148  H     H_    0.585458 0.613773 0.289148 0.251356
H149  H     H_    0.670631 0.652536 0.159383 0.286682
H150  H     H_    0.703236 0.234673 0.146763 0.141642
H151  H     H_    0.642005 0.552856 0.167193 0.280141
H152  H     H_    0.958602 0.037735 0.784276 0.140331
H153  H     H_    0.022826 0.090369 0.660856 0.133829
H154  H     H_    0.893294 0.157724 0.893929 0.214117
H155  H     H_    0.965245 0.216132 0.776200 0.217415
H156  H     H_    0.909281 0.157614 0.678721 0.270574
H157  H     H_    0.830959 0.209285 0.802208 0.269615
H158  H     H_    0.832395 0.104991 0.803273 0.262808
H159  H     H_    0.985320 0.012434 0.184736 0.129504
H160  H     H_    0.944283 0.060265 0.311562 0.139694
N1    N     N_R   0.908660 0.628630 0.995840 -0.057538
N2    N     N_R   0.096530 0.421430 0.063580 -0.044145
N3    N     N_R   0.403470 0.921430 0.936420 -0.033742
N4    N     N_R   0.596530 0.921430 0.063580 -0.038802
N5    N     N_R   0.927500 0.575670 0.211370 -0.040322
N6    N     N_R   0.072500 0.575670 0.788630 -0.048139
N7    N     N_R   0.427500 0.075670 0.211370 -0.041145
N8    N     N_R   0.572500 0.075670 0.788630 -0.047254
N9    N     N_R   0.908660 0.365680 0.995820 -0.045065
N10   N     N_R   0.091340 0.365680 0.004180 -0.045850
N11   N     N_R   0.408660 0.865680 0.995820 -0.046904
N12   N     N_R   0.091340 0.628630 0.004160 -0.068662
N13   N     N_R   0.591340 0.865680 0.004180 -0.046256
N14   N     N_R   0.922310 0.631420 0.151980 -0.040496
N15   N     N_R   0.077690 0.631420 0.848020 -0.040173
N16   N     N_R   0.422310 0.131420 0.151980 -0.040273
N17   N     N_R   0.577690 0.131420 0.848020 -0.040051
N18   N     N_R   0.927500 0.426330 0.211360 -0.049168
N19   N     N_R   0.072500 0.426330 0.788640 -0.051451
N20   N     N_R   0.427500 0.926330 0.211360 -0.050541
N21   N     N_R   0.572500 0.926330 0.788640 -0.052879
N22   N     N_R   0.903470 0.570760 0.936440 -0.074506
N23   N     N_R   0.408660 0.128630 0.995840 -0.058082
N24   N     N_R   0.096530 0.570760 0.063560 -0.085499
N25   N     N_R   0.403470 0.070760 0.936440 -0.079120
N26   N     N_R   0.596530 0.070760 0.063560 -0.087262
N27   N     N_R   0.591340 0.128630 0.004160 -0.070396
N28   N     N_R   0.922310 0.368460 0.151950 -0.043480
N29   N     N_R   0.077690 0.368460 0.848050 -0.040439
N30   N     N_R   0.422310 0.868460 0.151950 -0.043737
N31   N     N_R   0.577690 0.868460 0.848050 -0.045351
N32   N     N_R   0.903470 0.421430 0.936420 -0.044592
Ni1   Ni    Ni4+2 0.000000 0.630300 0.000000 0.199690
Ni2   Ni    Ni4+2 0.500000 0.130300 0.000000 0.197686
Ni3   Ni    Ni4+2 1.000000 0.369700 0.000000 0.212647
Ni4   Ni    Ni4+2 0.500000 0.869700 0.000000 0.215036
Ni5   Ni    Ni4+2 0.988090 0.497570 0.863760 0.208371
Ni6   Ni    Ni4+2 0.011910 0.497570 0.136240 0.238894
Ni7   Ni    Ni4+2 0.488090 0.997570 0.863760 0.209045
Ni8   Ni    Ni4+2 0.511910 0.997570 0.136240 0.245227
O1    O     O_3   0.116041 0.356718 0.497979 -0.804304
O2    O     O_3   0.419321 0.600512 0.217424 -0.655096
O3    O     O_3   0.053410 0.096515 0.773702 -0.654460
O4    O     O_3   0.905060 0.102390 0.216849 -0.660897
O5    O     O_3   0.632417 0.504519 0.590501 -0.682487
O6    O     O_3   0.333512 0.504073 0.390329 -0.661541
O7    O     O_3   0.136946 0.003214 0.593765 -0.661746
O8    O     O_3   0.815409 0.004548 0.386087 -0.659801
O9    O     O_3   0.780324 0.546942 0.952019 -0.664950
O10   O     O_3   0.174676 0.553056 0.136033 -0.682159
O11   O     O_3   0.281809 0.033602 0.953079 -0.661392
O12   O     O_3   0.897006 0.344805 0.491929 -0.797585
O13   O     O_3   0.652659 0.060644 0.165380 -0.694967
O14   O     O_3   0.618086 0.857742 0.497107 -0.800962
O15   O     O_3   0.394278 0.847714 0.493957 -0.797516
O16   O     O_3   0.692768 0.638101 0.715611 -0.703794
O17   O     O_3   0.290704 0.656239 0.279301 -0.702125
O18   O     O_3   0.182971 0.136612 0.728765 -0.701583
O19   O     O_3   0.779354 0.169573 0.290210 -0.711391
O20   O     O_3   0.555896 0.609390 0.783174 -0.687049

loop_
_geom_bond_atom_site_label_1
_geom_bond_atom_site_label_2
_ccdc_geom_bond_type
C4    H136  S    
C112  H92   S    
C78   N29   A    
C55   C59   A    
C88   C90   D    
C74   C83   S    
C119  O11   S    
C3    H134  S    
C136  H131  S    
C24   C98   A    
C5    C6    S    
C108  H88   S    
C131  H119  S    
C111  N17   A    
C87   C94   D    
C19   H14   S    
C34   H50   S    
C103  C126  A    
C50   C72   A    
C78   H71   S    
C44   C53   S    
C120  N26   A    
C59   O1    S    
C103  N9    A    
N9    N32   A    
C51   C57   A    
C47   C83   S    
H102  O12   S    
C99   N5    A    
C98   H78   S    
C21   C22   S    
C86   H150  S    
C75   O3    S    
C27   O8    S    
C135  O19   S    
C41   H64   S    
C30   H40   S    
C57   H99   S    
C15   H3    S    
C129  H113  S    
C66   C115  S    
C135  C136  S    
C88   C122  S    
N12   N24   A    
C37   O11   S    
C8    H147  S    
C62   C66   A    
C13   C106  A    
C132  H122  S    
C118  N24   A    
C81   O5    S    
C36   H52   S    
N17   Ni2   S    
C118  O10   S    
C73   O20   S    
N32   Ni5   S    
C84   O7    S    
C14   O4    S    
C109  N15   A    
C110  N16   A    
C69   C74   S    
C24   C107  A    
C76   O19   S    
C52   C58   A    
C60   N23   A    
N18   N28   A    
C22   H21   S    
N12   Ni1   S    
C35   C51   S    
N13   Ni4   S    
C6    H142  S    
C63   O15   S    
C80   H74   S    
C12   H157  S    
C100  H80   S    
C14   H159  S    
C80   N31   A    
C48   C70   A    
C4    C5    S    
C20   O6    S    
C44   C101  A    
C45   C111  A    
C47   C52   A    
C40   H63   S    
C119  C123  A    
C71   N27   A    
C19   H12   S    
C9    H149  S    
C2    C96   A    
C130  C131  S    
N10   Ni3   S    
N3    N11   A    
C65   C82   S    
C77   C82   A    
C74   O2    S    
N29   Ni3   S    
C13   C97   A    
C45   C102  A    
N18   Ni6   S    
C61   C65   A    
C20   C21   S    
C91   H46   S    
C125  C127  S    
C71   H95   S    
C32   H44   S    
C76   C85   S    
N23   N25   A    
C134  H127  S    
C88   H13   S    
N22   Ni5   S    
C49   N12   A    
N19   Ni5   S    
C7    C8    S    
C130  H115  S    
C87   C123  S    
C17   H8    S    
C4    H137  S    
C62   O14   S    
C38   C39   S    
C75   C84   S    
N3    Ni7   S    
C115  C116  A    
N14   Ni1   S    
C3    H135  S    
C42   H69   S    
C3    C136  S    
C118  C122  A    
C47   C69   A    
C133  H124  S    
C23   H23   S    
C90   H35   S    
C19   H15   S    
C108  N14   A    
C89   C91   D    
C7    H145  S    
C37   H54   S    
C33   O10   S    
C116  H96   S    
C56   H98   S    
H101  O1    S    
C48   C53   A    
N25   Ni7   S    
C20   H17   S    
C9    H151  S    
C31   H42   S    
C113  N19   A    
C10   H152  S    
C32   H45   S    
C2    C94   S    
C114  N20   A    
C18   H11   S    
C110  H90   S    
C73   O16   S    
C25   C26   S    
C46   C51   A    
C60   C123  A    
C46   C68   A    
C8    H146  S    
C106  N11   A    
C31   C32   S    
N20   N30   A    
C33   H48   S    
C17   C18   S    
C21   H19   S    
C17   O5    S    
N5    N14   A    
N2    Ni6   S    
C134  H125  S    
C86   C124  S    
C42   H66   S    
C94   H68   S    
C87   H2    S    
C1    H1    S    
C129  C130  S    
C128  H111  S    
C84   H128  S    
N6    Ni5   S    
C113  H93   S    
N23   Ni2   S    
C12   H156  S    
C65   C72   A    
C27   H32   S    
C3    H133  S    
C136  H132  S    
C95   H75   S    
C16   H5    S    
C23   O7    S    
N30   Ni4   S    
C95   C126  A    
C40   H62   S    
C25   H27   S    
C105  H85   S    
C26   H28   S    
C74   O17   S    
C34   C36   S    
C1    C121  A    
C10   C11   S    
C102  H82   S    
C70   C75   S    
C14   C15   S    
C95   N32   A    
C43   C109  A    
C75   O18   S    
C28   H34   S    
C26   H29   S    
C96   H76   S    
C13   C90   S    
C41   C42   S    
C29   H38   S    
N8    N17   A    
N28   Ni3   S    
C50   C54   A    
C1    N1    A    
C28   C29   S    
C58   H100  S    
C60   H84   S    
C30   C31   S    
C117  N22   A    
C18   C19   S    
C73   C81   S    
C50   C85   S    
N4    N13   A    
C26   H30   S    
C119  N25   A    
C4    O20   S    
C135  H130  S    
N9    Ni3   S    
N5    Ni6   S    
C132  O18   S    
C105  N10   A    
N21   N31   A    
C11   H155  S    
N26   N27   A    
C39   H61   S    
C97   H77   S    
C112  N18   A    
N7    Ni8   S    
C6    H143  S    
C12   H158  S    
C14   H160  S    
C7    O2    S    
C43   C100  A    
C92   H57   S    
C131  H120  S    
C22   H22   S    
C38   H58   S    
C9    H148  S    
C82   C112  A    
C34   H49   S    
C17   H9    S    
C117  O9    S    
C80   C115  A    
N4    Ni8   S    
C40   O13   S    
C11   C12   S    
C16   H7    S    
N27   Ni2   S    
C96   N2    A    
N19   N29   A    
C83   H117  S    
C133  C134  S    
H104  O15   S    
C41   H65   S    
C127  C128  S    
C30   H39   S    
C15   H4    S    
C129  H114  S    
N24   Ni6   S    
C92   C126  S    
C132  H121  S    
C130  H116  S    
N26   Ni8   S    
C39   H60   S    
C36   H51   S    
C128  H110  S    
C77   H70   S    
C89   C121  S    
C30   O9    S    
C43   C52   S    
N1    Ni1   S    
N15   Ni1   S    
C85   H139  S    
C28   H33   S    
C133  H123  S    
C20   H16   S    
C125  O16   S    
C49   H73   S    
C56   C61   A    
C5    H138  S    
C6    H141  S    
C79   H72   S    
C103  H83   S    
N7    N16   A    
C81   H106  S    
C66   C68   A    
C97   N3    A    
C72   C76   S    
C98   N4    A    
C131  H118  S    
C57   C62   A    
C22   H20   S    
C59   C64   A    
C37   C38   S    
C31   H41   S    
N8    Ni7   S    
C107  N13   A    
C64   C93   S    
N31   Ni4   S    
C78   C93   A    
C15   C16   S    
C85   O8    S    
C117  C121  A    
C35   C108  A    
C120  C124  A    
C132  C133  S    
C33   H47   S    
C21   H18   S    
C32   H43   S    
C125  H105  S    
C127  H109  S    
C64   C70   A    
C134  H126  S    
C42   H67   S    
N1    N22   A    
C55   H97   S    
C35   C99   A    
C67   C104  S    
C10   H153  S    
C107  H87   S    
C53   C55   A    
C63   C67   A    
N16   Ni2   S    
C36   H53   S    
C128  H112  S    
C71   C124  A    
C83   O6    S    
N11   Ni4   S    
C79   N30   A    
C109  H89   S    
C8    C9    S    
C93   C113  A    
C68   C73   S    
C48   C84   S    
C67   C69   A    
N6    N15   A    
C16   H6    S    
C39   H59   S    
C46   C81   S    
C25   H26   S    
C76   O4    S    
C33   C34   S    
C5    H140  S    
C11   H154  S    
N2    N10   A    
C104  C114  A    
C40   C41   S    
C37   H55   S    
C45   C54   S    
C38   H56   S    
C79   C104  A    
C24   C91   S    
C10   O3    S    
C89   H24   S    
C129  O17   S    
C58   C63   A    
N20   Ni8   S    
C127  H108  S    
C29   H37   S    
C18   H10   S    
C114  H94   S    
C116  N21   A    
C54   C56   A    
C120  O13   S    
C2    C105  A    
C61   O12   S    
C111  H91   S    
C86   C92   D    
C106  H86   S    
C99   H79   S    
N21   Ni7   S    
C49   C122  A    
C77   N28   A    
C125  H107  S    
C23   C25   S    
C29   H36   S    
C100  N6    A    
C101  N7    A    
C102  N8    A    
C101  H81   S    
C27   C28   S    
C135  H129  S    
C7    H144  S    
C27   H31   S    
C23   H25   S    
H103  O14   S    
C44   C110  A    
