data_mof_unit_12639.cif
_audit_creation_date              2012-12-10T18:57:09-0500
_audit_creation_method            fapswitch 2.2
_symmetry_space_group_name_H-M    P1
_symmetry_Int_Tables_number       1
_space_group_crystal_system       triclinic
_cell_length_a                    8.718255
_cell_length_b                    10.854251
_cell_length_c                    9.577514
_cell_angle_alpha                 90.89653
_cell_angle_beta                  96.842471
_cell_angle_gamma                 91.409574
_cell_volume                      899.436187054

loop_
_atom_site_label
_atom_site_type_symbol
_atom_type_description
_atom_site_fract_x
_atom_site_fract_y
_atom_site_fract_z
_atom_type_partial_charge
C1    C     C_R   0.493731 0.262619 0.497999 0.798714
C2    C     C_R   0.540656 0.935581 0.383669 -0.218425
C3    C     C_R   0.492963 0.871291 0.498206 -0.066090
C4    C     C_R   0.419399 0.937301 0.596153 -0.033759
C5    C     C_3   0.431603 0.941165 0.753926 0.328454
C6    C     C_3   0.403652 0.080347 0.744013 -0.139044
C7    C     C_R   0.559272 0.599069 0.080354 0.175074
C8    C     C_R   0.424938 0.409570 0.064750 -0.070926
C9    C     C_R   0.424028 0.410174 0.915970 -0.087670
C10   C     C_R   0.560360 0.597701 0.933757 0.217751
C11   C     C_3   0.720234 0.648121 0.941935 -0.523676
C12   C     C_R   0.204400 0.494030 0.464935 0.857113
C13   C     C_3   0.718001 0.659435 0.100154 0.300000
C14   C     C_R   0.500634 0.737791 0.500782 0.797659
C15   C     C_R   0.795775 0.499473 0.535577 0.883647
C16   C     C_2   0.039414 0.479618 0.447876 -0.353863
C17   C     C_2   0.961271 0.502827 0.555747 -0.370365
C18   C     C_R   0.404749 0.063508 0.588670 0.050401
C19   C     C_R   0.477899 0.129590 0.490396 -0.094553
C20   C     C_R   0.534823 0.064004 0.380486 -0.221210
Cu1   Cu    Cu3+1 0.499990 0.499980 0.640670 0.955242
Cu2   Cu    Cu3+1 0.500010 0.500020 0.359330 0.963719
H1    H     H_    0.981581 0.449396 0.346179 0.216739
H2    H     H_    0.363538 0.337148 0.852729 0.173470
H3    H     H_    0.801515 0.578413 0.910151 0.222016
H4    H     H_    0.730669 0.736956 0.890609 0.216745
H5    H     H_    0.714395 0.756024 0.140866 0.075750
H6    H     H_    0.019085 0.528073 0.659562 0.171524
H7    H     H_    0.583315 0.111815 0.296782 0.166082
H8    H     H_    0.590090 0.887652 0.300488 0.153764
H9    H     H_    0.335337 0.887552 0.792525 0.085941
H10   H     H_    0.495665 0.143861 0.795105 0.181720
H11   H     H_    0.366526 0.335054 0.112519 0.138230
N1    N     N_R   0.500980 0.500930 0.148050 -0.173251
N2    N     N_R   0.500990 0.500890 0.852140 -0.182922
O1    O     O_R   0.500000 0.319640 0.618810 -0.587071
O2    O     O_R   0.500020 0.319680 0.381230 -0.594831
O3    O     O_R   0.274830 0.499980 0.591380 -0.572844
O4    O     O_R   0.274850 0.500020 0.353800 -0.604345
O5    O     O_R   0.499980 0.680320 0.618770 -0.558193
O6    O     O_R   0.500000 0.680360 0.381190 -0.599707
O7    O     O_R   0.725150 0.499980 0.646200 -0.595005
O8    O     O_R   0.725170 0.500020 0.408620 -0.518921
O9    O     O_3   0.833522 0.588126 0.171802 -0.538314
C21   C     C_3   0.975705 0.655873 0.183110 -0.334797
H12   H     H_    0.994147 0.706197 0.285841 0.174696
H13   H     H_    0.986012 0.722561 0.096993 0.140727
H14   H     H_    0.070291 0.590574 0.177258 0.204650
O10   O     O_3   0.577201 0.905380 0.823130 -0.584686
C22   C     C_3   0.706170 0.981057 0.799110 -0.344641
H15   H     H_    0.719403 0.060397 0.874437 0.167463
H16   H     H_    0.702536 0.012811 0.689352 0.177863
H17   H     H_    0.812548 0.927194 0.820035 0.163666
N3    N     N_3   0.250417 0.113659 0.778161 -0.614993
H18   H     H_    0.249714 0.103763 0.886504 0.210961
H19   H     H_    0.165309 0.052917 0.728086 0.214319

loop_
_geom_bond_atom_site_label_1
_geom_bond_atom_site_label_2
_ccdc_geom_bond_type
C8    C9    A    
C7    C10   A    
C6    H10   S    
C9    H2    S    
C10   N2    A    
Cu1   N2    S    
C22   H16   S    
Cu2   O8    S    
C1    O2    A    
C20   H7    S    
C4    C18   A    
C17   H6    S    
C12   O4    A    
C2    C3    A    
C15   O8    A    
Cu1   O1    S    
C8    N1    A    
C21   H12   S    
C11   C13   S    
C5    O10   S    
C3    C14   S    
C6    N3    S    
C14   O6    A    
C6    C18   S    
Cu2   O4    S    
O10   C22   S    
C16   H1    S    
C8    H11   S    
C21   H13   S    
C12   O3    A    
C5    C6    S    
Cu2   N1    S    
C7    N1    A    
N3    H19   S    
C1    C19   S    
C22   H17   S    
C10   C11   S    
C11   H3    S    
C2    C20   A    
C3    C4    A    
Cu2   O6    S    
C12   C16   S    
C7    C13   S    
C2    H8    S    
O9    C21   S    
C15   O7    A    
C15   C17   S    
C18   C19   A    
C21   H14   S    
C9    N2    A    
N3    H18   S    
C4    C5    S    
Cu1   O7    S    
C11   H4    S    
C22   H15   S    
Cu1   Cu2   S    
Cu2   O2    S    
C14   O5    A    
C13   O9    S    
C13   H5    S    
Cu1   O3    S    
C19   C20   A    
C1    O1    A    
C16   C17   D    
C5    H9    S    
Cu1   O5    S    
