data_mof_unit_44600.cif
_audit_creation_date              2012-12-10T16:53:32-0500
_audit_creation_method            fapswitch 2.2
_symmetry_space_group_name_H-M    P1
_symmetry_Int_Tables_number       1
_space_group_crystal_system       triclinic
_cell_length_a                    8.16299
_cell_length_b                    8.622795
_cell_length_c                    13.633207
_cell_angle_alpha                 102.376222
_cell_angle_beta                  75.478222
_cell_angle_gamma                 92.065505
_cell_volume                      907.207350753

loop_
_atom_site_label
_atom_site_type_symbol
_atom_type_description
_atom_site_fract_x
_atom_site_fract_y
_atom_site_fract_z
_atom_type_partial_charge
C1    C     C_R   0.542965 0.793310 0.498621 0.920261
C2    C     C_1   0.574003 0.486266 0.115467 -0.027080
C3    C     C_2   0.566076 0.955807 0.497379 -0.371057
C4    C     C_2   0.433748 0.044370 0.503183 -0.370552
C5    C     C_3   0.118966 0.401121 0.019843 -0.737216
C6    C     C_3   0.801779 0.643365 0.942484 -0.768746
C7    C     C_R   0.018697 0.330911 0.377672 0.251872
C8    C     C_R   0.905153 0.254229 0.318949 -0.119825
C9    C     C_R   0.953520 0.152525 0.221251 -0.218430
C10   C     C_R   0.121165 0.110594 0.177580 -0.071315
C11   C     C_R   0.236618 0.164218 0.234860 -0.223240
C12   C     C_R   0.456989 0.206727 0.501510 0.918432
C13   C     C_R   0.184779 0.266016 0.332570 -0.145194
C14   C     C_R   0.983999 0.681187 0.615543 0.254622
C15   C     C_R   0.099424 0.764702 0.670643 -0.134617
C16   C     C_R   0.059063 0.897818 0.752236 -0.222524
C17   C     C_R   0.896702 0.959061 0.786153 -0.079127
C18   C     C_R   0.776362 0.885410 0.738413 -0.227690
C19   C     C_R   0.819284 0.751923 0.656913 -0.134361
C20   C     C_R   0.465487 0.503591 0.687584 0.854515
C21   C     C_R   0.534405 0.495445 0.312311 0.862279
C22   C     C_1   0.563293 0.490426 0.204970 -0.196514
C23   C     C_1   0.435159 0.496754 0.793301 -0.192317
C24   C     C_2   0.570795 0.481782 0.010586 0.147949
C25   C     C_2   0.420138 0.474460 0.984446 0.156562
C26   C     C_1   0.421355 0.487152 0.881073 -0.024228
H1    H     H_    0.693168 0.002187 0.491219 0.196503
H2    H     H_    0.716751 0.726057 0.925231 0.244540
H3    H     H_    0.774581 0.259900 0.344614 0.202697
H4    H     H_    0.858884 0.103207 0.180620 0.134971
H5    H     H_    0.160020 0.031316 0.102343 0.134624
H6    H     H_    0.367546 0.124309 0.204568 0.132499
H7    H     H_    0.283628 0.279811 0.365544 0.204313
H8    H     H_    0.226290 0.737529 0.655780 0.207663
H9    H     H_    0.155764 0.953803 0.789023 0.134334
H10   H     H_    0.864208 0.062031 0.849163 0.136538
H11   H     H_    0.647281 0.931493 0.764958 0.130022
H12   H     H_    0.306632 0.998016 0.509431 0.198645
H13   H     H_    0.712117 0.716786 0.635674 0.205060
H14   H     H_    0.265859 0.436904 0.127065 0.247383
H15   H     H_    0.004733 0.407713 0.085313 0.252324
H16   H     H_    0.146188 0.274719 0.980131 0.224206
H17   H     H_    0.090986 0.469275 0.965383 0.262952
H18   H     H_    0.734424 0.427476 0.861913 0.236039
H19   H     H_    0.925798 0.635983 0.884652 0.246367
H20   H     H_    0.822730 0.690322 0.020806 0.249521
N1    N     N_2   0.954190 0.457600 0.473930 -0.107479
N2    N     N_2   0.045810 0.542400 0.526070 -0.107061
N3    N     N_2   0.261479 0.467894 0.058867 -0.305932
N4    N     N_2   0.728854 0.487342 0.936805 -0.312393
O1    O     O_R   0.388300 0.738660 0.506400 -0.635580
O2    O     O_R   0.611700 0.261340 0.493600 -0.638868
O3    O     O_R   0.679920 0.711490 0.489690 -0.637416
O4    O     O_R   0.320080 0.288510 0.510310 -0.640410
O5    O     O_R   0.333200 0.515510 0.649910 -0.636828
O6    O     O_R   0.666800 0.484490 0.350090 -0.631343
O7    O     O_R   0.624820 0.488340 0.633200 -0.627481
O8    O     O_R   0.375180 0.511660 0.366800 -0.621761
Zn1   Zn    Zn3+2 0.305280 0.518140 0.511160 0.909181
Zn2   Zn    Zn3+2 0.694720 0.481860 0.488840 0.909717

loop_
_geom_bond_atom_site_label_1
_geom_bond_atom_site_label_2
_ccdc_geom_bond_type
C2    C22   T    
C21   O6    A    
C14   N2    S    
C5    H16   S    
C13   H7    S    
C6    H19   S    
O5    Zn1   S    
C4    C12   S    
C11   C13   A    
C9    C10   A    
C15   H8    S    
N1    N2    D    
C20   C23   S    
C7    C13   A    
N1    Zn2   S    
C3    H1    S    
C17   C18   A    
C5    H17   S    
C7    C8    A    
C12   O4    A    
C21   C22   S    
C6    N4    S    
C2    C24   S    
C1    O1    A    
C5    N3    S    
C19   H13   S    
C9    H4    S    
C20   O5    A    
C8    H3    S    
C10   H5    S    
C17   H10   S    
O3    Zn2   S    
C4    H12   S    
C11   H6    S    
O4    Zn1   S    
C16   H9    S    
C24   N4    S    
C25   N3    S    
O8    Zn1   S    
O1    Zn1   S    
C10   C11   A    
H14   N3    S    
C21   O8    A    
C24   C25   D    
N2    Zn1   S    
O2    Zn2   S    
C18   C19   A    
C23   C26   T    
H18   N4    S    
C20   O7    A    
C1    O3    A    
C14   C15   A    
C16   C17   A    
O7    Zn2   S    
C5    H15   S    
C6    H20   S    
C12   O2    A    
C25   C26   S    
C14   C19   A    
C18   H11   S    
C15   C16   A    
C6    H2    S    
C3    C4    D    
O6    Zn2   S    
C8    C9    A    
C1    C3    S    
C7    N1    S    
