data_mof_unit_33428.cif
_audit_creation_date              2012-12-10T16:58:30-0500
_audit_creation_method            fapswitch 2.2
_symmetry_space_group_name_H-M    P1
_symmetry_Int_Tables_number       1
_space_group_crystal_system       triclinic
_cell_length_a                    7.743363
_cell_length_b                    8.551115
_cell_length_c                    23.430296
_cell_angle_alpha                 91.104419
_cell_angle_beta                  85.482877
_cell_angle_gamma                 93.736108
_cell_volume                      1543.16084029

loop_
_atom_site_label
_atom_site_type_symbol
_atom_type_description
_atom_site_fract_x
_atom_site_fract_y
_atom_site_fract_z
_atom_type_partial_charge
Br1   Br    Br    0.757995 0.944420 0.065276 -0.283150
Br2   Br    Br    0.241872 0.055717 0.934726 -0.283151
Br3   Br    Br    0.201445 0.678812 0.814774 -0.294440
Br4   Br    Br    0.798593 0.321350 0.185209 -0.294472
C1    C     C_R   0.545940 0.794869 0.498504 0.964728
C2    C     C_R   0.618010 0.406074 0.292387 0.381334
C3    C     C_R   0.380433 0.583830 0.766938 0.318980
C4    C     C_R   0.619585 0.416280 0.233054 0.318973
C5    C     C_R   0.510687 0.506788 0.791189 0.108794
C6    C     C_R   0.489299 0.493301 0.208811 0.108805
C7    C     C_2   0.570245 0.958351 0.497624 -0.365706
C8    C     C_2   0.429755 0.041649 0.502376 -0.365703
C9    C     C_R   0.502553 0.505413 0.610561 0.891271
C10   C     C_R   0.497447 0.494591 0.389438 0.891278
C11   C     C_R   0.423817 0.368248 0.120252 0.648970
C12   C     C_R   0.454060 0.205131 0.501496 0.964741
C13   C     C_R   0.576150 0.631846 0.879749 0.648959
C14   C     C_R   0.549210 0.630692 0.120636 0.614637
C15   C     C_R   0.450720 0.369413 0.879366 0.614634
C16   C     C_R   0.560517 0.635324 0.060396 -0.114279
C17   C     C_R   0.439401 0.364786 0.939606 -0.114275
C18   C     C_R   0.496526 0.500423 0.030153 -0.119542
C19   C     C_R   0.503400 0.499684 0.969849 -0.119540
C20   C     C_R   0.428088 0.365128 0.060263 -0.086465
C21   C     C_R   0.571849 0.634975 0.939738 -0.086475
C22   C     C_R   0.633715 0.768376 0.029618 0.179583
C23   C     C_R   0.639664 0.436399 0.756722 -0.083209
C24   C     C_R   0.366187 0.231740 0.970384 0.179569
C25   C     C_R   0.631638 0.770272 0.969703 0.426513
C26   C     C_R   0.368278 0.229837 0.030299 0.426516
C27   C     C_R   0.360305 0.563648 0.243284 -0.083211
C28   C     C_R   0.637567 0.439261 0.697712 -0.223320
C29   C     C_R   0.362409 0.560758 0.302294 -0.223317
C30   C     C_R   0.507973 0.515177 0.672627 -0.220609
C31   C     C_R   0.492030 0.484857 0.327372 -0.220615
C32   C     C_R   0.382021 0.594008 0.707604 0.381335
H1    H     H_    0.740068 0.377622 0.775879 0.193047
H2    H     H_    0.337333 0.003282 0.037557 0.354252
H3    H     H_    0.316627 0.735201 0.650709 0.339153
H4    H     H_    0.683449 0.264854 0.349266 0.339162
H5    H     H_    0.259875 0.622410 0.224134 0.193044
H6    H     H_    0.735577 0.379554 0.671694 0.197401
H7    H     H_    0.264377 0.620430 0.328316 0.197406
H8    H     H_    0.702857 0.009584 0.493069 0.184475
H9    H     H_    0.297143 0.990416 0.506931 0.184476
H10   H     H_    0.014236 0.382445 0.456804 0.203692
H11   H     H_    0.985763 0.617555 0.543196 0.203697
H12   H     H_    0.662540 0.996827 0.962442 0.354244
N1    N     N_R   0.486052 0.498072 0.148238 -0.366533
N2    N     N_R   0.513909 0.502024 0.851763 -0.366532
N3    N     N_2   0.950330 0.457950 0.484560 -0.168207
N4    N     N_2   0.049670 0.542050 0.515440 -0.168205
O1    O     O_R   0.389250 0.738570 0.503790 -0.618913
O2    O     O_2   0.641711 0.756810 0.848903 -0.411498
O3    O     O_2   0.598481 0.756623 0.152248 -0.450661
O4    O     O_2   0.401435 0.243487 0.847756 -0.450664
O5    O     O_3   0.692043 0.902598 0.939451 -0.629276
O6    O     O_3   0.307863 0.097515 0.060551 -0.629279
O7    O     O_3   0.261491 0.683231 0.685563 -0.698012
O8    O     O_3   0.738572 0.316869 0.314420 -0.698012
O9    O     O_R   0.610750 0.261430 0.496210 -0.618911
O10   O     O_R   0.678390 0.711620 0.493890 -0.625784
O11   O     O_R   0.321610 0.288380 0.506110 -0.625783
O12   O     O_R   0.355400 0.513520 0.588790 -0.595345
O13   O     O_R   0.644600 0.486480 0.411210 -0.595350
O14   O     O_R   0.644550 0.486570 0.578900 -0.622748
O15   O     O_R   0.355450 0.513430 0.421100 -0.622750
O16   O     O_2   0.358292 0.243271 0.151098 -0.411492
Zn1   Zn    Zn3+2 0.306930 0.518000 0.506610 0.970882
Zn2   Zn    Zn3+2 0.693070 0.482000 0.493390 0.970879

loop_
_geom_bond_atom_site_label_1
_geom_bond_atom_site_label_2
_ccdc_geom_bond_type
C13   N2    A    
C15   O4    S    
C2    C4    A    
C7    C8    D    
C27   C29   A    
H11   N4    S    
H4    O8    S    
N3    Zn2   S    
C3    C32   A    
C30   C32   A    
Br4   C4    S    
C32   O7    S    
H3    O7    S    
C24   C26   A    
O1    Zn1   S    
C7    H8    S    
O9    Zn2   S    
O12   Zn1   S    
C13   C21   A    
C13   O2    S    
C15   N2    A    
O10   Zn2   S    
O14   Zn2   S    
C9    O12   A    
C16   C22   A    
C14   O3    S    
C23   H1    S    
C8    C12   S    
C11   O16   S    
C26   O6    S    
C1    O1    A    
C11   C20   A    
C12   O11   A    
C10   O13   A    
C25   O5    S    
C1    O10   A    
C1    C7    S    
Br3   C3    S    
C14   C16   A    
C9    O14   A    
C11   N1    A    
H10   N3    S    
C21   C25   A    
Br1   C22   S    
C17   C19   A    
C18   C20   A    
C20   C26   A    
C12   O9    A    
C10   O15   A    
O13   Zn2   S    
C29   H7    S    
C2    O8    S    
H12   O5    S    
C19   C21   A    
N3    N4    D    
C2    C31   A    
C5    C23   A    
C22   C25   A    
C4    C6    A    
C9    C30   S    
O15   Zn1   S    
C10   C31   S    
C3    C5    A    
C28   H6    S    
C18   C19   A    
Br2   C24   S    
N4    Zn1   S    
C27   H5    S    
C29   C31   A    
C23   C28   A    
H2    O6    S    
C6    N1    S    
C6    C27   A    
C17   C24   A    
C5    N2    S    
O11   Zn1   S    
C14   N1    A    
C16   C18   A    
C8    H9    S    
C15   C17   A    
C28   C30   A    
