data_mof_unit_28937.cif
_audit_creation_date              2012-12-10T17:44:33-0500
_audit_creation_method            fapswitch 2.2
_symmetry_space_group_name_H-M    P1
_symmetry_Int_Tables_number       1
_space_group_crystal_system       triclinic
_cell_length_a                    9.892532
_cell_length_b                    10.732894
_cell_length_c                    15.636184
_cell_angle_alpha                 91.3398
_cell_angle_beta                  69.042144
_cell_angle_gamma                 88.19118
_cell_volume                      1548.50639664

loop_
_atom_site_label
_atom_site_type_symbol
_atom_type_description
_atom_site_fract_x
_atom_site_fract_y
_atom_site_fract_z
_atom_type_partial_charge
C1    C     C_R   0.497370 0.740884 0.498870 0.853331
C2    C     C_R   0.434345 0.435364 0.902634 -0.020543
C3    C     C_R   0.288533 0.413129 0.956021 0.119605
C4    C     C_R   0.536329 0.458090 0.945369 0.061499
C5    C     C_R   0.492290 0.446981 0.041173 0.062833
C6    C     C_R   0.354716 0.399407 0.089281 -0.186031
C7    C     C_R   0.251870 0.388722 0.048315 -0.254096
C8    C     C_R   0.676837 0.500239 0.896835 -0.179478
C9    C     C_R   0.775925 0.517920 0.939878 -0.255385
C10   C     C_R   0.733075 0.508253 0.034279 0.123958
C11   C     C_R   0.587477 0.483214 0.085964 -0.034825
C12   C     C_R   0.411713 0.490388 0.674231 0.864332
C13   C     C_R   0.831009 0.530848 0.078697 -0.224410
C14   C     C_R   0.786681 0.523287 0.173437 -0.283653
C15   C     C_R   0.538583 0.506992 0.180979 0.412578
C16   C     C_R   0.218505 0.901719 0.538229 -0.195102
C17   C     C_R   0.090314 0.972652 0.581629 -0.157152
C18   C     C_R   0.094369 0.089214 0.620616 -0.146051
C19   C     C_R   0.227448 0.139746 0.608079 -0.154176
C20   C     C_R   0.358266 0.073130 0.556230 0.100173
C21   C     C_R   0.354905 0.947155 0.531963 0.102531
C22   C     C_R   0.489048 0.875550 0.501097 -0.119253
C23   C     C_R   0.497024 0.261527 0.508837 0.865398
C24   C     C_R   0.620707 0.933788 0.482147 -0.216701
C25   C     C_R   0.622599 0.060690 0.490553 -0.226745
C26   C     C_R   0.492320 0.130532 0.523789 -0.135297
C27   C     C_R   0.783887 0.655231 0.627540 -0.108073
C28   C     C_R   0.814223 0.722758 0.694979 -0.240743
C29   C     C_R   0.953146 0.719025 0.696684 -0.205490
C30   C     C_R   0.062727 0.648631 0.630188 -0.182955
C31   C     C_R   0.034042 0.573756 0.564060 0.130360
C32   C     C_R   0.889771 0.575326 0.563332 0.190553
C33   C     C_R   0.965319 0.428359 0.439135 -0.148986
C34   C     C_R   0.588952 0.504014 0.324927 0.902249
C35   C     C_R   0.108689 0.428797 0.438902 -0.075192
C36   C     C_R   0.365281 0.458607 0.770391 -0.173780
C37   C     C_R   0.639893 0.510581 0.225204 -0.160994
C38   C     C_R   0.183099 0.412324 0.915157 -0.221746
C39   C     C_R   0.219535 0.445134 0.824089 -0.291613
C40   C     C_R   0.472594 0.431644 0.807727 0.415900
H1    H     H_    0.143737 0.361499 0.088895 0.151806
H2    H     H_    0.941445 0.553966 0.040544 0.155063
H3    H     H_    0.723769 0.881538 0.457586 0.170710
H4    H     H_    0.206551 0.816101 0.505506 0.177976
H5    H     H_    0.987567 0.936541 0.585304 0.153495
H6    H     H_    0.994883 0.142637 0.657221 0.143246
H7    H     H_    0.227406 0.231748 0.638002 0.151310
H8    H     H_    0.726328 0.104245 0.467813 0.167231
H9    H     H_    0.941394 0.369797 0.389543 0.144091
H10   H     H_    0.677058 0.669992 0.627567 0.200485
H11   H     H_    0.729648 0.779902 0.745209 0.161573
H12   H     H_    0.977496 0.774878 0.747491 0.161489
H13   H     H_    0.169434 0.659006 0.630157 0.212143
H14   H     H_    0.192758 0.370601 0.389044 0.167020
H15   H     H_    0.865454 0.533513 0.206330 0.180104
H16   H     H_    0.884090 0.545568 0.899811 0.152180
H17   H     H_    0.072631 0.390224 0.954031 0.156625
H18   H     H_    0.135789 0.454341 0.794857 0.181005
H19   H     H_    0.323860 0.371267 0.159325 0.195630
H20   H     H_    0.712369 0.524014 0.825914 0.219623
N1    N     N_R   0.856800 0.501200 0.500850 -0.121197
N2    N     N_R   0.142390 0.501280 0.500880 -0.131122
O1    O     O_R   0.385310 0.683220 0.500000 -0.661288
O2    O     O_R   0.614640 0.683250 0.500010 -0.639183
O3    O     O_R   0.319840 0.499980 0.632240 -0.651389
O4    O     O_R   0.549160 0.500000 0.632250 -0.588359
O5    O     O_R   0.385360 0.316750 0.499990 -0.614995
O6    O     O_R   0.614690 0.316780 0.500000 -0.628440
O7    O     O_R   0.450840 0.500000 0.367750 -0.560538
O8    O     O_R   0.680160 0.500020 0.367760 -0.622365
Zn1   Zn    Zn3+2 0.346880 0.499980 0.499990 0.927102
Zn2   Zn    Zn3+2 0.653120 0.500020 0.500010 0.934770
O9    O     O_3   0.392840 0.534668 0.230202 -0.653443
C41   C     C_3   0.354024 0.657549 0.213468 0.082526
H21   H     H_    0.246419 0.654974 0.206224 0.162620
H22   H     H_    0.429456 0.696145 0.148882 0.126011
C42   C     C_3   0.341184 0.744868 0.294986 -0.303790
H23   H     H_    0.262728 0.707497 0.358405 0.239586
H24   H     H_    0.448327 0.749358 0.302697 0.211587
C43   C     C_3   0.289705 0.876312 0.282374 -0.993129
H25   H     H_    0.366611 0.915507 0.219186 0.269129
H26   H     H_    0.283790 0.937680 0.341851 0.277028
H27   H     H_    0.180342 0.874885 0.277679 0.263735
O10   O     O_3   0.612378 0.393531 0.751828 -0.654625
C44   C     C_3   0.616727 0.266128 0.724907 0.134929
H28   H     H_    0.703420 0.252236 0.656295 0.173897
H29   H     H_    0.514598 0.236370 0.716889 0.112143
C45   C     C_3   0.654788 0.183532 0.792247 -0.372205
H30   H     H_    0.759151 0.211719 0.796944 0.228943
H31   H     H_    0.569307 0.195526 0.861398 0.227570
C46   C     C_3   0.667847 0.046330 0.761894 -0.983679
H32   H     H_    0.562515 0.014943 0.760794 0.270529
H33   H     H_    0.699309 0.989810 0.810886 0.265430
H34   H     H_    0.751692 0.031131 0.692475 0.262575

loop_
_geom_bond_atom_site_label_1
_geom_bond_atom_site_label_2
_ccdc_geom_bond_type
C16   C21   A    
C34   C37   S    
O9    C41   S    
C40   O10   S    
C19   C20   A    
C4    C8    A    
C44   H28   S    
C41   H22   S    
C5    C6    A    
C28   C29   A    
C17   H5    S    
C32   N1    A    
C5    C11   A    
C3    C7    A    
C38   C39   A    
C28   H11   S    
C19   H7    S    
C44   C45   S    
C33   H9    S    
C1    O1    A    
C18   C19   A    
C23   C26   S    
C23   O5    A    
O7    Zn1   S    
C15   C37   A    
C11   C15   A    
O4    Zn2   S    
C3    C38   A    
C16   C17   A    
C41   C42   S    
C12   C36   S    
C9    C10   A    
C34   O8    A    
C27   H10   S    
C42   H23   S    
C45   H30   S    
C44   H29   S    
C14   H15   S    
C1    C22   S    
C21   C22   A    
C35   H14   S    
C31   N2    A    
C43   H27   S    
C18   H6    S    
C13   H2    S    
C42   H24   S    
C30   H13   S    
C41   H21   S    
C36   C40   A    
O10   C44   S    
C43   H26   S    
C46   H32   S    
C8    C9    A    
C25   C26   A    
O3    Zn1   S    
C39   H18   S    
C12   O4    A    
C23   O6    A    
C2    C4    A    
C29   C30   A    
C46   H33   S    
C38   H17   S    
C31   C32   A    
C25   H8    S    
C45   C46   S    
O6    Zn2   S    
C17   C18   A    
C9    H16   S    
C24   C25   A    
C34   O7    A    
N1    Zn2   S    
C15   O9    S    
C45   H31   S    
C22   C24   A    
C1    O2    A    
C42   C43   S    
C16   H4    S    
C27   C32   A    
C6    H19   S    
C36   C39   A    
O1    Zn1   S    
C43   H25   S    
C10   C13   A    
C6    C7    A    
C12   O3    A    
C2    C3    A    
C8    H20   S    
C14   C37   A    
C30   C31   A    
C20   C26   A    
C33   C35   A    
N2    Zn1   S    
C35   N2    A    
O5    Zn1   S    
O2    Zn2   S    
C7    H1    S    
C10   C11   A    
C2    C40   A    
C4    C5    A    
C20   C21   A    
C33   N1    A    
C27   C28   A    
C24   H3    S    
O8    Zn2   S    
C13   C14   A    
C46   H34   S    
C29   H12   S    
