data_mof_unit_14225.cif
_audit_creation_date              2012-12-10T17:16:42-0500
_audit_creation_method            fapswitch 2.2
_symmetry_space_group_name_H-M    P1
_symmetry_Int_Tables_number       1
_space_group_crystal_system       triclinic
_cell_length_a                    10.2179
_cell_length_b                    10.712441
_cell_length_c                    10.82974
_cell_angle_alpha                 91.176196
_cell_angle_beta                  94.546876
_cell_angle_gamma                 81.492512
_cell_volume                      1168.62892395

loop_
_atom_site_label
_atom_site_type_symbol
_atom_type_description
_atom_site_fract_x
_atom_site_fract_y
_atom_site_fract_z
_atom_type_partial_charge
C1    C     C_R   0.445566 0.510553 0.267488 0.910420
C2    C     C_R   0.500666 0.739376 0.501786 0.823229
C3    C     C_R   0.556644 0.117840 0.281405 -0.156598
C4    C     C_R   0.446172 0.886068 0.721434 -0.150249
C5    C     C_R   0.588521 0.046861 0.175900 0.479310
C6    C     C_R   0.414983 0.958356 0.827007 0.506194
C7    C     C_R   0.586276 0.916745 0.176646 -0.227716
C8    C     C_R   0.414781 0.088688 0.824782 -0.241649
C9    C     C_R   0.553884 0.859480 0.282168 -0.165009
C10   C     C_R   0.445181 0.145211 0.718669 -0.183729
C11   C     C_R   0.528734 0.929481 0.392046 0.067822
C12   C     C_R   0.554611 0.494896 0.732585 0.894986
C13   C     C_R   0.471428 0.073550 0.609426 0.079586
C14   C     C_R   0.528961 0.059777 0.391333 -0.011251
C15   C     C_R   0.472143 0.943004 0.610634 -0.024196
C16   C     C_R   0.500856 0.872548 0.501686 -0.109152
C17   C     C_R   0.499482 0.129431 0.499854 -0.112097
C18   C     C_1   0.702531 0.427067 0.919941 0.199207
C19   C     C_1   0.297946 0.484903 0.078044 0.176966
C20   C     C_2   0.418544 0.524779 0.135026 -0.260142
C21   C     C_2   0.582359 0.501429 0.865416 -0.272889
C22   C     C_2   0.510450 0.566258 0.068802 0.320653
C23   C     C_2   0.491294 0.569284 0.933978 0.327891
C24   C     C_2   0.070893 0.506225 0.474193 0.626218
C25   C     C_2   0.924281 0.524623 0.494119 0.510540
C26   C     C_R   0.499572 0.261329 0.499287 0.842204
H1    H     H_    0.392716 0.146630 0.905790 0.177080
H2    H     H_    0.674532 0.638187 0.063815 0.329815
H3    H     H_    0.808640 0.608780 0.610742 0.369600
H4    H     H_    0.042347 0.452952 0.303715 0.346315
H5    H     H_    0.821606 0.292863 0.376927 0.387883
H6    H     H_    0.194265 0.631942 0.700614 0.403594
H7    H     H_    0.607804 0.860097 0.094932 0.177818
H8    H     H_    0.554478 0.218738 0.275466 0.160431
H9    H     H_    0.449759 0.785264 0.727240 0.195036
H10   H     H_    0.548045 0.760154 0.276814 0.209523
H11   H     H_    0.447896 0.245584 0.724169 0.166546
H12   H     H_    0.644304 0.043791 0.008538 0.338530
H13   H     H_    0.360651 0.963820 0.995083 0.336859
H14   H     H_    0.324776 0.683447 0.943237 0.372702
N1    N     N_2   0.157300 0.551390 0.551120 0.025185
N2    N     N_2   0.842700 0.448610 0.448880 -0.015873
N3    N     N_1   0.798317 0.367663 0.963404 -0.107255
N4    N     N_1   0.201811 0.452968 0.032664 -0.129718
O1    O     O_R   0.568940 0.489660 0.307530 -0.554058
O2    O     O_3   0.385938 0.899185 0.930998 -0.783305
O3    O     O_3   0.377750 0.639139 0.878404 -0.747115
O4    O     O_3   0.625638 0.601617 0.126300 -0.754963
O5    O     O_3   0.876354 0.631498 0.558786 -0.725177
O6    O     O_3   0.116747 0.446026 0.368836 -0.736407
O7    O     O_3   0.897472 0.337429 0.403078 -0.696512
O8    O     O_3   0.114988 0.603657 0.657119 -0.657625
O9    O     O_R   0.431060 0.510340 0.692470 -0.570053
O10   O     O_R   0.348880 0.522640 0.340350 -0.574615
O11   O     O_R   0.651120 0.477360 0.659650 -0.648208
O12   O     O_R   0.610030 0.300280 0.483580 -0.631765
O13   O     O_R   0.389970 0.699720 0.516420 -0.612343
O14   O     O_R   0.389970 0.333270 0.516400 -0.585323
O15   O     O_R   0.610030 0.666730 0.483600 -0.606953
O16   O     O_3   0.620421 0.107580 0.073761 -0.772083
Zn1   Zn    Zn3+2 0.646940 0.477980 0.478080 1.011155
Zn2   Zn    Zn3+2 0.353060 0.522020 0.521920 1.050731

loop_
_geom_bond_atom_site_label_1
_geom_bond_atom_site_label_2
_ccdc_geom_bond_type
C25   N2    D    
O14   Zn2   S    
C9    H10   S    
C22   O4    S    
C1    O10   A    
C5    O16   S    
H14   O3    S    
C18   C21   S    
C2    C16   S    
C11   C16   A    
N1    O8    S    
H13   O2    S    
C19   C20   S    
N2    Zn1   S    
C13   C17   A    
N2    O7    S    
C4    C15   A    
C21   C23   D    
H4    O6    S    
C2    O13   A    
O13   Zn2   S    
H3    O5    S    
C18   N3    T    
C19   N4    T    
C24   N1    D    
C9    C11   A    
C14   C17   A    
C1    O1    A    
C3    C14   A    
N1    Zn2   S    
C10   H11   S    
H12   O16   S    
C17   C26   S    
O11   Zn1   S    
O1    Zn1   S    
C2    O15   A    
C20   C22   D    
C13   C15   A    
C24   O6    S    
C11   C14   A    
C25   O5    S    
C4    H9    S    
C12   O11   A    
C23   O3    S    
C7    H7    S    
C15   C16   A    
C7    C9    A    
C24   C25   S    
C4    C6    A    
O9    Zn2   S    
O15   Zn1   S    
C5    C7    A    
C8    H1    S    
O12   Zn1   S    
H2    O4    S    
C1    C20   S    
C6    C8    A    
C6    O2    S    
C3    H8    S    
C22   C23   S    
O10   Zn2   S    
C12   C21   S    
C26   O14   A    
C8    C10   A    
H6    O8    S    
C12   O9    A    
H5    O7    S    
C3    C5    A    
C10   C13   A    
C26   O12   A    
