data_mof_unit_33429.cif
_audit_creation_date              2012-12-11T15:37:35-0500
_audit_creation_method            fapswitch 2.2
_symmetry_space_group_name_H-M    P1
_symmetry_Int_Tables_number       1
_space_group_crystal_system       triclinic
_cell_length_a                    17.42818
_cell_length_b                    24.276231
_cell_length_c                    14.875959
_cell_angle_alpha                 90.000357
_cell_angle_beta                  125.854764
_cell_angle_gamma                 89.999913
_cell_volume                      5101.21484599

loop_
_atom_site_label
_atom_site_type_symbol
_atom_type_description
_atom_site_fract_x
_atom_site_fract_y
_atom_site_fract_z
_atom_type_partial_charge
C1    C     C_R   0.852670 0.653250 0.909284 -0.131649
C2    C     C_R   0.190981 0.375581 0.092159 -0.136302
C3    C     C_R   0.149998 0.652491 0.090922 -0.132074
C4    C     C_R   0.810640 0.372957 0.906551 -0.140588
C5    C     C_R   0.350004 0.152492 0.909077 -0.132080
C6    C     C_R   0.689363 0.872962 0.093448 -0.140587
C7    C     C_R   0.647330 0.153248 0.090717 -0.131645
C8    C     C_R   0.309022 0.875577 0.907842 -0.136309
C9    C     C_3   0.407908 0.499418 0.438279 0.191093
C10   C     C_3   0.590609 0.499621 0.563344 0.190791
C11   C     C_3   0.909398 0.999630 0.436650 0.190790
C12   C     C_3   0.092098 0.999410 0.561714 0.191098
C13   C     C_R   0.661187 0.309549 0.896952 -0.170319
C14   C     C_R   0.212253 0.767115 0.099376 -0.169175
C15   C     C_R   0.341203 0.314026 0.100230 -0.167082
C16   C     C_R   0.793612 0.768347 0.902747 -0.169860
C17   C     C_R   0.158804 0.814024 0.899779 -0.167095
C18   C     C_R   0.706414 0.268336 0.097266 -0.169858
C19   C     C_R   0.838818 0.809551 0.103055 -0.170322
C20   C     C_R   0.287765 0.267119 0.900631 -0.169170
C21   C     C_R   0.111912 0.767643 0.898576 -0.171592
C22   C     C_R   0.758986 0.311132 0.097766 -0.170945
C23   C     C_R   0.890986 0.766591 0.103566 -0.171923
C24   C     C_R   0.240304 0.313069 0.899552 -0.170841
C25   C     C_R   0.609018 0.266590 0.896443 -0.171924
C26   C     C_R   0.259709 0.813065 0.100456 -0.170851
C27   C     C_R   0.388103 0.267649 0.101430 -0.171576
C28   C     C_R   0.741037 0.811142 0.902243 -0.170948
C29   C     C_R   0.144719 0.740884 0.998359 0.142087
C30   C     C_R   0.743047 0.327460 0.997960 0.145811
C31   C     C_R   0.861504 0.741892 0.003139 0.141781
C32   C     C_R   0.260021 0.332861 0.999333 0.142717
C33   C     C_R   0.638510 0.241887 0.996869 0.141782
C34   C     C_R   0.239989 0.832856 0.000674 0.142731
C35   C     C_R   0.355302 0.240891 0.001645 0.142071
C36   C     C_R   0.756965 0.827464 0.002045 0.145809
C37   C     C_R   0.887304 0.451699 0.460747 -0.173222
C38   C     C_R   0.901726 0.551661 0.379295 -0.170642
C39   C     C_R   0.897032 0.451930 0.375021 -0.170671
C40   C     C_R   0.891290 0.551452 0.464347 -0.172959
C41   C     C_R   0.602953 0.951931 0.624967 -0.170672
C42   C     C_R   0.608699 0.051452 0.535647 -0.172956
C43   C     C_R   0.612684 0.951699 0.539243 -0.173231
C44   C     C_R   0.598263 0.051661 0.620698 -0.170645
C45   C     C_R   0.915986 0.501722 0.343948 0.146348
C46   C     C_R   0.896049 0.501335 0.514111 0.141206
C47   C     C_R   0.603940 0.001335 0.485881 0.141211
C48   C     C_R   0.583999 0.001722 0.656041 0.146349
C49   C     C_R   0.908038 0.368434 0.091636 -0.127294
C50   C     C_R   0.057180 0.650693 0.906042 -0.124120
C51   C     C_R   0.096192 0.376304 0.906083 -0.125606
C52   C     C_R   0.946478 0.651671 0.093673 -0.140522
C53   C     C_R   0.403815 0.876299 0.093918 -0.125607
C54   C     C_R   0.553530 0.151668 0.906328 -0.140519
C55   C     C_R   0.591965 0.868435 0.908364 -0.127296
C56   C     C_R   0.442829 0.150697 0.093958 -0.124114
C57   C     C_R   0.986526 0.547197 0.254855 -0.131446
C58   C     C_R   0.947282 0.454446 0.693395 -0.139673
C59   C     C_R   0.949522 0.546503 0.695184 -0.125996
C60   C     C_R   0.995057 0.454927 0.265885 -0.125050
C61   C     C_R   0.550470 0.046504 0.304812 -0.126005
C62   C     C_R   0.504935 0.954927 0.734110 -0.125067
C63   C     C_R   0.513464 0.047197 0.745137 -0.131441
C64   C     C_R   0.552713 0.954446 0.306602 -0.139660
C65   C     C_R   0.742396 0.454741 0.696400 0.005986
C66   C     C_R   0.258282 0.545170 0.302771 0.017836
C67   C     C_R   0.256755 0.454624 0.304083 0.001886
C68   C     C_R   0.740741 0.545256 0.698273 0.021268
C69   C     C_R   0.243251 0.954620 0.695915 0.001899
C70   C     C_R   0.759260 0.045260 0.301721 0.021299
C71   C     C_R   0.757609 0.954746 0.303600 0.005966
C72   C     C_R   0.241720 0.045167 0.697225 0.017809
C73   C     C_R   0.885614 0.684495 0.002422 0.050656
C74   C     C_R   0.187043 0.363052 0.998701 0.045368
C75   C     C_R   0.119737 0.683274 0.997786 0.043532
C76   C     C_R   0.816802 0.356489 0.999199 0.047742
C77   C     C_R   0.380275 0.183278 0.002214 0.043534
C78   C     C_R   0.683202 0.856493 0.000801 0.047740
C79   C     C_R   0.614394 0.184491 0.997582 0.050658
C80   C     C_R   0.312964 0.863046 0.001302 0.045373
C81   C     C_R   0.962324 0.501312 0.288470 0.045925
C82   C     C_R   0.930097 0.500737 0.629777 0.054054
C83   C     C_R   0.569893 0.000737 0.370217 0.054051
C84   C     C_R   0.537662 0.001311 0.711519 0.045935
C85   C     C_R   0.692156 0.500050 0.635886 0.013491
C86   C     C_R   0.306333 0.499876 0.365451 0.016402
C87   C     C_R   0.193674 0.999871 0.634542 0.016412
C88   C     C_R   0.807851 0.000056 0.364107 0.013481
C89   C     C_3   0.529870 0.454711 0.565804 -0.154932
C90   C     C_3   0.468783 0.544285 0.435945 -0.150431
C91   C     C_3   0.468960 0.453881 0.438150 -0.154631
C92   C     C_3   0.529474 0.545102 0.563418 -0.149904
C93   C     C_3   0.031034 0.953843 0.561735 -0.154638
C94   C     C_3   0.970545 0.045141 0.436684 -0.149898
C95   C     C_3   0.970123 0.954750 0.434082 -0.154932
C96   C     C_3   0.031236 0.044246 0.564156 -0.150440
C97   C     C_3   0.467199 0.500215 0.564161 -0.148697
C98   C     C_3   0.531322 0.498785 0.437467 -0.149100
C99   C     C_3   0.968685 0.998717 0.562525 -0.149112
C100  C     C_3   0.032807 0.000283 0.435832 -0.148681
H1    H     H_    0.816693 0.668392 0.825973 0.078578
H2    H     H_    0.249875 0.370513 0.177422 0.091120
H3    H     H_    0.186211 0.667618 0.174272 0.079844
H4    H     H_    0.751467 0.369021 0.821205 0.090923
H5    H     H_    0.313786 0.167616 0.825724 0.079841
H6    H     H_    0.748541 0.869032 0.178794 0.090915
H7    H     H_    0.683293 0.168393 0.174026 0.078576
H8    H     H_    0.250131 0.870507 0.822580 0.091134
H9    H     H_    0.940060 0.353652 0.174452 0.082292
H10   H     H_    0.011136 0.663920 0.820634 0.080264
H11   H     H_    0.068108 0.371109 0.819955 0.092603
H12   H     H_    0.994808 0.665247 0.178553 0.080159
H13   H     H_    0.431904 0.871099 0.180046 0.092601
H14   H     H_    0.505207 0.165242 0.821448 0.080158
H15   H     H_    0.559945 0.853652 0.825549 0.082294
H16   H     H_    0.488879 0.163926 0.179366 0.080258
H17   H     H_    0.975064 0.589960 0.263005 0.093136
H18   H     H_    0.928139 0.412469 0.664601 0.084401
H19   H     H_    0.933457 0.588982 0.669069 0.080007
H20   H     H_    0.999972 0.413938 0.295926 0.082763
H21   H     H_    0.566531 0.088983 0.330926 0.080009
H22   H     H_    0.500018 0.913937 0.704068 0.082764
H23   H     H_    0.524919 0.089959 0.736982 0.093132
H24   H     H_    0.571857 0.912469 0.335396 0.084407
H25   H     H_    0.438327 0.500781 0.613741 0.119340
H26   H     H_    0.560254 0.498213 0.387947 0.120690
H27   H     H_    0.939753 0.998092 0.612045 0.120691
H28   H     H_    0.061679 0.000903 0.386253 0.119336
H29   H     H_    0.555337 0.418024 0.620591 0.106466
H30   H     H_    0.443646 0.581186 0.381783 0.114102
H31   H     H_    0.443894 0.416441 0.385449 0.105696
H32   H     H_    0.554065 0.582700 0.615583 0.113894
H33   H     H_    0.056079 0.916370 0.614340 0.105688
H34   H     H_    0.945975 0.082771 0.384616 0.113887
H35   H     H_    0.944634 0.918097 0.379201 0.106477
H36   H     H_    0.056393 0.081113 0.618412 0.114108
H37   H     H_    0.642099 0.324225 0.817779 0.102347
H38   H     H_    0.235730 0.749856 0.178519 0.104502
H39   H     H_    0.363198 0.330994 0.179116 0.102332
H40   H     H_    0.773493 0.752905 0.823601 0.103905
H41   H     H_    0.136798 0.830998 0.820896 0.102346
H42   H     H_    0.726545 0.252890 0.176416 0.103901
H43   H     H_    0.857898 0.824219 0.182227 0.102345
H44   H     H_    0.264290 0.249857 0.821488 0.104499
H45   H     H_    0.056161 0.750447 0.819212 0.104667
H46   H     H_    0.817078 0.327483 0.176770 0.103021
H47   H     H_    0.947110 0.749432 0.182740 0.104814
H48   H     H_    0.182183 0.328999 0.820189 0.107670
H49   H     H_    0.552884 0.249435 0.817269 0.104813
H50   H     H_    0.317826 0.828998 0.179821 0.107671
H51   H     H_    0.443850 0.250452 0.180795 0.104664
H52   H     H_    0.682951 0.827496 0.823240 0.103026
H53   H     H_    0.883575 0.412318 0.491834 0.106741
H54   H     H_    0.908318 0.591031 0.350570 0.107655
H55   H     H_    0.898980 0.412803 0.341673 0.103500
H56   H     H_    0.890735 0.590700 0.498161 0.106340
H57   H     H_    0.601005 0.912803 0.658313 0.103499
H58   H     H_    0.609258 0.090700 0.501836 0.106340
H59   H     H_    0.616415 0.912319 0.508157 0.106740
H60   H     H_    0.591675 0.091030 0.649428 0.107657
N1    N     N_R   0.892620 0.603790 0.941800 -0.038579
N2    N     N_R   0.107380 0.396210 0.058200 -0.043162
N3    N     N_R   0.107380 0.603790 0.058200 -0.039196
N4    N     N_R   0.892620 0.396210 0.941800 -0.041746
N5    N     N_R   0.392620 0.103790 0.941800 -0.039197
N6    N     N_R   0.607380 0.896210 0.058200 -0.041745
N7    N     N_R   0.607380 0.103790 0.058200 -0.038579
N8    N     N_R   0.392620 0.896210 0.941800 -0.043162
N9    N     N_R   0.952210 0.397600 0.057910 -0.039111
N10   N     N_R   0.047790 0.602400 0.942090 -0.037666
N11   N     N_R   0.047790 0.397600 0.942090 -0.041399
N12   N     N_R   0.952210 0.602400 0.057910 -0.036506
N13   N     N_R   0.452210 0.897600 0.057910 -0.041397
N14   N     N_R   0.547790 0.102400 0.942090 -0.036506
N15   N     N_R   0.547790 0.897600 0.942090 -0.039112
N16   N     N_R   0.452210 0.102400 0.057910 -0.037667
N17   N     N_R   0.026300 0.529110 0.206760 -0.041084
N18   N     N_R   0.973700 0.470890 0.793240 -0.038486
N19   N     N_R   0.973700 0.529110 0.793240 -0.038932
N20   N     N_R   0.026300 0.470890 0.206760 -0.038929
N21   N     N_R   0.526300 0.029110 0.206760 -0.038934
N22   N     N_R   0.473700 0.970890 0.793240 -0.038933
N23   N     N_R   0.473700 0.029110 0.793240 -0.041081
N24   N     N_R   0.526300 0.970890 0.206760 -0.038484
N25   N     N_R   0.818530 0.472270 0.792960 -0.056837
N26   N     N_R   0.181470 0.527730 0.207040 -0.059012
N27   N     N_R   0.181470 0.472270 0.207040 -0.058461
N28   N     N_R   0.818530 0.527730 0.792960 -0.058138
N29   N     N_R   0.318530 0.972270 0.792960 -0.058465
N30   N     N_R   0.681470 0.027730 0.207040 -0.058139
N31   N     N_R   0.681470 0.972270 0.207040 -0.056834
N32   N     N_R   0.318530 0.027730 0.792960 -0.059011
Ni1   Ni    Ni4+2 0.934150 0.565840 0.869060 0.200675
Ni2   Ni    Ni4+2 0.065850 0.434160 0.130940 0.204967
Ni3   Ni    Ni4+2 0.065850 0.565840 0.130940 0.201166
Ni4   Ni    Ni4+2 0.934150 0.434160 0.869060 0.203046
Ni5   Ni    Ni4+2 0.434150 0.065840 0.869060 0.201165
Ni6   Ni    Ni4+2 0.565850 0.934160 0.130940 0.203052
Ni7   Ni    Ni4+2 0.565850 0.065840 0.130940 0.200675
Ni8   Ni    Ni4+2 0.434150 0.934160 0.869060 0.204960
N33   N     N_3   0.739215 0.403644 0.646121 -0.216510
H61   H     H_    0.802865 0.382560 0.699806 0.103609
H62   H     H_    0.685288 0.379478 0.636330 0.080753
N34   N     N_3   0.265410 0.597746 0.350306 -0.216901
H63   H     H_    0.197202 0.613130 0.314138 0.101589
H64   H     H_    0.300678 0.624152 0.330467 0.084736
N35   N     N_3   0.258372 0.403632 0.353636 -0.213957
H65   H     H_    0.193045 0.383956 0.301040 0.108273
H66   H     H_    0.309678 0.378228 0.360117 0.080087
N36   N     N_3   0.731598 0.598263 0.651191 -0.218154
H67   H     H_    0.799197 0.613808 0.684616 0.095454
H68   H     H_    0.698474 0.624163 0.674730 0.085905
N37   N     N_3   0.241659 0.903633 0.646362 -0.213950
H69   H     H_    0.307005 0.883975 0.698943 0.108283
H70   H     H_    0.190387 0.878209 0.639912 0.080062
N38   N     N_3   0.768396 0.098266 0.348804 -0.218156
H71   H     H_    0.700794 0.113805 0.315388 0.095457
H72   H     H_    0.801505 0.124171 0.325252 0.085888
N39   N     N_3   0.760813 0.903645 0.353882 -0.216520
H73   H     H_    0.697186 0.882543 0.300182 0.103602
H74   H     H_    0.814776 0.879499 0.363711 0.080785
N40   N     N_3   0.234590 0.097744 0.649691 -0.216894
H75   H     H_    0.302799 0.113136 0.685886 0.101585
H76   H     H_    0.199294 0.124146 0.669505 0.084752

loop_
_geom_bond_atom_site_label_1
_geom_bond_atom_site_label_2
_ccdc_geom_bond_type
C16   C28   A    
C49   N9    A    
C6    N6    A    
C10   C85   S    
C21   C29   A    
N30   N31   A    
C41   C43   A    
N33   H61   S    
C20   H44   S    
C94   C100  S    
C59   C82   A    
C58   H18   S    
C68   N36   S    
C9    C91   S    
N6    Ni6   S    
N18   N19   A    
C53   N13   A    
C15   C32   A    
C96   H36   S    
C5    H5    S    
N37   H69   S    
C16   C31   A    
C40   C46   A    
N6    N15   A    
N23   Ni5   S    
C56   N16   A    
C25   H49   S    
C92   H32   S    
N38   H72   S    
C43   H59   S    
C19   C36   A    
C58   C82   A    
C32   C74   S    
C31   C73   S    
C91   H31   S    
C52   H12   S    
C11   C95   S    
C96   C99   S    
C14   H38   S    
C50   H10   S    
C71   N39   S    
N35   H66   S    
C11   C99   S    
C10   C98   S    
N3    N10   A    
C89   C97   S    
N22   N23   A    
C38   C45   A    
C62   C84   A    
C8    N8    A    
C34   C80   S    
C46   C82   S    
N1    N12   A    
C15   C27   A    
C26   C34   A    
N2    N11   A    
C22   H46   S    
C10   C89   S    
C53   H13   S    
N14   Ni5   S    
C92   C97   S    
C9    C97   S    
C4    N4    A    
C60   H20   S    
C47   C83   S    
C89   C91   S    
C3    C75   A    
C93   C99   S    
C69   C87   A    
C3    N3    A    
C39   C45   A    
C64   N24   A    
C66   N34   S    
C10   C92   S    
C93   C95   S    
C38   C40   A    
C100  H28   S    
N20   Ni2   S    
C68   C85   A    
N33   H62   S    
C2    N2    A    
N4    N9    A    
C16   H40   S    
C42   C44   A    
C8    H8    S    
N31   Ni6   S    
C18   C33   A    
C67   N27   A    
N30   Ni7   S    
C15   H39   S    
N37   H70   S    
C56   H16   S    
N8    N13   A    
N15   Ni8   S    
C65   N25   A    
C63   N23   A    
N35   H65   S    
C20   C24   A    
N26   Ni3   S    
C26   H50   S    
C53   C80   A    
N22   Ni8   S    
N38   H71   S    
C50   N10   A    
C52   C73   A    
C24   H48   S    
C69   N29   A    
N39   H73   S    
C55   C78   A    
C12   C96   S    
C95   C100  S    
C33   C79   S    
N25   N28   A    
C99   H27   S    
C27   C35   A    
N40   H76   S    
C64   H24   S    
N18   Ni4   S    
C35   C77   S    
C17   C21   A    
C56   C77   A    
C48   C84   S    
C51   C74   A    
C39   H55   S    
N5    N16   A    
C13   H37   S    
N29   N32   A    
C19   C23   A    
C24   C32   A    
C64   C83   A    
C37   H53   S    
C9    C86   S    
N39   H74   S    
C30   C76   S    
C60   C81   A    
C13   C30   A    
C90   C92   S    
C2    H2    S    
N3    Ni3   S    
C11   C88   S    
N17   N20   A    
C72   N40   S    
N2    Ni2   S    
C95   H35   S    
C6    H6    S    
C49   C76   A    
N1    Ni1   S    
C58   N18   A    
N32   Ni5   S    
C14   C26   A    
C94   C96   S    
C55   N15   A    
C51   H11   S    
N7    N14   A    
C41   H57   S    
N29   Ni8   S    
C97   H25   S    
N34   H64   S    
N28   Ni1   S    
C28   H52   S    
C5    N5    A    
C66   N26   A    
N27   Ni2   S    
C61   C83   A    
C44   H60   S    
C4    C76   A    
C57   C81   A    
C12   C93   S    
C21   H45   S    
C17   C34   A    
C38   H54   S    
N16   Ni7   S    
C5    C77   A    
N21   Ni7   S    
C1    H1    S    
C62   H22   S    
C72   C87   A    
C67   N35   S    
C70   N30   A    
C7    C79   A    
C54   C79   A    
N19   Ni1   S    
N21   N24   A    
C3    H3    S    
C68   N28   A    
C7    N7    A    
C42   H58   S    
C67   C86   A    
C59   H19   S    
C22   C30   A    
C12   C87   S    
C27   H51   S    
N13   Ni6   S    
C18   C22   A    
C61   N21   A    
C62   N22   A    
C20   C35   A    
C45   C81   S    
C70   C88   A    
C61   H21   S    
C11   C94   S    
N11   Ni4   S    
C13   C25   A    
C2    C74   A    
C9    C90   S    
C66   C86   A    
N10   Ni1   S    
C63   H23   S    
N4    Ni4   S    
C65   C85   A    
N9    Ni2   S    
C29   C75   S    
C18   H42   S    
N25   Ni4   S    
C60   N20   A    
N24   Ni6   S    
C69   N37   S    
C63   C84   A    
C1    C73   A    
C7    H7    S    
N36   H68   S    
C51   N11   A    
N26   N27   A    
C49   H9    S    
C70   N38   S    
C37   C39   A    
C23   H47   S    
C50   C75   A    
C57   N17   A    
C54   N14   A    
C55   H15   S    
C54   H14   S    
C59   N19   A    
C52   N12   A    
C94   H34   S    
C41   C48   A    
C72   N32   A    
C4    H4    S    
N17   Ni3   S    
C42   C47   A    
C91   C98   S    
N40   H75   S    
N8    Ni8   S    
C17   H41   S    
C19   H43   S    
C57   H17   S    
C12   C100  S    
C6    C78   A    
C1    N1    A    
C71   C88   A    
C90   H30   S    
C98   H26   S    
C65   N33   S    
N34   H63   S    
C28   C36   A    
N36   H67   S    
C25   C33   A    
C8    C80   A    
N7    Ni7   S    
C40   H56   S    
N12   Ni3   S    
C36   C78   S    
C14   C29   A    
C71   N31   A    
C37   C46   A    
C89   H29   S    
C43   C47   A    
C90   C98   S    
N5    Ni5   S    
C44   C48   A    
C93   H33   S    
C23   C31   A    
