data_mof_unit_11509.cif
_audit_creation_date              2012-12-10T19:00:10-0500
_audit_creation_method            fapswitch 2.2
_symmetry_space_group_name_H-M    P1
_symmetry_Int_Tables_number       1
_space_group_crystal_system       triclinic
_cell_length_a                    9.605237
_cell_length_b                    10.84096
_cell_length_c                    13.533058
_cell_angle_alpha                 91.221414
_cell_angle_beta                  73.961187
_cell_angle_gamma                 89.786881
_cell_volume                      1353.96841411

loop_
_atom_site_label
_atom_site_type_symbol
_atom_type_description
_atom_site_fract_x
_atom_site_fract_y
_atom_site_fract_z
_atom_type_partial_charge
C1    C     C_R   0.500085 0.737286 0.498916 0.809393
C2    C     C_R   0.441592 0.454534 0.975122 0.070540
C3    C     C_R   0.488149 0.446682 0.865978 0.057286
C4    C     C_R   0.546957 0.473547 0.030144 0.092574
C5    C     C_R   0.694324 0.487445 0.974933 0.188344
C6    C     C_R   0.737647 0.463589 0.869940 -0.289724
C7    C     C_R   0.637447 0.433301 0.818117 -0.202428
C8    C     C_R   0.511670 0.479187 0.137780 -0.249339
C9    C     C_R   0.760275 0.525969 0.132441 -0.185164
C10   C     C_R   0.384162 0.450062 0.808704 -0.165935
C11   C     C_R   0.372481 0.936424 0.505969 0.146216
C12   C     C_R   0.424552 0.483233 0.697868 0.806905
C13   C     C_R   0.501589 0.870155 0.491897 -0.107576
C14   C     C_R   0.632721 0.934024 0.469961 -0.208945
C15   C     C_R   0.631920 0.062235 0.474564 -0.159929
C16   C     C_R   0.500747 0.128562 0.496736 -0.102533
C17   C     C_R   0.371795 0.063955 0.508274 0.126255
C18   C     C_3   0.237414 0.069262 0.596554 -0.473566
C19   C     C_3   0.237384 0.929574 0.592342 -0.482949
C20   C     C_R   0.956411 0.438558 0.424456 0.178092
C21   C     C_R   0.899872 0.574752 0.566240 0.314185
C22   C     C_R   0.048298 0.571543 0.567778 -0.132979
C23   C     C_R   0.499718 0.262400 0.500918 0.802980
C24   C     C_R   0.103660 0.440476 0.423286 0.244312
C25   C     C_3   0.124718 0.307364 0.393154 -0.542552
C26   C     C_3   0.964242 0.303635 0.399055 -0.260904
C27   C     C_R   0.576516 0.501616 0.301024 0.808684
C28   C     C_R   0.798165 0.518800 0.025780 -0.222468
C29   C     C_R   0.617738 0.502370 0.188784 -0.040811
C30   C     C_R   0.238894 0.424125 0.860038 0.239139
C31   C     C_R   0.194607 0.422669 0.967164 -0.176896
C32   C     C_R   0.292306 0.443440 0.024190 -0.224691
Cu1   Cu    Cu3+1 0.359330 0.500020 0.500010 0.956651
Cu2   Cu    Cu3+1 0.640670 0.499980 0.499990 0.967892
H1    H     H_    0.842485 0.548448 0.170678 0.185376
H2    H     H_    0.733566 0.108418 0.464189 0.181369
H3    H     H_    0.257840 0.108004 0.667869 0.202879
H4    H     H_    0.143037 0.110154 0.576476 0.193777
H5    H     H_    0.255133 0.886967 0.661975 0.194431
H6    H     H_    0.146296 0.890794 0.566282 0.200736
H7    H     H_    0.082854 0.626977 0.623927 0.146591
H8    H     H_    0.199187 0.293852 0.314510 0.205796
H9    H     H_    0.152375 0.251356 0.452564 0.208616
H10   H     H_    0.849533 0.465571 0.827120 0.147605
H11   H     H_    0.901779 0.248631 0.464479 0.134265
H12   H     H_    0.908737 0.536566 0.982690 0.137572
H13   H     H_    0.403098 0.462666 0.183894 0.154198
H14   H     H_    0.247264 0.447459 0.106343 0.180578
H15   H     H_    0.082632 0.408052 0.006864 0.157600
H16   H     H_    0.680974 0.397649 0.740749 0.181384
H17   H     H_    0.735371 0.885412 0.453240 0.171486
N1    N     N_R   0.852320 0.499070 0.499340 -0.225670
N2    N     N_R   0.148230 0.499110 0.499340 -0.196779
O1    O     O_R   0.381190 0.680360 0.500000 -0.582340
O2    O     O_R   0.618780 0.680320 0.499990 -0.548614
O3    O     O_R   0.323230 0.500000 0.650990 -0.563220
O4    O     O_R   0.560820 0.499960 0.650980 -0.586267
O5    O     O_R   0.381220 0.319680 0.500010 -0.576120
O6    O     O_R   0.618810 0.319640 0.500000 -0.599089
O7    O     O_R   0.439180 0.500040 0.349020 -0.586305
O8    O     O_R   0.676770 0.500000 0.349010 -0.576095
N3    N     N_2   0.800276 0.655751 0.634789 -0.366311
H18   H     H_    0.771477 0.626127 0.709276 0.251197
C33   C     C_3   0.839301 0.784728 0.629552 -0.715923
H19   H     H_    0.918455 0.803181 0.674241 0.200715
H20   H     H_    0.740846 0.841939 0.663238 0.241266
H21   H     H_    0.886849 0.811838 0.548590 0.225643
C34   C     C_2   0.933932 0.273687 0.297973 0.919783
O9    O     O_2   0.859066 0.185065 0.290478 -0.617342
O10   O     O_R   0.991106 0.346416 0.212769 -0.799590
H22   H     H_    0.959602 0.316437 0.150974 0.321002
N4    N     N_2   0.137607 0.399965 0.803247 -0.412306
H23   H     H_    0.078958 0.476873 0.795516 0.239759
C35   C     C_3   0.056491 0.286770 0.825268 -0.700505
H24   H     H_    0.003591 0.266923 0.763444 0.228063
H25   H     H_    0.971471 0.295395 0.899741 0.225037
H26   H     H_    0.129876 0.208360 0.828206 0.235695

loop_
_geom_bond_atom_site_label_1
_geom_bond_atom_site_label_2
_ccdc_geom_bond_type
C23   O5    A    
Cu1   O5    S    
C27   C29   S    
C4    C8    A    
C25   H9    S    
C23   O6    A    
C11   C19   S    
C35   H25   S    
C8    C29   A    
C19   H5    S    
C18   H3    S    
C3    C7    A    
C27   O7    A    
C5    C6    A    
C22   H7    S    
C16   C17   A    
C15   C16   A    
C2    C32   A    
C18   C19   S    
N3    C33   S    
C27   O8    A    
C26   H11   S    
C31   C32   A    
C34   O9    D    
C35   H26   S    
Cu2   O4    S    
O10   H22   S    
C9    C29   A    
Cu1   O3    S    
Cu2   O2    S    
C6    H10   S    
C21   C22   A    
C32   H14   S    
C31   H15   S    
Cu1   Cu2   S    
C22   N2    A    
Cu1   N2    S    
C35   H24   S    
C33   H21   S    
C20   C24   A    
C24   C25   S    
C24   N2    A    
N4    C35   S    
N4    H23   S    
C25   C26   S    
Cu2   O8    S    
C33   H20   S    
C2    C4    A    
C1    O1    A    
N3    H18   S    
C5    C28   A    
C10   C30   A    
C14   H17   S    
C28   H12   S    
C17   C18   S    
C21   N3    S    
C12   O3    A    
C10   C12   S    
C12   O4    A    
C16   C23   S    
Cu2   O6    S    
C1    C13   S    
C15   H2    S    
Cu1   O1    S    
C11   C17   A    
C7    H16   S    
C4    C5    A    
C25   H8    S    
C30   N4    S    
C6    C7    A    
Cu1   O7    S    
Cu2   N1    S    
C26   C34   S    
C33   H19   S    
C2    C3    A    
C1    O2    A    
C8    H13   S    
C20   N1    A    
C3    C10   A    
C11   C13   A    
C30   C31   A    
C20   C26   S    
C18   H4    S    
C19   H6    S    
C34   O10   S    
C9    H1    S    
C14   C15   A    
C13   C14   A    
C21   N1    A    
C9    C28   A    
