data_mof_unit_46566.cif
_audit_creation_date              2012-12-11T15:35:36-0500
_audit_creation_method            fapswitch 2.2
_symmetry_space_group_name_H-M    P1
_symmetry_Int_Tables_number       1
_space_group_crystal_system       triclinic
_cell_length_a                    17.401898
_cell_length_b                    24.483052
_cell_length_c                    14.848458
_cell_angle_alpha                 90.141196
_cell_angle_beta                  125.101454
_cell_angle_gamma                 89.833397
_cell_volume                      5175.66940043

loop_
_atom_site_label
_atom_site_type_symbol
_atom_type_description
_atom_site_fract_x
_atom_site_fract_y
_atom_site_fract_z
_atom_type_partial_charge
C1    C     C_R   0.352786 0.152001 0.908838 0.427981
C2    C     C_R   0.597681 0.122645 0.907404 -0.108688
C3    C     C_R   0.256928 0.545520 0.302617 -0.040941
C4    C     C_R   0.095557 0.372295 0.908038 -0.039985
C5    C     C_R   0.097711 0.622391 0.907257 -0.109170
C6    C     C_R   0.435465 0.999586 0.632076 0.022431
C7    C     C_R   0.933270 0.499578 0.631193 0.029459
C8    C     C_R   0.809300 0.999270 0.358897 0.039219
C9    C     C_R   0.306035 0.499511 0.362669 0.040388
C10   C     C_R   0.684561 0.138148 0.997972 0.116056
C11   C     C_R   0.615326 0.815845 0.002755 0.059003
C12   C     C_R   0.184611 0.637643 0.997773 0.114871
C13   C     C_R   0.350290 0.849456 0.906014 0.389523
C14   C     C_R   0.182254 0.358269 0.000422 0.041373
C15   C     C_3   0.019432 0.955822 0.647142 -0.374581
C16   C     C_3   0.028276 0.056595 0.622695 -0.381803
C17   C     C_3   0.520002 0.454701 0.647253 -0.383395
C18   C     C_3   0.526695 0.555900 0.625472 -0.394149
C19   C     C_3   0.915283 0.959066 0.548137 -0.411472
C20   C     C_3   0.931068 0.056863 0.513765 -0.442910
C21   C     C_3   0.414994 0.458159 0.550624 -0.412237
C22   C     C_3   0.428654 0.556535 0.517680 -0.448220
C23   C     C_3   0.076139 0.990306 0.532950 -0.491308
C24   C     C_R   0.835311 0.645676 0.907815 0.377565
C25   C     C_3   0.572539 0.491560 0.530513 -0.485307
C26   C     C_3   0.076800 0.000846 0.636867 0.265278
C27   C     C_3   0.575584 0.500673 0.636185 0.276585
C28   C     C_3   0.905423 0.998878 0.460374 0.130738
C29   C     C_3   0.402773 0.498934 0.462845 0.143552
C30   C     C_R   0.439873 0.848121 0.089884 -0.218649
C31   C     C_R   0.443444 0.151817 0.092095 -0.236121
C32   C     C_R   0.940622 0.347717 0.089423 -0.199243
C33   C     C_R   0.924920 0.645146 0.091698 -0.210011
C34   C     C_3   0.975743 0.981505 0.431240 0.800221
C35   C     C_R   0.851854 0.349144 0.905641 0.397296
C36   C     C_3   0.471491 0.482637 0.430520 0.799819
C37   C     C_R   0.239948 0.761862 0.909831 -0.080027
C38   C     C_R   0.347465 0.280146 0.970471 -0.071730
C39   C     C_R   0.745199 0.257740 0.903637 -0.097534
C40   C     C_R   0.686970 0.708309 0.901288 -0.140064
C41   C     C_R   0.698623 0.213245 0.903632 -0.224488
C42   C     C_R   0.621292 0.739281 0.902109 -0.201015
C43   C     C_R   0.193638 0.717136 0.909403 -0.219962
C44   C     C_R   0.296369 0.323547 0.970215 -0.195021
C45   C     C_R   0.744361 0.176061 0.990981 -0.022178
C46   C     C_R   0.687534 0.125845 0.091256 -0.062780
C47   C     C_R   0.642712 0.759563 0.002296 0.025659
C48   C     C_R   0.242011 0.677255 0.990994 -0.031675
C49   C     C_R   0.235983 0.314466 0.002026 -0.017885
C50   C     C_R   0.841004 0.181619 0.074216 0.467089
C51   C     C_R   0.714761 0.734469 0.100621 0.472070
C52   C     C_R   0.339684 0.681046 0.069624 0.476280
C53   C     C_R   0.224518 0.262613 0.032798 0.492461
C54   C     C_R   0.386555 0.726817 0.069612 -0.245363
C55   C     C_R   0.276436 0.220100 0.034406 -0.261743
C56   C     C_R   0.888251 0.227032 0.073352 -0.212665
C57   C     C_R   0.648344 0.849336 0.093016 -0.054511
C58   C     C_R   0.782437 0.704948 0.100121 -0.233919
C59   C     C_R   0.335635 0.767396 0.990977 0.100337
C60   C     C_R   0.337115 0.229088 0.003424 0.093265
C61   C     C_R   0.839019 0.265684 0.989748 0.106748
C62   C     C_R   0.773064 0.696547 0.000652 0.081543
C63   C     C_R   0.391374 0.950151 0.462823 -0.130541
C64   C     C_R   0.390501 0.049067 0.462791 -0.125039
C65   C     C_R   0.890996 0.449664 0.463423 -0.133331
C66   C     C_R   0.887602 0.548576 0.461312 -0.117005
C67   C     C_R   0.391358 0.950291 0.369620 -0.144893
C68   C     C_R   0.187918 0.625276 0.091178 -0.054215
C69   C     C_R   0.390615 0.049146 0.369699 -0.135488
C70   C     C_R   0.893475 0.449627 0.372022 -0.150399
C71   C     C_R   0.889897 0.548484 0.369710 -0.131765
C72   C     C_R   0.402448 0.999797 0.331066 0.122388
C73   C     C_R   0.904472 0.499141 0.333533 0.116325
C74   C     C_R   0.478545 0.045553 0.247287 -0.118367
C75   C     C_R   0.478859 0.954421 0.247293 -0.116006
C76   C     C_R   0.982017 0.545092 0.251944 -0.118645
C77   C     C_R   0.979921 0.454120 0.248361 -0.123012
C78   C     C_R   0.400976 0.999571 0.516200 0.128098
C79   C     C_R   0.187199 0.374177 0.092584 0.008730
C80   C     C_R   0.898592 0.499247 0.515355 0.122506
C81   C     C_R   0.232133 0.954653 0.757968 -0.119015
C82   C     C_R   0.232915 0.046163 0.757898 -0.105284
C83   C     C_R   0.731745 0.454517 0.755957 -0.121110
C84   C     C_R   0.732015 0.546104 0.753602 -0.123370
C85   C     C_R   0.384235 0.182759 0.001083 -0.018022
C86   C     C_R   0.376637 0.818733 0.996472 -0.008766
C87   C     C_R   0.846972 0.669078 0.999987 0.034668
C88   C     C_R   0.878399 0.317974 0.995774 0.011476
C89   C     C_R   0.446723 0.999956 0.272167 0.039737
C90   C     C_R   0.555854 0.847376 0.910545 -0.075372
C91   C     C_R   0.949487 0.499468 0.275577 0.041981
C92   C     C_R   0.176257 0.000791 0.731298 -0.009798
C93   C     C_R   0.675699 0.500694 0.728285 -0.007414
C94   C     C_R   0.450417 0.044981 0.695639 -0.114375
C95   C     C_R   0.452464 0.954389 0.696787 -0.089099
C96   C     C_R   0.949531 0.544981 0.695209 -0.116343
C97   C     C_R   0.950547 0.454485 0.695952 -0.116613
C98   C     C_R   0.759288 0.953646 0.299455 -0.037361
C99   C     C_R   0.758679 0.045437 0.300866 -0.044680
C100  C     C_R   0.256800 0.454024 0.302583 -0.063568
Cl1   Cl    Cl    0.306189 0.179482 0.777691 -0.697928
Cl2   Cl    Cl    0.720770 0.736371 0.223130 -0.656669
Cl3   Cl    Cl    0.405068 0.630358 0.168383 -0.558101
Cl4   Cl    Cl    0.143067 0.248618 0.064626 -0.638640
Cl5   Cl    Cl    0.310356 0.822814 0.775639 -0.704520
Cl6   Cl    Cl    0.801050 0.681728 0.787489 -0.685222
Cl7   Cl    Cl    0.816658 0.323161 0.776439 -0.666449
Cl8   Cl    Cl    0.962663 0.910906 0.390066 -0.622903
Cl9   Cl    Cl    0.959462 0.020006 0.318960 -0.523962
Cl10  Cl    Cl    0.458561 0.412303 0.387765 -0.658951
Cl11  Cl    Cl    0.452457 0.522012 0.317813 -0.536505
Cl12  Cl    Cl    0.904821 0.134035 0.180658 -0.568796
H1    H     H_    0.025090 0.960939 0.725225 0.172263
H2    H     H_    0.931254 0.086913 0.457741 0.216603
H3    H     H_    0.389281 0.416643 0.516107 0.198099
H4    H     H_    0.427861 0.587181 0.461898 0.212102
H5    H     H_    0.120460 0.954519 0.544391 0.210085
H6    H     H_    0.108973 0.025941 0.520880 0.204825
H7    H     H_    0.617102 0.456293 0.539921 0.209573
H8    H     H_    0.603822 0.527882 0.518022 0.204745
H9    H     H_    0.199090 0.793922 0.850700 0.152329
H10   H     H_    0.394250 0.286032 0.945316 0.149658
H11   H     H_    0.704807 0.288181 0.840376 0.153609
H12   H     H_    0.022566 0.063800 0.692685 0.186123
H13   H     H_    0.670900 0.696039 0.822430 0.177475
H14   H     H_    0.624109 0.211395 0.839505 0.150126
H15   H     H_    0.560000 0.752401 0.823742 0.150788
H16   H     H_    0.118183 0.716418 0.849574 0.157101
H17   H     H_    0.303323 0.363735 0.945243 0.156287
H18   H     H_    0.461297 0.731336 0.131535 0.190749
H19   H     H_    0.267938 0.179621 0.057130 0.170030
H20   H     H_    0.961690 0.233061 0.139111 0.184887
H21   H     H_    0.841407 0.688946 0.177356 0.155288
H22   H     H_    0.393145 0.911149 0.497872 0.121570
H23   H     H_    0.527826 0.458621 0.726808 0.167339
H24   H     H_    0.391593 0.088053 0.497719 0.124474
H25   H     H_    0.893094 0.410705 0.498785 0.123088
H26   H     H_    0.886840 0.587584 0.494976 0.133709
H27   H     H_    0.481523 0.833266 0.173696 0.143246
H28   H     H_    0.484713 0.165429 0.176842 0.144607
H29   H     H_    0.982449 0.332855 0.173219 0.134179
H30   H     H_    0.961649 0.658616 0.175999 0.128616
H31   H     H_    0.393223 0.911378 0.336415 0.117632
H32   H     H_    0.392003 0.088117 0.336627 0.122774
H33   H     H_    0.897321 0.410663 0.340468 0.116814
H34   H     H_    0.522220 0.561623 0.696719 0.180281
H35   H     H_    0.890457 0.587386 0.335814 0.128570
H36   H     H_    0.468141 0.087921 0.257465 0.103198
H37   H     H_    0.468988 0.912026 0.257450 0.103272
H38   H     H_    0.976096 0.586924 0.269010 0.096401
H39   H     H_    0.969504 0.411660 0.257399 0.101240
H40   H     H_    0.208743 0.912884 0.742333 0.158792
H41   H     H_    0.212802 0.088306 0.748026 0.157192
H42   H     H_    0.708834 0.412616 0.740928 0.151175
H43   H     H_    0.710844 0.588006 0.737374 0.151535
H44   H     H_    0.431408 0.086707 0.667881 0.117260
H45   H     H_    0.871876 0.973914 0.576315 0.184010
H46   H     H_    0.436480 0.912265 0.670689 0.111409
H47   H     H_    0.930867 0.586754 0.667614 0.118149
H48   H     H_    0.933010 0.412516 0.669333 0.122169
H49   H     H_    0.773940 0.911408 0.324996 0.135134
H50   H     H_    0.772287 0.087441 0.328099 0.089467
H51   H     H_    0.270209 0.412029 0.329753 0.124211
H52   H     H_    0.270316 0.587628 0.329215 0.087402
H53   H     H_    0.742489 0.135455 0.175736 0.142322
H54   H     H_    0.691148 0.838684 0.178853 0.168270
H55   H     H_    0.243405 0.634661 0.175654 0.139635
H56   H     H_    0.878530 0.070864 0.528997 0.181266
H57   H     H_    0.242385 0.365100 0.177378 0.143586
H58   H     H_    0.510156 0.834003 0.826044 0.132673
H59   H     H_    0.570794 0.126497 0.821618 0.110393
H60   H     H_    0.066579 0.362430 0.823176 0.114798
H61   H     H_    0.070441 0.627176 0.821470 0.111897
H62   H     H_    0.047106 0.914637 0.648460 0.192980
H63   H     H_    0.067158 0.091392 0.619312 0.187023
H64   H     H_    0.547377 0.413878 0.645782 0.191420
H65   H     H_    0.564219 0.591585 0.622657 0.179765
H66   H     H_    0.373238 0.472286 0.581505 0.180560
H67   H     H_    0.376847 0.569920 0.534528 0.179241
H68   H     H_    0.889854 0.917393 0.514409 0.202818
N1    N     N_R   0.392140 0.102630 0.941800 -0.086752
N2    N     N_R   0.525160 0.972040 0.206160 -0.047543
N3    N     N_R   0.025160 0.527960 0.206160 -0.047362
N4    N     N_R   0.025160 0.472040 0.206160 -0.047391
N5    N     N_R   0.317870 0.971120 0.792790 -0.034541
N6    N     N_R   0.317870 0.028880 0.792790 -0.037098
N7    N     N_R   0.817870 0.471120 0.792790 -0.033499
N8    N     N_R   0.817870 0.528880 0.792790 -0.037375
N9    N     N_R   0.473480 0.027920 0.793480 -0.042797
N10   N     N_R   0.473480 0.972080 0.793480 -0.042725
N11   N     N_R   0.973480 0.527920 0.793480 -0.045203
N12   N     N_R   0.392140 0.897370 0.941800 -0.081613
N13   N     N_R   0.973480 0.472080 0.793480 -0.047035
N14   N     N_R   0.681610 0.971120 0.207570 -0.048945
N15   N     N_R   0.681610 0.028880 0.207570 -0.045716
N16   N     N_R   0.181610 0.471120 0.207570 -0.052471
N17   N     N_R   0.181610 0.528880 0.207570 -0.046102
N18   N     N_R   0.605410 0.102620 0.056870 -0.058957
N19   N     N_R   0.605410 0.897380 0.056870 -0.053558
N20   N     N_R   0.105410 0.602620 0.056870 -0.059313
N21   N     N_R   0.105410 0.397380 0.056870 -0.054004
N22   N     N_R   0.549680 0.896430 0.944180 -0.047086
N23   N     N_R   0.892140 0.602630 0.941800 -0.077086
N24   N     N_R   0.549680 0.103570 0.944180 -0.043509
N25   N     N_R   0.049680 0.396430 0.944180 -0.039062
N26   N     N_R   0.049680 0.603570 0.944180 -0.039536
N27   N     N_R   0.892140 0.397370 0.941800 -0.085089
N28   N     N_R   0.450890 0.896450 0.057150 -0.063348
N29   N     N_R   0.450890 0.103550 0.057150 -0.063362
N30   N     N_R   0.950890 0.396450 0.057150 -0.064794
N31   N     N_R   0.950890 0.603550 0.057150 -0.062562
N32   N     N_R   0.525160 0.027960 0.206160 -0.046919
Ni1   Ni    Ni4+2 0.433410 0.064680 0.868830 0.274357
Ni2   Ni    Ni4+2 0.433410 0.935320 0.868830 0.272051
Ni3   Ni    Ni4+2 0.933410 0.564680 0.868830 0.277106
Ni4   Ni    Ni4+2 0.933410 0.435320 0.868830 0.285645
Ni5   Ni    Ni4+2 0.565650 0.934380 0.131170 0.227037
Ni6   Ni    Ni4+2 0.565650 0.065620 0.131170 0.214383
Ni7   Ni    Ni4+2 0.065650 0.434380 0.131170 0.229775
Ni8   Ni    Ni4+2 0.065650 0.565620 0.131170 0.217264

loop_
_geom_bond_atom_site_label_1
_geom_bond_atom_site_label_2
_ccdc_geom_bond_type
C44   C49   A    
C58   C62   A    
C71   H35   S    
C64   H24   S    
C24   N23   A    
N3    Ni8   S    
C31   C85   A    
C22   C29   S    
C95   H46   S    
C53   C55   A    
C11   C47   S    
N19   Ni5   S    
C12   C48   S    
C83   N7    A    
C77   H39   S    
C23   H6    S    
N11   N13   A    
C82   C92   A    
C4    N25   A    
C39   C41   A    
N26   Ni3   S    
C69   H32   S    
C15   C19   S    
C7    C96   A    
C12   C68   A    
C29   C36   S    
C13   N12   A    
C82   N6    A    
N29   Ni6   S    
C96   N11   A    
C74   H36   S    
C46   H53   S    
C8    C99   A    
C35   Cl7   S    
C52   Cl3   S    
C46   N18   A    
C14   C49   S    
C53   Cl4   S    
C26   C92   S    
C65   C70   A    
C83   C93   A    
N6    Ni1   S    
C99   N15   A    
C77   N4    A    
C40   C62   A    
N5    Ni2   S    
C98   N14   A    
N1    N29   A    
C67   C72   A    
C23   C26   S    
N12   Ni2   S    
N21   N25   A    
C8    C98   A    
C38   H10   S    
C95   N10   A    
N11   Ni3   S    
C5    N26   A    
C81   C92   A    
N4    Ni7   S    
C18   H65   S    
C79   N21   A    
C31   N29   A    
C13   C86   A    
C17   H23   S    
N19   N22   A    
N9    Ni1   S    
C15   H1    S    
C30   C86   A    
C76   N3    A    
C7    C97   A    
C43   C48   A    
C17   H64   S    
C21   H3    S    
C2    H59   S    
C42   C47   A    
C65   H25   S    
C40   C42   A    
N14   N15   A    
C73   C91   S    
C28   C34   S    
C65   C80   A    
C18   C22   S    
C55   C60   A    
C57   N19   A    
C16   C26   S    
N12   N28   A    
N23   N31   A    
C67   H31   S    
N18   Ni6   S    
C5    H61   S    
C10   C45   S    
C84   N8    A    
C54   H18   S    
C25   H7    S    
C81   N5    A    
N8    Ni3   S    
C52   C54   A    
N14   Ni5   S    
C54   C59   A    
C100  N16   A    
C58   H21   S    
C1    C85   A    
C20   H56   S    
C63   C67   A    
C39   H11   S    
C17   C27   S    
C97   H48   S    
C2    N24   A    
N25   Ni4   S    
C5    C12   A    
C13   Cl5   S    
C71   C73   A    
C1    N1    A    
N16   N17   A    
C15   C26   S    
C47   C51   A    
C57   H54   S    
C20   C28   S    
C6    C94   A    
C44   H17   S    
C64   C69   A    
C70   C73   A    
C21   C29   S    
N24   Ni1   S    
C17   C21   S    
C83   H42   S    
C74   N32   A    
C51   Cl2   S    
C19   H45   S    
C76   C91   A    
C37   C43   A    
C69   C72   A    
N3    N4    A    
C63   H22   S    
C38   C44   A    
C3    C9    A    
C61   C88   S    
N27   N30   A    
C99   H50   S    
C32   N30   A    
C35   C88   A    
C66   C71   A    
C66   H26   S    
C76   H38   S    
N31   Ni8   S    
C16   C20   S    
C23   C34   S    
C30   N28   A    
C90   H58   S    
C36   Cl11  S    
N2    N32   A    
C51   C58   A    
C37   C59   A    
C14   C79   A    
N22   Ni2   S    
C98   H49   S    
C19   C28   S    
N10   Ni2   S    
N21   Ni7   S    
C32   H29   S    
C56   H20   S    
C70   H33   S    
C42   H15   S    
N2    Ni5   S    
C37   H9    S    
C3    H52   S    
C16   H63   S    
C35   N27   A    
C21   H66   S    
C20   H2    S    
C9    C100  A    
C55   H19   S    
C36   Cl10  S    
N20   Ni8   S    
C38   C60   A    
C27   C93   S    
C32   C88   A    
C24   Cl6   S    
N17   Ni8   S    
C25   H8    S    
C1    Cl1   S    
C10   C46   A    
N16   Ni7   S    
C74   C89   A    
N13   Ni4   S    
N23   Ni3   S    
N28   Ni5   S    
N7    Ni4   S    
C77   C91   A    
N20   N26   A    
C30   H27   S    
C4    H60   S    
C15   H62   S    
C39   C61   A    
C64   C78   A    
C41   H14   S    
C18   C27   S    
C22   H67   S    
C18   H34   S    
C43   H16   S    
C23   H5    S    
C60   C85   S    
C82   H41   S    
C9    C29   S    
C33   H30   S    
C25   C27   S    
C81   H40   S    
C66   C80   A    
C62   C87   S    
C68   N20   A    
C34   Cl8   S    
C79   H57   S    
C50   Cl12  S    
C33   C87   A    
C59   C86   S    
N7    N8    A    
C4    C14   A    
N18   N24   A    
C72   C89   S    
C33   N31   A    
C11   C90   A    
N5    N6    A    
N32   Ni6   S    
C45   C50   A    
C75   H37   S    
C49   C53   A    
C40   H13   S    
C22   H4    S    
N27   Ni4   S    
C3    N17   A    
C100  H51   S    
C84   C93   A    
C16   H12   S    
N9    N10   A    
C24   C87   A    
C50   C56   A    
C94   N9    A    
C6    C78   S    
N30   Ni7   S    
C25   C36   S    
C68   H55   S    
C48   C52   A    
C96   H47   S    
C8    C28   S    
C94   H44   S    
C6    C95   A    
C75   C89   A    
C97   N13   A    
C84   H43   S    
C34   Cl9   S    
C41   C45   A    
C56   C61   A    
N1    Ni1   S    
C31   H28   S    
C11   C57   A    
C75   N2    A    
C19   H68   S    
N15   Ni6   S    
C7    C80   S    
C90   N22   A    
C63   C78   A    
C2    C10   A    
