data_mof_unit_22576.cif
_audit_creation_date              2013-03-05T15:54:35-0500
_audit_creation_method            fapswitch 2.2
_symmetry_space_group_name_H-M    P1
_symmetry_Int_Tables_number       1
_space_group_crystal_system       triclinic
_cell_length_a                    17.675269
_cell_length_b                    24.393084
_cell_length_c                    15.097478
_cell_angle_alpha                 90.000767
_cell_angle_beta                  125.834847
_cell_angle_gamma                 90.001137
_cell_volume                      5277.17569994

loop_
_atom_site_label
_atom_site_type_symbol
_atom_site_description
_atom_site_fract_x
_atom_site_fract_y
_atom_site_fract_z
_atom_type_partial_charge
C1    C     C_R   0.857440 0.653809 0.908112 0.041960
C2    C     C_R   0.140550 0.654642 0.091468 0.081569
C3    C     C_R   0.359458 0.154642 0.908550 0.081321
C4    C     C_R   0.642552 0.153811 0.091911 0.043368
N1    N     N_R   0.892620 0.603790 0.941770 -0.067131
N2    N     N_R   0.107380 0.603790 0.058230 -0.083038
N3    N     N_R   0.392620 0.103790 0.941770 -0.083107
N4    N     N_R   0.607380 0.103790 0.058230 -0.067059
C5    C     C_R   0.903944 0.379111 0.093324 -0.048502
C6    C     C_R   0.081586 0.361428 0.907406 -0.093393
C7    C     C_R   0.418368 0.861446 0.092573 -0.093428
C8    C     C_R   0.596083 0.879128 0.906705 -0.045457
H1    H     H_    0.925603 0.382283 0.175372 0.102864
H2    H     H_    0.052499 0.352465 0.823488 0.120063
H3    H     H_    0.447380 0.852494 0.176466 0.122195
H4    H     H_    0.574459 0.882339 0.824678 0.103689
N5    N     N_R   0.952270 0.397640 0.058010 -0.044836
N6    N     N_R   0.047730 0.397640 0.941990 -0.048359
N7    N     N_R   0.452270 0.897640 0.058010 -0.052291
N8    N     N_R   0.547730 0.897640 0.941990 -0.044887
C9    C     C_R   0.044949 0.545227 0.302274 0.037333
C10   C     C_R   0.961660 0.546563 0.702277 0.038358
C11   C     C_R   0.538655 0.046520 0.297941 0.036850
C12   C     C_R   0.455100 0.045223 0.697740 0.037624
N9    N     N_R   0.026310 0.529110 0.206760 -0.064448
N10   N     N_R   0.973690 0.529110 0.793240 -0.070894
N11   N     N_R   0.526310 0.029110 0.206760 -0.070803
N12   N     N_R   0.473690 0.029110 0.793240 -0.064238
C13   C     C_R   0.733108 0.453848 0.721430 -0.042805
C14   C     C_R   0.268809 0.454667 0.260595 -0.055677
C15   C     C_R   0.231188 0.954671 0.739428 -0.056137
C16   C     C_R   0.766876 0.953855 0.278670 -0.049174
H5    H     H_    0.715155 0.413057 0.688467 0.142736
H6    H     H_    0.291925 0.413248 0.286440 0.107470
H7    H     H_    0.208057 0.913255 0.713568 0.107358
H8    H     H_    0.784804 0.913069 0.311659 0.142924
N13   N     N_R   0.818570 0.472310 0.793020 -0.045275
N14   N     N_R   0.181430 0.472310 0.206980 -0.039898
N15   N     N_R   0.318570 0.972310 0.793020 -0.040001
N16   N     N_R   0.681430 0.972310 0.206980 -0.048461
C17   C     C_R   0.052883 0.454734 0.304703 -0.099099
C18   C     C_R   0.955799 0.455723 0.698023 -0.086818
C19   C     C_R   0.544635 0.955719 0.302209 -0.089442
C20   C     C_R   0.447122 0.954735 0.695289 -0.098453
N17   N     N_R   0.026930 0.472300 0.207330 -0.063262
N18   N     N_R   0.973070 0.472300 0.792670 -0.068699
N19   N     N_R   0.526930 0.972300 0.207330 -0.072154
N20   N     N_R   0.473070 0.972300 0.792670 -0.063212
C21   C     C_R   0.730656 0.545570 0.719191 -0.048917
C22   C     C_R   0.270034 0.546479 0.264060 -0.020063
C23   C     C_R   0.229975 0.046483 0.736000 -0.020039
C24   C     C_R   0.769335 0.045576 0.280869 -0.047691
N21   N     N_R   0.817960 0.529130 0.792460 -0.076115
N22   N     N_R   0.182040 0.529130 0.207540 -0.073957
N23   N     N_R   0.317960 0.029130 0.792460 -0.073949
N24   N     N_R   0.682040 0.029130 0.207540 -0.076098
C25   C     C_R   0.818196 0.368884 0.912341 0.027369
C26   C     C_R   0.167867 0.357675 0.089721 0.006768
C27   C     C_R   0.332103 0.857687 0.910266 0.006612
C28   C     C_R   0.681806 0.868893 0.087689 0.017885
N25   N     N_R   0.894850 0.397640 0.943830 -0.054856
N26   N     N_R   0.105150 0.397640 0.056170 -0.059181
N27   N     N_R   0.394850 0.897640 0.943830 -0.059412
N28   N     N_R   0.605150 0.897640 0.056170 -0.056995
C29   C     C_R   0.937915 0.651951 0.088423 -0.129644
C30   C     C_R   0.061425 0.652456 0.911954 -0.152299
C31   C     C_R   0.438558 0.152443 0.088065 -0.151833
C32   C     C_R   0.562076 0.151964 0.911603 -0.130100
H9    H     H_    0.980257 0.664199 0.171907 0.136103
H10   H     H_    0.023272 0.665798 0.829168 0.129346
H11   H     H_    0.476672 0.165764 0.170869 0.129620
H12   H     H_    0.519724 0.164218 0.828124 0.136184
N29   N     N_R   0.950040 0.603780 0.055950 -0.059426
N30   N     N_R   0.049960 0.603780 0.944050 -0.062955
N31   N     N_R   0.450040 0.103780 0.055950 -0.062882
N32   N     N_R   0.549960 0.103780 0.944050 -0.059403
C33   C     C_R   0.879458 0.684945 0.997170 0.011656
C34   C     C_R   0.114954 0.686045 0.002224 0.021224
C35   C     C_R   0.385040 0.186037 0.997802 0.020930
C36   C     C_R   0.620527 0.184962 0.002871 0.011679
C37   C     C_R   0.820005 0.359930 0.005033 0.013392
C38   C     C_R   0.160248 0.337729 0.998714 0.001757
C39   C     C_R   0.339700 0.837753 0.001265 0.003256
C40   C     C_R   0.680013 0.859938 0.995012 0.016625
C41   C     C_R   0.061317 0.499385 0.364139 -0.068255
C42   C     C_R   0.949924 0.501826 0.641034 -0.086486
C43   C     C_R   0.550640 0.001771 0.359324 -0.083668
C44   C     C_R   0.438746 0.999379 0.635860 -0.068748
C45   C     C_R   0.676527 0.498570 0.678913 -0.018391
C46   C     C_R   0.325165 0.500162 0.295679 -0.007967
C47   C     C_R   0.174842 0.000170 0.704392 -0.008027
C48   C     C_R   0.823451 0.998580 0.321217 -0.015517
Ni1   Ni    Ni4+2 0.934160 0.565860 0.869070 0.237425
Ni2   Ni    Ni4+2 0.065840 0.565860 0.130930 0.237605
Ni3   Ni    Ni4+2 0.434160 0.065860 0.869070 0.237627
Ni4   Ni    Ni4+2 0.565840 0.065860 0.130930 0.236882
Ni5   Ni    Ni4+2 0.067260 0.435560 0.132230 0.283436
Ni6   Ni    Ni4+2 0.932740 0.435560 0.867770 0.274183
Ni7   Ni    Ni4+2 0.567260 0.935560 0.132230 0.280907
Ni8   Ni    Ni4+2 0.432740 0.935560 0.867770 0.283031
C49   C     C_3   0.513456 0.449037 0.536618 -0.030196
C50   C     C_3   0.493712 0.454519 0.423569 -0.045221
C51   C     C_3   0.006311 0.954523 0.576514 -0.045534
C52   C     C_3   0.986538 0.949079 0.463445 -0.029931
C53   C     C_3   0.438858 0.492272 0.505500 -0.118356
C54   C     C_3   0.566594 0.500292 0.466479 -0.122018
C55   C     C_3   0.933414 0.000282 0.533670 -0.121441
C56   C     C_3   0.061112 0.992335 0.494574 -0.118459
C57   C     C_3   0.419708 0.497978 0.392432 0.019479
C58   C     C_3   0.584927 0.495390 0.578581 0.039033
C59   C     C_3   0.915048 0.995415 0.421549 0.039007
C60   C     C_3   0.080291 0.998000 0.607663 0.019179
C61   C     C_3   0.492263 0.544295 0.434130 -0.158482
C62   C     C_3   0.510617 0.538857 0.547765 -0.147746
C63   C     C_3   0.989335 0.038904 0.452375 -0.148362
C64   C     C_3   0.007725 0.044303 0.566034 -0.158730
H13   H     H_    0.488870 0.582699 0.392843 0.206666
H14   H     H_    0.514110 0.572299 0.599789 0.191117
H15   H     H_    0.985807 0.072373 0.400379 0.191143
H16   H     H_    0.011130 0.082691 0.607369 0.206375
C65   C     C_R   0.775395 0.308144 0.109832 0.074058
C66   C     C_R   0.216131 0.293990 0.898809 0.083668
C67   C     C_R   0.283838 0.794012 0.101197 0.085374
C68   C     C_R   0.724535 0.808078 0.890240 0.071697
C69   C     C_R   0.751055 0.332215 0.012774 0.034409
C70   C     C_R   0.229322 0.305153 0.998097 0.062153
C71   C     C_R   0.270631 0.805174 0.001898 0.062258
C72   C     C_R   0.748943 0.832199 0.987281 0.034609
C73   C     C_R   0.661574 0.322915 0.919181 -0.202837
C74   C     C_R   0.318086 0.295558 0.095464 -0.240830
C75   C     C_R   0.181868 0.795567 0.904542 -0.241246
C76   C     C_R   0.838432 0.822907 0.080863 -0.203593
H17   H     H_    0.636764 0.346465 0.846168 0.145277
H18   H     H_    0.337148 0.312354 0.171970 0.151285
H19   H     H_    0.162807 0.812349 0.828029 0.151258
H20   H     H_    0.863257 0.846470 0.153867 0.144771
C77   C     C_R   0.113290 0.768618 0.906482 -0.088433
C78   C     C_R   0.888521 0.776767 0.087432 -0.054325
C79   C     C_R   0.611470 0.276782 0.912615 -0.054758
C80   C     C_R   0.386668 0.268602 0.093546 -0.087971
C81   C     C_R   0.137421 0.744425 0.004126 -0.028388
C82   C     C_R   0.851953 0.743134 0.992500 -0.034331
C83   C     C_R   0.648010 0.243166 0.007559 -0.034555
C84   C     C_R   0.362550 0.244410 0.995905 -0.028488
C85   C     C_R   0.217210 0.763901 0.102507 0.104806
C86   C     C_R   0.776818 0.765536 0.891099 0.108388
C87   C     C_R   0.723090 0.265609 0.108968 0.110282
C88   C     C_R   0.282771 0.263884 0.897517 0.105232
C89   C     C_3   0.219199 0.804849 0.178930 -0.264099
C90   C     C_3   0.689150 0.740533 0.791248 -0.255798
C91   C     C_3   0.810719 0.240675 0.208987 -0.265043
C92   C     C_3   0.280798 0.304835 0.821111 -0.263987
C93   C     C_3   0.866710 0.287030 0.205365 -0.299781
C94   C     C_3   0.204460 0.335396 0.817815 -0.277041
C95   C     C_3   0.295525 0.835417 0.182206 -0.277328
C96   C     C_3   0.633191 0.786890 0.794891 -0.293490
H21   H     H_    0.244528 0.786804 0.259356 0.169316
H22   H     H_    0.671911 0.699494 0.806915 0.179848
H23   H     H_    0.828056 0.199626 0.193488 0.181095
H24   H     H_    0.255484 0.286791 0.740687 0.169579
H25   H     H_    0.914002 0.273063 0.183928 0.167355
H26   H     H_    0.135197 0.331819 0.737650 0.166948
H27   H     H_    0.364798 0.831846 0.262366 0.164772
H28   H     H_    0.586021 0.772946 0.816525 0.166712
C97   C     C_R   0.911899 0.492771 0.457985 0.161373
C98   C     C_R   0.942072 0.486712 0.392870 0.087496
C99   C     C_R   0.558146 0.986755 0.607329 0.089952
C100  C     C_R   0.588425 0.992829 0.542339 0.170678
C101  C     C_R   0.976814 0.502329 0.569042 0.059360
C102  C     C_R   0.035893 0.495767 0.436957 0.074776
C103  C     C_R   0.464292 0.995741 0.563128 0.073975
C104  C     C_R   0.523602 0.002229 0.431205 0.064963
C105  C     C_R   0.072691 0.503750 0.615810 -0.170111
C106  C     C_R   0.102447 0.501479 0.549103 -0.072054
C107  C     C_R   0.397810 0.001287 0.450922 -0.072096
C108  C     C_R   0.427684 0.003513 0.384309 -0.169149
H29   H     H_    0.123726 0.508486 0.703202 0.141751
H30   H     H_    0.175784 0.506179 0.584123 0.139500
H31   H     H_    0.324433 0.005888 0.415774 0.139490
H32   H     H_    0.376699 0.008131 0.296882 0.141127
C109  C     C_3   0.858035 0.513957 0.296483 -0.400229
C110  C     C_3   0.827413 0.524972 0.370555 -0.410939
C111  C     C_3   0.672884 0.025011 0.629844 -0.414144
C112  C     C_3   0.642160 0.013939 0.703827 -0.402614
H33   H     H_    0.875066 0.551156 0.268629 0.176550
H34   H     H_    0.760334 0.505189 0.342894 0.199188
H35   H     H_    0.739984 0.005254 0.657546 0.200122
H36   H     H_    0.625116 0.051102 0.731754 0.176704
C113  C     C_1   0.854950 0.676173 0.818986 0.069798
N33   N     N_1   0.854974 0.692903 0.747456 -0.059138
C114  C     C_1   0.154099 0.677724 0.187334 0.063809
N34   N     N_1   0.165059 0.696134 0.264595 -0.069681
C115  C     C_1   0.345919 0.177731 0.812694 0.064001
N35   N     N_1   0.334969 0.196142 0.735441 -0.069616
C116  C     C_1   0.645019 0.176146 0.181038 0.067302
N36   N     N_1   0.644968 0.192841 0.252573 -0.060811
C117  C     C_1   0.522175 0.396475 0.589071 0.098425
N37   N     N_1   0.528066 0.354842 0.629261 -0.049475
C118  C     C_1   0.485241 0.410991 0.351786 0.113850
N38   N     N_1   0.479220 0.377231 0.294463 -0.053887
C119  C     C_1   0.014807 0.910972 0.648266 0.115744
N39   N     N_1   0.020842 0.877194 0.705564 -0.053739
C120  C     C_1   0.977829 0.896533 0.410945 0.099873
N40   N     N_1   0.971946 0.854913 0.370719 -0.049686
C121  C     C_2   0.015207 0.773017 0.811612 1.003605
O1    O     O_2   0.992603 0.762352 0.719950 -0.631444
O2    O     O_R   0.949501 0.793066 0.826873 -0.798181
H37   H     H_    0.886128 0.799398 0.755385 0.335730
C122  C     C_2   0.967039 0.762596 0.199522 0.973872
O3    O     O_2   0.952202 0.736894 0.257482 -0.632347
O4    O     O_R   0.054755 0.785320 0.243987 -0.809231
H38   H     H_    0.100669 0.777192 0.324840 0.331137
C123  C     C_2   0.532963 0.262607 0.800520 0.974234
O5    O     O_2   0.547811 0.236904 0.742570 -0.632465
O6    O     O_R   0.445246 0.285331 0.756040 -0.809254
H39   H     H_    0.399341 0.277203 0.675184 0.331143
C124  C     C_2   0.484744 0.272990 0.188440 1.003327
O7    O     O_2   0.507314 0.262336 0.280092 -0.633326
O8    O     O_R   0.550481 0.293016 0.173213 -0.797904
H40   H     H_    0.613846 0.299345 0.244715 0.336586
C125  C     C_1   0.129698 0.834544 0.128136 0.293622
N41   N     N_1   0.059795 0.857842 0.087909 -0.031030
C126  C     C_1   0.685602 0.742960 0.690764 0.270330
N42   N     N_1   0.680540 0.745895 0.610881 -0.072425
C127  C     C_1   0.814101 0.243187 0.309369 0.283256
N43   N     N_1   0.819052 0.246222 0.389176 -0.055121
C128  C     C_1   0.370301 0.334534 0.871929 0.293587
N44   N     N_1   0.440206 0.357834 0.912172 -0.030891
C129  C     C_1   0.911526 0.325329 0.299402 0.185622
N45   N     N_1   0.945594 0.354789 0.373357 -0.024553
C130  C     C_1   0.226437 0.392577 0.858469 0.138905
N46   N     N_1   0.243505 0.437239 0.890327 -0.082647
C131  C     C_1   0.273533 0.892595 0.141547 0.139416
N47   N     N_1   0.256449 0.937255 0.109681 -0.082854
C132  C     C_1   0.588221 0.825138 0.700794 0.173451
N48   N     N_1   0.554008 0.854591 0.626832 -0.033219
C133  C     C_2   0.796432 0.474153 0.205210 1.073596
O9    O     O_2   0.775453 0.483425 0.113755 -0.640014
O10   O     O_R   0.762605 0.427225 0.224536 -0.788250
H41   H     H_    0.718951 0.405184 0.155640 0.327211
C134  C     C_2   0.831704 0.585311 0.395475 1.095836
O11   O     O_2   0.765711 0.607343 0.387055 -0.566125
O12   O     O_R   0.909836 0.616285 0.424620 -0.802320
H42   H     H_    0.902319 0.656691 0.433403 0.346271
C135  C     C_2   0.668563 0.085356 0.604958 1.094263
O13   O     O_2   0.734577 0.107423 0.613478 -0.568657
O14   O     O_R   0.590367 0.116292 0.575698 -0.802813
H43   H     H_    0.597845 0.156701 0.566890 0.345398
C136  C     C_2   0.703472 0.973983 0.794909 1.075942
O15   O     O_2   0.723105 0.982688 0.885889 -0.641220
O16   O     O_R   0.738290 0.927460 0.775860 -0.790099
H44   H     H_    0.781378 0.905180 0.844566 0.327211
C137  C     C_1   0.069953 0.599841 0.345910 0.164677
N49   N     N_1   0.090846 0.643402 0.383149 -0.025728
C138  C     C_1   0.943155 0.601990 0.663030 0.156148
N50   N     N_1   0.927677 0.646300 0.629405 -0.017251
C139  C     C_1   0.557034 0.101957 0.337134 0.155531
N51   N     N_1   0.572408 0.146273 0.370725 -0.018636
C140  C     C_1   0.430121 0.099836 0.654111 0.164322
N52   N     N_1   0.409247 0.143399 0.616879 -0.025809
C141  C     C_2   0.098846 0.401401 0.352650 0.988326
O17   O     O_2   0.104300 0.367509 0.297076 -0.667217
O18   O     O_R   0.138649 0.390368 0.462598 -0.800986
H45   H     H_    0.168833 0.352816 0.486033 0.330294
C142  C     C_2   0.917576 0.401429 0.648782 0.993746
O19   O     O_2   0.917585 0.385776 0.571875 -0.637309
O20   O     O_R   0.878852 0.368561 0.688574 -0.805008
H46   H     H_    0.853968 0.332537 0.647789 0.336568
C143  C     C_2   0.583245 0.901527 0.351764 0.992346
O21   O     O_2   0.616932 0.872578 0.316985 -0.639011
O22   O     O_R   0.583700 0.883934 0.440134 -0.799436
H47   H     H_    0.612988 0.846384 0.467549 0.337913
C144  C     C_2   0.401065 0.901427 0.647308 0.990354
O23   O     O_2   0.395686 0.867515 0.702909 -0.667528
O24   O     O_R   0.361092 0.890439 0.537300 -0.800140
H48   H     H_    0.330862 0.852898 0.513847 0.330148
C145  C     C_2   0.705877 0.596832 0.657973 0.940574
O25   O     O_2   0.650713 0.628163 0.654992 -0.683438
O26   O     O_R   0.740971 0.607643 0.597576 -0.777440
H49   H     H_    0.714251 0.642391 0.552609 0.356301
C146  C     C_2   0.302127 0.598929 0.322244 0.956765
O27   O     O_2   0.340557 0.632238 0.300327 -0.658864
O28   O     O_R   0.292328 0.609227 0.406084 -0.788889
H50   H     H_    0.321319 0.645392 0.444307 0.328979
C147  C     C_2   0.197871 0.098940 0.677847 0.956988
O29   O     O_2   0.159447 0.132235 0.699797 -0.659035
O30   O     O_R   0.207652 0.109261 0.594000 -0.788762
H51   H     H_    0.178647 0.145426 0.555796 0.329059
C148  C     C_2   0.794101 0.096862 0.342026 0.939334
O31   O     O_2   0.849077 0.128253 0.344740 -0.684954
O32   O     O_R   0.759206 0.107641 0.402643 -0.777550
H52   H     H_    0.785880 0.142426 0.447501 0.354648
C149  C     C_1   0.769952 0.334416 0.816765 0.081427
N53   N     N_1   0.731761 0.306264 0.740635 -0.031810
C150  C     C_1   0.205553 0.327475 0.189419 0.105193
N54   N     N_1   0.235904 0.303018 0.269263 -0.037860
C151  C     C_1   0.294401 0.827485 0.810565 0.105659
N55   N     N_1   0.264038 0.803026 0.730717 -0.037761
C152  C     C_1   0.730027 0.834447 0.183290 0.088376
N56   N     N_1   0.768181 0.806320 0.259452 -0.017667
C153  C     C_2   0.374081 0.488034 0.538590 1.054879
O33   O     O_2   0.406514 0.484966 0.635556 -0.627929
O34   O     O_R   0.277960 0.487480 0.460023 -0.795932
H53   H     H_    0.243688 0.483711 0.494653 0.326717
C154  C     C_2   0.640774 0.501246 0.447856 1.049258
O35   O     O_2   0.642536 0.538124 0.394481 -0.590860
O36   O     O_R   0.706651 0.459095 0.490824 -0.800364
H54   H     H_    0.754027 0.463794 0.474301 0.320984
C155  C     C_2   0.859291 0.001194 0.552390 1.048776
O37   O     O_2   0.857456 0.038107 0.605653 -0.591607
O38   O     O_R   0.793583 0.958954 0.509687 -0.799268
H55   H     H_    0.746306 0.963587 0.526382 0.320393
C156  C     C_2   0.125876 0.988155 0.461451 1.054860
O39   O     O_2   0.093424 0.985083 0.364480 -0.628126
O40   O     O_R   0.222005 0.987679 0.539992 -0.795857
H56   H     H_    0.256276 0.984012 0.505340 0.326679

loop_
_geom_bond_atom_site_label_1
_geom_bond_atom_site_label_2
_geom_bond_distance
_ccdc_geom_bond_type
C42   C101  1.418545 S    
C1    C33   1.386866 A    
C90   C126  1.482398 S    
C82   C86   1.423177 A    
O32   H52   1.013409 S    
C3    C35   1.375932 A    
C13   C45   1.360385 A    
C153  O33   1.222570 D    
C26   C38   1.387798 A    
C95   C131  1.481181 S    
C96   C132  1.482676 S    
O22   H47   1.013631 S    
C13   H5    1.074011 S    
C56   C156  1.497044 S    
C14   N14   1.327391 A    
C5    H1    1.063821 S    
N5    N25   1.397534 A    
C86   C90   1.520004 S    
C7    H3    1.074415 S    
C22   C46   1.381764 A    
C67   C85   1.397863 A    
N7    N27   1.397534 A    
N2    Ni2   1.882405 S    
C65   C87   1.384647 A    
C18   C42   1.382460 A    
C66   C88   1.397863 A    
C81   C85   1.402857 A    
N10   Ni1   1.881241 S    
C155  O38   1.396201 S    
N18   Ni6   1.882350 S    
C74   C80   1.394188 A    
C118  N38   1.153508 T    
C135  O13   1.221467 D    
N30   Ni1   1.900880 S    
C74   H18   1.076945 S    
C109  C133  1.506748 S    
C92   C128  1.481526 S    
C123  O6    1.393912 S    
C97   C101  1.389068 A    
N20   Ni8   1.882350 S    
C29   C33   1.395232 A    
C22   C146  1.465190 S    
C114  N34   1.155505 T    
O18   H45   1.013843 S    
C31   C35   1.383497 A    
C34   C81   1.474154 S    
N7    Ni7   1.890868 S    
C99   C103  1.396101 A    
C49   C58   1.529225 S    
C123  O5    1.223218 D    
C6    C38   1.386889 A    
C93   H25   1.111895 S    
C51   C60   1.528295 S    
O6    H39   1.013927 S    
C51   C119  1.460879 S    
C129  N45   1.156874 T    
C2    C34   1.375904 A    
C128  N44   1.157498 T    
C32   H12   1.064637 S    
C8    N8    1.323338 A    
C53   C153  1.496978 S    
C73   H17   1.082314 S    
C91   C127  1.482574 S    
C143  O22   1.397014 S    
C102  C106  1.392044 A    
C107  H31   1.081876 S    
C48   C59   1.431822 S    
C25   N25   1.341451 A    
C27   N27   1.333617 A    
C28   N28   1.341305 A    
C112  C136  1.506806 S    
C89   C95   1.516666 S    
C147  O30   1.397140 S    
C50   C118  1.460912 S    
C30   H10   1.065814 S    
C6    N6    1.332971 A    
C21   N21   1.329299 A    
C23   N23   1.331227 A    
C91   C93   1.524568 S    
C71   C75   1.405938 A    
C19   C143  1.474849 S    
C116  N36   1.154698 T    
C69   C73   1.390240 A    
C115  N35   1.155507 T    
C17   N17   1.328765 A    
C50   C57   1.528350 S    
C51   C55   1.532540 S    
C19   N19   1.337363 A    
C20   N20   1.328866 A    
C40   C72   1.456842 S    
C66   C70   1.402231 A    
C94   C130  1.481184 S    
N25   Ni6   1.877024 S    
C24   C148  1.461469 S    
C16   C48   1.360378 A    
C8    C40   1.371688 A    
C136  O15   1.222322 D    
C149  N53   1.157487 T    
C16   H8    1.074015 S    
C56   C63   1.536082 S    
C4    C36   1.386840 A    
C18   N18   1.337073 A    
C137  N49   1.156906 T    
C49   C117  1.466939 S    
C156  O40   1.390718 S    
C63   C64   1.553847 S    
C30   N30   1.341884 A    
N4    N32   1.397534 A    
N19   Ni7   1.882350 S    
C134  O11   1.221465 D    
C79   C83   1.435367 A    
N28   Ni7   1.877023 S    
C154  O36   1.396218 S    
C131  N47   1.157290 T    
C58   C62   1.533081 S    
C140  N52   1.156908 T    
N13   N21   1.386042 A    
C44   C103  1.413539 S    
C133  O9    1.222960 D    
C93   C129  1.482909 S    
N13   Ni6   1.866278 S    
C148  O31   1.218842 D    
C121  O2    1.397980 S    
C14   H6    1.073928 S    
C54   C61   1.538020 S    
C8    H4    1.063787 S    
C6    H2    1.074522 S    
N6    N26   1.397533 A    
C95   H27   1.111915 S    
C124  O7    1.222713 D    
C68   C86   1.384584 A    
C45   C58   1.431864 S    
C64   H16   1.107217 S    
C91   H23   1.111419 S    
C47   C60   1.439009 S    
C87   C91   1.520063 S    
C65   C69   1.392463 A    
C125  N41   1.157498 T    
N26   Ni5   1.877023 S    
C67   C71   1.402272 A    
C99   C112  1.494708 S    
C73   C79   1.399151 A    
C68   C96   1.491532 S    
C21   C145  1.461410 S    
C76   H20   1.082310 S    
C100  C111  1.510239 S    
C122  O3    1.223217 D    
C142  O20   1.397733 S    
C10   C138  1.434966 S    
C61   H13   1.107213 S    
C98   C102  1.396196 A    
C63   H15   1.108763 S    
O36   H54   1.010524 S    
C31   N31   1.341861 A    
C110  C134  1.510041 S    
N9    N17   1.385804 A    
C60   C64   1.540144 S    
N11   N19   1.385802 A    
O8    H40   1.013827 S    
C53   C57   1.539930 S    
N12   N20   1.385801 A    
C37   C69   1.456954 S    
C55   C59   1.530186 S    
C94   H26   1.111881 S    
C12   N12   1.336628 A    
C39   C71   1.461374 S    
O20   H46   1.013723 S    
C146  O28   1.397137 S    
C15   C47   1.373561 A    
C119  N39   1.153491 T    
C145  O26   1.395710 S    
N9    Ni2   1.881245 S    
C26   C150  1.441536 S    
C55   C155  1.493445 S    
C144  O24   1.398363 S    
N1    N29   1.397535 A    
C117  N37   1.156025 T    
C20   C44   1.362854 A    
C55   C64   1.538021 S    
C9    C137  1.436359 S    
C80   C124  1.470057 S    
C108  H32   1.083628 S    
O28   H50   1.013684 S    
C101  C105  1.403763 A    
C46   C57   1.439070 S    
N5    Ni5   1.890868 S    
C104  C108  1.403950 A    
C1    C113  1.428554 S    
C26   N26   1.333572 A    
C49   C50   1.534693 S    
O10   H41   1.013191 S    
C14   C46   1.373519 A    
O16   H44   1.013107 S    
C67   C95   1.504230 S    
C109  C110  1.524626 S    
C7    N7    1.333028 A    
C22   N22   1.331260 A    
C65   C93   1.491595 S    
C1    N1    1.328022 A    
C97   C110  1.510419 S    
C27   C39   1.387788 A    
C3    N3    1.337780 A    
C70   C74   1.405970 A    
C76   C78   1.399157 A    
O12   H42   1.013585 S    
C110  H34   1.110499 S    
C38   C70   1.461337 S    
C9    N9    1.336500 A    
C23   C47   1.381690 A    
N15   N23   1.386042 A    
N16   N24   1.386041 A    
C132  N48   1.156774 T    
C106  H30   1.081873 S    
C84   C88   1.402859 A    
C68   C72   1.392361 A    
C20   C144  1.479131 S    
O40   H56   1.009792 S    
C143  O21   1.222690 D    
N11   Ni4   1.881245 S    
N29   Ni2   1.900933 S    
N31   Ni4   1.900933 S    
N2    N30   1.397534 A    
C153  O34   1.390677 S    
C30   C34   1.383466 A    
C9    C41   1.374826 A    
O2    H37   1.013838 S    
C52   C120  1.466938 S    
C88   C92   1.510836 S    
C2    C114  1.436412 S    
C126  N42   1.158144 T    
C78   C82   1.435355 A    
C150  N54   1.157429 T    
C7    C39   1.386834 A    
C121  O1    1.222709 D    
C28   C152  1.440597 S    
C56   C60   1.539923 S    
C152  N56   1.157485 T    
C147  O29   1.222386 D    
C75   C77   1.394205 A    
C111  H35   1.110434 S    
O4    H38   1.013927 S    
N14   N22   1.386041 A    
C3    C115  1.436417 S    
C18   C142  1.474782 S    
C12   C44   1.374989 A    
C135  O14   1.400015 S    
C15   H7    1.073917 S    
C24   C48   1.384920 A    
C32   N32   1.337967 A    
C52   C56   1.531744 S    
C17   C41   1.362733 A    
C61   C62   1.553858 S    
N24   Ni4   1.891415 S    
C77   C81   1.402575 A    
C90   H22   1.111441 S    
C23   C147  1.465207 S    
C80   C84   1.402562 A    
C41   C102  1.413093 S    
C17   C141  1.479178 S    
O26   H49   1.013405 S    
C156  O39   1.222567 D    
C141  O17   1.221244 D    
C79   C123  1.469490 S    
C29   H9    1.064639 S    
C43   C104  1.418979 S    
C31   H11   1.065888 S    
C10   C42   1.365361 A    
C113  N33   1.154705 T    
N10   N18   1.385801 A    
C100  C104  1.389092 A    
C154  O35   1.220232 D    
C10   N10   1.330623 A    
C13   N13   1.319498 A    
C51   C52   1.534686 S    
C89   H21   1.109978 S    
C85   C89   1.510838 S    
C32   C36   1.395351 A    
C4    C116  1.428516 S    
O38   H55   1.010541 S    
C92   H24   1.109974 S    
C97   C98   1.373527 A    
C151  N55   1.157428 T    
N4    Ni4   1.882405 S    
C4    N4    1.328035 A    
N16   Ni7   1.866225 S    
C77   C121  1.470059 S    
C105  C106  1.383529 A    
C83   C87   1.423303 A    
C12   C140  1.436346 S    
N12   Ni3   1.881241 S    
C139  N51   1.156822 T    
C75   H19   1.076931 S    
N32   Ni3   1.900880 S    
C29   N29   1.337915 A    
C111  C135  1.510024 S    
C33   C82   1.488611 S    
C122  O4    1.393907 S    
C27   C151  1.441535 S    
C107  C108  1.383821 A    
N8    Ni8   1.890923 S    
C11   N11   1.330891 A    
C142  O19   1.222355 D    
C57   C61   1.540145 S    
C99   C100  1.373304 A    
O34   H53   1.009761 S    
C11   C43   1.365795 A    
C66   C94   1.504210 S    
C2    N2    1.337799 A    
C98   C109  1.494907 S    
C89   C125  1.481527 S    
N14   Ni5   1.866225 S    
C72   C76   1.390237 A    
C49   C53   1.531754 S    
C136  O16   1.398773 S    
N21   Ni1   1.891363 S    
C53   C62   1.536054 S    
N23   Ni3   1.891363 S    
C141  O18   1.398360 S    
C109  H33   1.113123 S    
N3    N31   1.397535 A    
C146  O27   1.222386 D    
C103  C107  1.392132 A    
C112  H36   1.113102 S    
C134  O12   1.400026 S    
N8    N28   1.397533 A    
C111  C112  1.525019 S    
N27   Ni8   1.877024 S    
C54   C154  1.493452 S    
C35   C84   1.474120 S    
C105  H29   1.083651 S    
C36   C83   1.488760 S    
C144  O23   1.221247 D    
C96   H28   1.111896 S    
C62   H14   1.108773 S    
C5    N5    1.323401 A    
O24   H48   1.013845 S    
C92   C94   1.516660 S    
C90   C96   1.524398 S    
C133  O10   1.399015 S    
O30   H51   1.013686 S    
C25   C37   1.398108 A    
C138  N50   1.156822 T    
C54   C58   1.530217 S    
C127  N43   1.158209 T    
C21   C45   1.385008 A    
C52   C59   1.529231 S    
N1    Ni1   1.882405 S    
O14   H43   1.013587 S    
C124  O8    1.397968 S    
N3    Ni3   1.882405 S    
C78   C122  1.469497 S    
C19   C43   1.381847 A    
N17   Ni5   1.882349 S    
C28   C40   1.398021 A    
N15   Ni8   1.866278 S    
C148  O32   1.395710 S    
C15   N15   1.327404 A    
C50   C54   1.532524 S    
C155  O37   1.220230 D    
C16   N16   1.319504 A    
N22   Ni2   1.891415 S    
C25   C149  1.440620 S    
C11   C139  1.434985 S    
C130  N46   1.157292 T    
C59   C63   1.533120 S    
N6    Ni6   1.890923 S    
C120  N40   1.156027 T    
C145  O25   1.218810 D    
C24   N24   1.329347 A    
C5    C37   1.371574 A    
