data_mof_unit_36891.cif
_audit_creation_date              2012-12-10T19:05:18-0500
_audit_creation_method            fapswitch 2.2
_symmetry_space_group_name_H-M    P1
_symmetry_Int_Tables_number       1
_space_group_crystal_system       triclinic
_cell_length_a                    9.577116
_cell_length_b                    10.79425
_cell_length_c                    17.391826
_cell_angle_alpha                 90.27755
_cell_angle_beta                  85.258786
_cell_angle_gamma                 89.929911
_cell_volume                      1791.75286599

loop_
_atom_site_label
_atom_site_type_symbol
_atom_type_description
_atom_site_fract_x
_atom_site_fract_y
_atom_site_fract_z
_atom_type_partial_charge
C1    C     C_R   0.499938 0.737421 0.499161 0.785600
C2    C     C_R   0.349335 0.460766 0.775643 -0.196572
C3    C     C_R   0.413288 0.549953 0.149767 -0.148660
C4    C     C_R   0.409040 0.540924 0.229335 -0.252811
C5    C     C_R   0.658378 0.494810 0.220642 0.434499
C6    C     C_R   0.660380 0.499005 0.140255 -0.259226
C7    C     C_R   0.538425 0.525741 0.104430 0.128974
C8    C     C_2   0.434584 0.521654 0.978966 -0.222478
C9    C     C_2   0.547166 0.529497 0.019738 -0.194498
C10   C     C_R   0.530023 0.511131 0.265679 -0.127159
C11   C     C_R   0.381139 0.936225 0.524605 0.122326
C12   C     C_R   0.480779 0.501225 0.649543 0.782999
C13   C     C_R   0.498682 0.870569 0.494351 -0.083668
C14   C     C_R   0.611427 0.934748 0.456373 -0.221655
C15   C     C_R   0.610983 0.064050 0.456194 -0.212411
C16   C     C_R   0.499043 0.129042 0.495078 -0.084214
C17   C     C_R   0.381737 0.063889 0.525532 0.113847
C18   C     C_3   0.310742 0.069324 0.605394 -0.487412
C19   C     C_3   0.308407 0.928896 0.603764 -0.466592
C20   C     C_R   0.924484 0.393575 0.513144 0.249060
C21   C     C_R   0.926975 0.607092 0.492123 -0.094716
C22   C     C_R   0.075121 0.607116 0.492181 -0.091330
C23   C     C_R   0.500044 0.262464 0.499461 0.801531
C24   C     C_R   0.071694 0.393267 0.512293 0.204549
C25   C     C_3   0.082425 0.275613 0.465959 -0.287052
C26   C     C_3   0.923711 0.276521 0.467297 -0.548123
C27   C     C_R   0.519223 0.502106 0.350125 0.821706
C28   C     C_R   0.468150 0.508009 0.733349 -0.024164
C29   C     C_R   0.574013 0.565083 0.771463 -0.205758
C30   C     C_R   0.562423 0.573472 0.851309 -0.147520
C31   C     C_R   0.446448 0.521283 0.894240 0.184994
C32   C     C_R   0.338874 0.467049 0.855820 -0.168084
Cu1   Cu    Cu3+1 0.359330 0.500020 0.500000 0.949270
Cu2   Cu    Cu3+1 0.640670 0.499980 0.500000 0.952964
H1    H     H_    0.664615 0.605157 0.739437 0.149902
H2    H     H_    0.758009 0.481238 0.105846 0.138975
H3    H     H_    0.700465 0.885354 0.428546 0.146202
H4    H     H_    0.698673 0.112718 0.427204 0.157872
H5    H     H_    0.379375 0.108063 0.648129 0.196734
H6    H     H_    0.204445 0.110964 0.607565 0.190371
H7    H     H_    0.374363 0.885811 0.646141 0.196070
H8    H     H_    0.201104 0.889877 0.603117 0.195068
H9    H     H_    0.874113 0.693864 0.484064 0.144373
H10   H     H_    0.130163 0.693947 0.484392 0.148147
H11   H     H_    0.310606 0.559089 0.262566 0.181874
H12   H     H_    0.123198 0.196641 0.497850 0.151047
H13   H     H_    0.881303 0.290085 0.410204 0.226986
H14   H     H_    0.874980 0.199424 0.502031 0.191037
H15   H     H_    0.651408 0.531670 0.990236 0.139384
H16   H     H_    0.247851 0.427822 0.887909 0.124677
H17   H     H_    0.318296 0.576931 0.124765 0.133530
H18   H     H_    0.266073 0.417180 0.746818 0.146510
H19   H     H_    0.331256 0.506625 0.007663 0.142708
H20   H     H_    0.643936 0.621823 0.878666 0.122914
N1    N     N_R   0.852130 0.499070 0.499500 -0.179627
N2    N     N_R   0.148040 0.499110 0.499500 -0.187622
O1    O     O_R   0.381190 0.680360 0.500000 -0.591320
O2    O     O_R   0.618770 0.680320 0.499990 -0.599500
O3    O     O_R   0.367430 0.500040 0.613600 -0.582706
O4    O     O_R   0.605020 0.500000 0.613590 -0.579683
O5    O     O_R   0.381230 0.319680 0.500010 -0.584799
O6    O     O_R   0.618810 0.319640 0.500000 -0.581729
O7    O     O_R   0.394980 0.500000 0.386410 -0.576635
O8    O     O_R   0.632570 0.499960 0.386400 -0.545540
C33   C     C_1   0.152360 0.289416 0.387847 0.361892
N3    N     N_1   0.207486 0.299229 0.326425 -0.298655
O9    O     O_3   0.780581 0.467504 0.254126 -0.566800
C34   C     C_3   0.861850 0.576540 0.255620 0.069561
H21   H     H_    0.807936 0.647069 0.294577 0.144118
H22   H     H_    0.883099 0.616827 0.196932 0.123972
C35   C     C_3   0.001909 0.545821 0.285903 -0.752278
H23   H     H_    0.062181 0.482694 0.244881 0.248767
H24   H     H_    0.062839 0.632120 0.292520 0.181696
H25   H     H_    0.985075 0.499860 0.342733 0.264287

loop_
_geom_bond_atom_site_label_1
_geom_bond_atom_site_label_2
_ccdc_geom_bond_type
C10   C27   S    
C5    O9    S    
C30   H20   S    
C11   C19   S    
C12   C28   S    
C28   C29   A    
C3    C7    A    
C5    C6    A    
C16   C17   A    
C15   C16   A    
Cu2   O6    S    
C2    C32   A    
C18   C19   S    
C18   H6    S    
C21   H9    S    
C12   O3    A    
C23   O6    A    
C22   H10   S    
C20   C24   A    
C8    C9    D    
C19   H8    S    
C26   H14   S    
Cu1   N2    S    
Cu2   N1    S    
Cu1   O3    S    
C21   C22   A    
Cu2   O4    S    
C20   N1    A    
C5    C10   A    
C17   C18   S    
C4    H11   S    
O9    C34   S    
C9    H15   S    
C24   C25   S    
C35   H24   S    
C3    H17   S    
C34   H21   S    
C22   N2    A    
C25   C26   S    
C18   H5    S    
C15   H4    S    
C29   C30   A    
C1    O1    A    
C31   C32   A    
Cu1   O7    S    
Cu2   O8    S    
Cu1   Cu2   S    
C25   C33   S    
C32   H16   S    
C2    H18   S    
C26   H13   S    
Cu1   O5    S    
C16   C23   S    
C1    C13   S    
C4    C10   A    
C3    C4    A    
C21   N1    A    
C7    C9    S    
C11   C17   A    
Cu1   O1    S    
C8    C31   S    
C8    H19   S    
C35   H25   S    
C6    C7    A    
C24   N2    A    
C29   H1    S    
C35   H23   S    
C1    O2    A    
C14   H3    S    
C11   C13   A    
C30   C31   A    
C20   C26   S    
C34   C35   S    
C6    H2    S    
C27   O8    A    
C12   O4    A    
C23   O5    A    
C34   H22   S    
C33   N3    T    
Cu2   O2    S    
C14   C15   A    
C27   O7    A    
C2    C28   A    
C13   C14   A    
C25   H12   S    
C19   H7    S    
