data_mof_unit_12042.cif
_audit_creation_date              2012-12-11T17:23:06-0500
_audit_creation_method            fapswitch 2.2
_symmetry_space_group_name_H-M    P1
_symmetry_Int_Tables_number       1
_space_group_crystal_system       triclinic
_cell_length_a                    22.407706
_cell_length_b                    7.094201
_cell_length_c                    19.39538
_cell_angle_alpha                 89.929896
_cell_angle_beta                  99.595904
_cell_angle_gamma                 89.925631
_cell_volume                      3040.03630628

loop_
_atom_site_label
_atom_site_type_symbol
_atom_type_description
_atom_site_fract_x
_atom_site_fract_y
_atom_site_fract_z
_atom_type_partial_charge
O1    O     O_R   0.443980 0.494320 0.557430 -0.533896
O2    O     O_R   0.556020 0.994320 0.442570 -0.533810
O3    O     O_R   0.441210 0.822520 0.414610 -0.536728
O4    O     O_R   0.558790 0.322520 0.585390 -0.537871
C1    C     C_R   0.426676 0.655657 0.388721 0.704549
C2    C     C_R   0.573307 0.155191 0.611264 0.702003
O5    O     O_R   0.436920 0.823940 0.555180 -0.536294
O6    O     O_R   0.563080 0.323940 0.444820 -0.536585
O7    O     O_R   0.551700 0.995760 0.584140 -0.534797
O8    O     O_R   0.448300 0.495760 0.415860 -0.535054
C3    C     C_R   0.421635 0.655416 0.574905 0.717966
C4    C     C_R   0.578315 0.155401 0.425044 0.717637
O9    O     O_3   0.537660 0.661290 0.509340 -0.370903
O10   O     O_3   0.462340 0.161290 0.490660 -0.370142
V1    V     V_3+5 0.493010 0.935560 0.498270 1.427458
V2    V     V_3+5 0.506990 0.435560 0.501730 1.424758
H1    H     H_    0.734688 0.843998 0.324528 0.120525
H2    H     H_    0.315558 0.340548 0.737991 0.117165
C5    C     C_R   0.783536 0.953771 0.246803 -0.157816
C6    C     C_R   0.244484 0.452536 0.788130 -0.131685
H3    H     H_    0.809995 0.826008 0.246139 0.140324
H4    H     H_    0.240489 0.323183 0.816759 0.136957
C7    C     C_R   0.792448 0.105881 0.203164 0.044766
C8    C     C_R   0.206958 0.607083 0.796167 0.051563
C9    C     C_R   0.757059 0.272310 0.204982 -0.009674
C10   C     C_R   0.213119 0.775461 0.758048 -0.008362
C11   C     C_R   0.713891 0.279282 0.250575 -0.204536
C12   C     C_R   0.256469 0.782033 0.712638 -0.197994
H5    H     H_    0.686753 0.404953 0.252934 0.157650
H6    H     H_    0.261895 0.909638 0.683505 0.152145
C13   C     C_R   0.705555 0.126530 0.293957 0.106933
C14   C     C_R   0.293618 0.626735 0.705037 0.105140
C15   C     C_R   0.740560 0.963754 0.291606 -0.124659
C16   C     C_R   0.287318 0.462119 0.743107 -0.128387
C17   C     C_1   0.837778 0.086154 0.157440 0.017520
C18   C     C_1   0.161861 0.586721 0.842124 0.016971
C19   C     C_1   0.661006 0.137229 0.340741 -0.046297
C20   C     C_1   0.338503 0.637305 0.658663 -0.044217
C21   C     C_1   0.623576 0.146109 0.379455 -0.185379
C22   C     C_1   0.376169 0.646147 0.620240 -0.185221
C23   C     C_1   0.875840 0.072640 0.119681 -0.130744
C24   C     C_1   0.124005 0.572711 0.880124 -0.148020
C25   C     C_R   0.630243 0.162546 0.805673 0.154952
C26   C     C_R   0.368396 0.695006 0.195176 0.152715
H7    H     H_    0.543728 0.184344 0.737861 0.104020
H8    H     H_    0.454771 0.718391 0.263045 0.108546
H9    H     H_    0.717143 0.153039 0.922326 0.144387
H10   H     H_    0.281336 0.690048 0.078660 0.140251
C27   C     C_R   0.615190 0.147091 0.678621 -0.066994
C28   C     C_R   0.384749 0.650019 0.321347 -0.069210
C29   C     C_R   0.909709 0.051187 0.760296 -0.158933
C30   C     C_R   0.091088 0.534991 0.239374 -0.162696
C31   C     C_R   0.872814 0.054030 0.695201 -0.116084
C32   C     C_R   0.128244 0.531693 0.304298 -0.116968
C33   C     C_R   0.810389 0.076541 0.689585 -0.157195
C34   C     C_R   0.190379 0.560601 0.310028 -0.153661
C35   C     C_R   0.782742 0.097355 0.749716 0.090047
C36   C     C_R   0.217451 0.594373 0.250199 0.088837
C37   C     C_R   0.821195 0.095229 0.816521 0.068998
C38   C     C_R   0.178667 0.599656 0.183617 0.071195
C39   C     C_R   0.718413 0.119769 0.745634 0.046026
C40   C     C_R   0.281504 0.623293 0.254398 0.045686
C41   C     C_R   0.693884 0.139764 0.808683 0.107726
C42   C     C_R   0.305261 0.661021 0.191852 0.111243
C43   C     C_R   0.733391 0.137723 0.873261 -0.196610
C44   C     C_R   0.265542 0.663947 0.127428 -0.201871
C45   C     C_R   0.795402 0.115672 0.877057 -0.189505
C46   C     C_R   0.203888 0.633550 0.123425 -0.196905
C47   C     C_R   0.677591 0.123385 0.680984 -0.221042
C48   C     C_R   0.322773 0.616750 0.318704 -0.221044
C49   C     C_R   0.592145 0.166761 0.740545 -0.197769
C50   C     C_R   0.406882 0.689611 0.260017 -0.197623
C51   C     C_R   0.884901 0.071777 0.821320 -0.084722
C52   C     C_R   0.115263 0.569216 0.178663 -0.084182
H11   H     H_    0.692622 0.109483 0.631320 0.099424
H12   H     H_    0.308355 0.588430 0.367945 0.102174
H13   H     H_    0.958077 0.032575 0.763135 0.116214
H14   H     H_    0.043006 0.510295 0.236413 0.112095
H15   H     H_    0.785229 0.076665 0.637235 0.108540
H16   H     H_    0.215761 0.555911 0.362242 0.111699
H17   H     H_    0.892805 0.038075 0.648420 0.126219
H18   H     H_    0.108699 0.505648 0.350838 0.126636
H19   H     H_    0.823182 0.114892 0.928415 0.114276
H20   H     H_    0.175899 0.637751 0.072217 0.111875
O11   O     O_R   0.051730 0.724670 0.084120 -0.535279
O12   O     O_R   0.948270 0.224670 0.915880 -0.534340
O13   O     O_R   0.063080 0.393540 0.944820 -0.540908
O14   O     O_R   0.936920 0.893540 0.055180 -0.534308
C53   C     C_R   0.078254 0.562183 0.924991 0.704801
C54   C     C_R   0.921728 0.062197 0.074981 0.706390
O15   O     O_R   0.058800 0.395030 0.085390 -0.537185
O16   O     O_R   0.941200 0.895030 0.914610 -0.536069
O17   O     O_R   0.943980 0.223310 0.057440 -0.525053
O18   O     O_R   0.056020 0.723310 0.942560 -0.525561
C55   C     C_R   0.073053 0.563285 0.111235 0.679420
C56   C     C_R   0.927021 0.063719 0.888747 0.679871
O19   O     O_3   0.962360 0.556290 0.990650 -0.364426
O20   O     O_3   0.037640 0.056290 0.009350 -0.370424
V3    V     V_3+5 0.006980 0.281990 0.001730 1.455040
V4    V     V_3+5 0.993020 0.781990 0.998270 1.465756
C57   C     C_2   0.763433 0.441034 0.160726 0.725090
O21   O     O_2   0.806833 0.457871 0.130479 -0.562508
O22   O     O_R   0.719528 0.583309 0.154165 -0.672230
H21   H     H_    0.728763 0.690878 0.123125 0.297649
C58   C     C_2   0.175583 0.946361 0.764268 0.727383
O23   O     O_2   0.169207 0.065169 0.717827 -0.562380
O24   O     O_R   0.148415 0.974751 0.823320 -0.667200
H22   H     H_    0.124717 0.097109 0.821152 0.291029
C59   C     C_3   0.600839 0.182318 0.870366 -0.374083
C60   C     C_3   0.595090 0.991277 0.905079 -0.740756
H23   H     H_    0.566221 0.895771 0.868322 0.227130
H24   H     H_    0.640030 0.924266 0.921122 0.228103
H25   H     H_    0.573699 0.010441 0.952282 0.220039
H26   H     H_    0.626159 0.283414 0.907936 0.177722
H27   H     H_    0.554580 0.242879 0.856479 0.178302
C61   C     C_3   0.396668 0.741203 0.131322 -0.373673
C62   C     C_3   0.385373 0.946720 0.109253 -0.740033
H28   H     H_    0.336234 0.977594 0.096168 0.228065
H29   H     H_    0.405896 0.041899 0.152159 0.230603
H30   H     H_    0.406455 0.976062 0.062462 0.216131
H31   H     H_    0.446478 0.718713 0.142599 0.182503
H32   H     H_    0.379888 0.644534 0.087438 0.171664

loop_
_geom_bond_atom_site_label_1
_geom_bond_atom_site_label_2
_ccdc_geom_bond_type
C36   C40   A    
C44   C46   A    
C41   C43   A    
C45   H19   S    
C57   O21   D    
H7    C49   S    
C18   C24   T    
O1    C3    A    
O2    C4    A    
C2    O7    A    
C25   C41   A    
C26   C42   A    
O5    C3    A    
C58   O24   S    
C8    C18   S    
C61   H32   S    
C5    H3    S    
C8    C10   A    
C30   C52   A    
C62   H29   S    
C35   C37   A    
C11   H5    S    
C36   C38   A    
O16   C56   A    
C61   C62   S    
C40   C48   A    
C31   H17   S    
C38   C52   A    
C53   O18   A    
C39   C41   A    
C28   C50   A    
C60   H23   S    
C40   C42   A    
C37   C45   A    
C6    C8    A    
C43   C45   A    
O24   H22   S    
C13   C15   A    
C26   C50   A    
C14   C20   S    
O17   V3    S    
H8    C50   S    
C6    C16   A    
O5    V1    S    
C23   C54   S    
C57   O22   S    
C27   C47   A    
H1    C15   S    
C30   H14   S    
C10   C58   S    
O19   V3    S    
C30   C32   A    
O13   V3    S    
C31   C33   A    
C32   C34   A    
C61   H31   S    
C11   C13   A    
C46   H20   S    
C12   C14   A    
O4    C2    A    
C5    C15   A    
C62   H30   S    
C13   C19   S    
C29   C31   A    
C14   C16   A    
O4    V2    S    
C5    C7    A    
C29   H13   S    
O12   V3    S    
C33   H15   S    
O18   V4    S    
O6    C4    A    
O1    V2    S    
O2    V1    S    
H2    C16   S    
C60   H25   S    
C26   C61   S    
O14   V4    S    
O12   C56   A    
C59   H26   S    
O14   C54   A    
C7    C17   S    
C33   C35   A    
C48   H12   S    
C1    C28   S    
C32   H18   S    
O19   V4    S    
O3    V1    S    
O16   V4    S    
C54   O17   A    
C39   C47   A    
C37   C51   A    
C25   C49   A    
C52   C55   S    
C29   C51   A    
C6    H4    S    
O3    C1    A    
C35   C39   A    
C9    C11   A    
C58   O23   D    
C10   C12   A    
C34   H16   S    
C24   C53   S    
H10   C44   S    
C4    C21   S    
O13   C53   A    
C28   C48   A    
C1    O8    A    
C19   C21   T    
O11   V4    S    
O8    V2    S    
C59   C60   S    
C20   C22   T    
O11   C55   A    
C9    C57   S    
C12   H6    S    
C34   C36   A    
C47   H11   S    
C7    C9    A    
C2    C27   S    
O7    V1    S    
C3    C22   S    
C17   C23   T    
O20   V4    S    
C60   H24   S    
C59   H27   S    
O15   C55   A    
C38   C46   A    
O6    V2    S    
O20   V3    S    
C27   C49   A    
O9    V2    S    
O22   H21   S    
O10   V1    S    
C25   C59   S    
C51   C56   S    
O15   V3    S    
C62   H28   S    
H9    C43   S    
C42   C44   A    
