data_mof_unit_24166.cif
_audit_creation_date              2012-12-10T16:54:57-0500
_audit_creation_method            fapswitch 2.2
_symmetry_space_group_name_H-M    P1
_symmetry_Int_Tables_number       1
_space_group_crystal_system       triclinic
_cell_length_a                    7.762979
_cell_length_b                    8.582558
_cell_length_c                    15.724084
_cell_angle_alpha                 90.859832
_cell_angle_beta                  85.806525
_cell_angle_gamma                 93.503758
_cell_volume                      1042.82008367

loop_
_atom_site_label
_atom_site_type_symbol
_atom_type_description
_atom_site_fract_x
_atom_site_fract_y
_atom_site_fract_z
_atom_type_partial_charge
C1    C     C_R   0.545258 0.793987 0.492146 0.939738
C2    C     C_3   0.394861 0.645346 0.052363 0.727603
C3    C     C_3   0.501978 0.508558 0.082620 0.131793
C4    C     C_3   0.413675 0.352895 0.050853 -0.506061
C5    C     C_3   0.427065 0.347579 0.952607 -0.424786
C6    C     C_1   0.496585 0.506020 0.174424 0.021658
C7    C     C_1   0.507113 0.503067 0.825629 -0.045719
C8    C     C_1   0.506208 0.501224 0.750326 -0.187751
C9    C     C_2   0.567394 0.954347 0.472493 -0.005802
C10   C     C_2   0.434630 0.041758 0.498739 -0.390448
C11   C     C_R   0.501952 0.500017 0.661610 0.904240
C12   C     C_R   0.454894 0.205431 0.498185 0.956399
C13   C     C_R   0.498111 0.500143 0.338402 0.886640
C14   C     C_3   0.394402 0.638431 0.953478 -0.438714
C15   C     C_3   0.692608 0.534905 0.944489 -0.456524
C16   C     C_3   0.694759 0.524003 0.042999 0.697311
C17   C     C_1   0.495037 0.503218 0.249742 -0.144349
C18   C     C_3   0.505524 0.505783 0.917128 0.159282
H1    H     H_    0.259271 0.617408 0.934680 0.213876
H2    H     H_    0.472327 0.249641 0.076060 0.185675
H3    H     H_    0.314453 0.993075 0.530436 0.153634
H4    H     H_    0.013609 0.381783 0.436637 0.195757
H5    H     H_    0.986346 0.618187 0.563360 0.193419
H6    H     H_    0.444070 0.751386 0.924249 0.146347
H7    H     H_    0.777938 0.449684 0.911407 0.166751
H8    H     H_    0.744872 0.652763 0.923197 0.198598
H9    H     H_    0.296044 0.321248 0.929568 0.195743
H10   H     H_    0.509614 0.251737 0.929630 0.187430
H11   H     H_    0.274916 0.342574 0.074681 0.243122
N1    N     N_2   0.950340 0.457950 0.477370 -0.169006
N2    N     N_2   0.049660 0.542050 0.522630 -0.169077
O1    O     O_R   0.389240 0.738570 0.505550 -0.631181
O2    O     O_R   0.678400 0.711630 0.491050 -0.622785
O3    O     O_R   0.355360 0.513470 0.630110 -0.611817
O4    O     O_R   0.644510 0.486530 0.615610 -0.620552
O5    O     O_R   0.321600 0.288370 0.508950 -0.631945
O6    O     O_R   0.610760 0.261430 0.494450 -0.603224
O7    O     O_R   0.355490 0.513470 0.384390 -0.612661
O8    O     O_R   0.644640 0.486530 0.369890 -0.610225
Zn1   Zn    Zn3+2 0.306930 0.517990 0.509680 0.951226
Zn2   Zn    Zn3+2 0.693070 0.482010 0.490320 0.950752
C19   C     C_3   0.459803 0.809666 0.081996 -0.788386
H12   H     H_    0.363232 0.895203 0.069239 0.233832
H13   H     H_    0.476267 0.812883 0.151525 0.245925
H14   H     H_    0.583375 0.849841 0.047019 0.236961
F1    F     F_    0.224928 0.622911 0.086404 -0.640371
C20   C     C_3   0.727767 0.010095 0.417068 -0.802368
H15   H     H_    0.788439 0.911169 0.382606 0.239107
H16   H     H_    0.693175 0.090985 0.367364 0.240049
H17   H     H_    0.825930 0.067717 0.456950 0.250519
F2    F     F_    0.778256 0.658465 0.073762 -0.646870
C21   C     C_3   0.803484 0.387846 0.066393 -0.789724
H18   H     H_    0.759288 0.276074 0.036355 0.183812
H19   H     H_    0.940950 0.413238 0.043340 0.272038
H20   H     H_    0.799031 0.373051 0.136537 0.241103

loop_
_geom_bond_atom_site_label_1
_geom_bond_atom_site_label_2
_ccdc_geom_bond_type
C15   C18   S    
C21   H20   S    
N1    Zn2   S    
C12   O5    A    
C5    H10   S    
C9    C10   D    
C14   C18   S    
C20   H15   S    
C11   O3    A    
C16   F2    S    
C13   C17   S    
C3    C6    S    
O2    Zn2   S    
C7    C18   S    
C11   O4    A    
C2    C3    S    
C1    O2    A    
C7    C8    T    
C20   H16   S    
C2    F1    S    
O7    Zn1   S    
C13   O7    A    
C19   H13   S    
C2    C19   S    
C8    C11   S    
C2    C14   S    
C15   C16   S    
C10   C12   S    
C21   H19   S    
C9    C20   S    
C20   H17   S    
O1    Zn1   S    
C10   H3    S    
O6    Zn2   S    
N1    N2    D    
O4    Zn2   S    
O3    Zn1   S    
C13   O8    A    
C15   H7    S    
C19   H12   S    
C3    C4    S    
C4    H2    S    
C16   C21   S    
O5    Zn1   S    
C1    C9    S    
C21   H18   S    
O8    Zn2   S    
C14   H6    S    
C12   O6    A    
C6    C17   T    
C15   H8    S    
C5    C18   S    
H4    N1    S    
N2    Zn1   S    
C5    H9    S    
C14   H1    S    
C1    O1    A    
C3    C16   S    
C4    H11   S    
C4    C5    S    
C19   H14   S    
H5    N2    S    
