data_mof_unit_35398.cif
_audit_creation_date              2012-10-26T19:15:25-0400
_audit_creation_method            fapswitch 2.2
_symmetry_space_group_name_H-M    P1
_symmetry_Int_Tables_number       1
_space_group_crystal_system       triclinic
_cell_length_a                    15.976425
_cell_length_b                    10.903512
_cell_length_c                    9.574823
_cell_angle_alpha                 89.856884
_cell_angle_beta                  90.363119
_cell_angle_gamma                 91.230678
_cell_volume                      1667.50306148

loop_
_atom_site_label
_atom_site_type_symbol
_atom_type_description
_atom_site_fract_x
_atom_site_fract_y
_atom_site_fract_z
_atom_type_partial_charge
C1    C     C_R   0.496206 0.263052 0.500197 0.543904
C2    C     C_R   0.506898 0.939196 0.371344 0.065547
C3    C     C_R   0.494020 0.870865 0.496412 0.024846
C4    C     C_R   0.341449 0.499783 0.499630 0.534232
C5    C     C_R   0.472901 0.937018 0.615259 -0.001510
C6    C     C_3   0.459574 0.925295 0.770082 0.163104
C7    C     C_3   0.450878 0.069947 0.770655 0.156769
C8    C     C_R   0.572853 0.518589 0.073592 0.206102
C9    C     C_R   0.431166 0.460235 0.072447 0.193159
C10   C     C_R   0.430854 0.464966 0.923811 -0.025528
C11   C     C_R   0.573023 0.514145 0.926722 0.128395
C12   C     C_R   0.045382 0.521392 0.614106 -0.116126
C13   C     C_3   0.635341 0.615700 0.913140 -0.237721
C14   C     C_3   0.631215 0.628576 0.071369 -0.056953
C15   C     C_R   0.499125 0.737607 0.499493 0.563925
C16   C     C_R   0.658611 0.499749 0.500427 0.544678
C17   C     C_R   0.958082 0.521188 0.616910 0.102781
C18   C     C_R   0.912713 0.492057 0.494762 0.058925
C19   C     C_R   0.954389 0.460794 0.369642 0.014491
C20   C     C_R   0.043356 0.457152 0.369613 0.041416
C21   C     C_R   0.087628 0.490279 0.492729 0.008047
C22   C     C_3   0.903372 0.433458 0.237995 -0.277700
C23   C     C_1   0.822753 0.495292 0.498978 -0.034547
C24   C     C_3   0.873040 0.299797 0.234654 -0.431710
C25   C     C_3   0.091693 0.417191 0.241342 -0.268015
C26   C     C_3   0.119313 0.527432 0.153007 -0.432562
C27   C     C_3   0.384416 0.839677 0.812296 -0.227082
C28   C     C_3   0.311804 0.829064 0.707078 -0.442213
C29   C     C_3   0.363478 0.121602 0.813189 -0.243811
C30   C     C_3   0.313999 0.182792 0.695620 -0.447138
C31   C     C_1   0.177391 0.494122 0.496949 -0.070880
C32   C     C_1   0.252431 0.497161 0.498791 -0.039659
C33   C     C_1   0.747713 0.497660 0.500865 -0.033862
C34   C     C_R   0.467537 0.061252 0.615502 0.001045
C35   C     C_R   0.488897 0.130880 0.498364 -0.035375
C36   C     C_R   0.504876 0.067737 0.373901 -0.160874
Cu1   Cu    Cu3+1 0.500000 0.499980 0.640670 0.908450
Cu2   Cu    Cu3+1 0.500000 0.500020 0.359330 0.981954
H1    H     H_    0.080826 0.545547 0.707419 0.103356
H2    H     H_    0.310563 0.391121 0.071990 0.177359
H3    H     H_    0.709155 0.638974 0.240006 0.248346
H4    H     H_    0.757499 0.659177 0.089244 0.218050
H5    H     H_    0.883902 0.473016 0.778690 0.226373
H6    H     H_    0.957531 0.578272 0.821400 0.215480
H7    H     H_    0.927004 0.237350 0.237805 0.142616
H8    H     H_    0.831776 0.279333 0.325024 0.160731
H9    H     H_    0.836874 0.282425 0.137020 0.146324
H10   H     H_    0.848569 0.493871 0.232075 0.173389
H11   H     H_    0.938863 0.455065 0.141689 0.137714
H12   H     H_    0.375179 0.437009 0.866645 0.120966
H13   H     H_    0.064299 0.580351 0.118377 0.139433
H14   H     H_    0.162271 0.588696 0.213788 0.171300
H15   H     H_    0.152887 0.495269 0.059201 0.130447
H16   H     H_    0.147837 0.365229 0.272896 0.150000
H17   H     H_    0.054763 0.351661 0.176152 0.133645
H18   H     H_    0.476469 0.902833 0.171212 0.225677
H19   H     H_    0.580600 0.916407 0.203520 0.213125
H20   H     H_    0.285770 0.919387 0.681322 0.144857
H21   H     H_    0.332447 0.784692 0.609395 0.157716
H22   H     H_    0.260953 0.770796 0.752409 0.133198
H23   H     H_    0.696000 0.581973 0.873687 0.153185
H24   H     H_    0.407862 0.745302 0.827451 0.200217
H25   H     H_    0.360850 0.866451 0.916394 0.114100
H26   H     H_    0.535095 0.912646 0.944410 0.239228
H27   H     H_    0.589940 0.921002 0.793713 0.229181
H28   H     H_    0.347167 0.266722 0.659435 0.186144
H29   H     H_    0.303795 0.119904 0.605987 0.140419
H30   H     H_    0.251913 0.209843 0.735315 0.124636
H31   H     H_    0.322365 0.051384 0.861789 0.130545
H32   H     H_    0.372151 0.190857 0.897263 0.133165
H33   H     H_    0.610970 0.694084 0.853993 0.172316
H34   H     H_    0.602104 0.714536 0.106192 0.161396
H35   H     H_    0.518499 0.117486 0.278267 0.145481
H36   H     H_    0.576143 0.127883 0.790850 0.230126
H37   H     H_    0.508358 0.226343 0.855504 0.256723
H38   H     H_    0.377652 0.321625 0.180037 0.231003
N1    N     N_R   0.500520 0.500930 0.147930 -0.217174
N2    N     N_R   0.500520 0.500890 0.852020 -0.262584
N3    N     N_3   0.520154 0.132899 0.846451 -0.644323
N4    N     N_3   0.360000 0.407298 0.142113 -0.574810
N5    N     N_3   0.711633 0.604811 0.138396 -0.637399
N6    N     N_3   0.914889 0.552396 0.742978 -0.633119
N7    N     N_3   0.524006 0.880336 0.241678 -0.617334
N8    N     N_3   0.535902 0.884271 0.840401 -0.646418
O1    O     O_R   0.500000 0.319640 0.618810 -0.508543
O2    O     O_R   0.500010 0.319680 0.381230 -0.510529
O3    O     O_R   0.380300 0.499950 0.618760 -0.529891
O4    O     O_R   0.380310 0.499990 0.381180 -0.452799
O5    O     O_R   0.499990 0.680320 0.618770 -0.497782
O6    O     O_R   0.500000 0.680360 0.381190 -0.460053
O7    O     O_R   0.619690 0.500010 0.618820 -0.497520
O8    O     O_R   0.619700 0.500050 0.381240 -0.486196

loop_
_geom_bond_atom_site_label_1
_geom_bond_atom_site_label_2
_ccdc_geom_bond_type
C22   H10   S    
C7    C29   S    
C4    C32   S    
C35   C36   A    
C10   N2    A    
C4    O3    A    
C21   C31   S    
C29   C30   S    
Cu2   O2    S    
C24   H7    S    
Cu1   O1    S    
C11   N2    A    
C18   C19   A    
H6    N6    S    
C5    C6    S    
C20   C25   S    
Cu2   O8    S    
C34   C35   A    
H26   N8    S    
C31   C32   T    
C23   C33   T    
C12   C17   A    
H2    N4    S    
C9    C10   A    
C30   H29   S    
C13   C14   S    
C2    N7    S    
H4    N5    S    
C29   H31   S    
C28   H22   S    
C1    O1    A    
C6    N8    S    
Cu1   O7    S    
C18   C23   S    
C25   H17   S    
C19   C22   S    
C25   H16   S    
H27   N8    S    
C13   H33   S    
C25   C26   S    
C12   C21   A    
Cu2   O4    S    
C9    N4    S    
Cu1   Cu2   S    
C27   H24   S    
C26   H14   S    
C16   C33   S    
C15   O5    A    
C6    C27   S    
C17   N6    S    
H3    N5    S    
C5    C34   A    
H19   N7    S    
C17   C18   A    
C9    N1    A    
C30   H28   S    
C27   H25   S    
C22   H11   S    
C16   O8    A    
H36   N3    S    
C8    N1    A    
C7    C34   S    
C22   C24   S    
C10   H12   S    
C26   H15   S    
C3    C15   S    
C1    C35   S    
H18   N7    S    
C7    N3    S    
C29   H32   S    
C28   H21   S    
C2    C36   A    
C1    O2    A    
C8    C14   S    
C24   H9    S    
C14   H34   S    
Cu1   O3    S    
H38   N4    S    
C3    C5    A    
C6    C7    S    
C4    O4    A    
Cu2   N1    S    
C28   H20   S    
Cu1   N2    S    
Cu2   O6    S    
Cu1   O5    S    
C24   H8    S    
C19   C20   A    
C2    C3    A    
C26   H13   S    
C15   O6    A    
C11   C13   S    
C12   H1    S    
C8    C11   A    
C36   H35   S    
C13   H23   S    
C20   C21   A    
C16   O7    A    
C27   C28   S    
H5    N6    S    
C14   N5    S    
H37   N3    S    
C30   H30   S    
