data_mof_unit_27121.cif
_audit_creation_date              2012-12-10T19:14:55-0500
_audit_creation_method            fapswitch 2.2
_symmetry_space_group_name_H-M    P1
_symmetry_Int_Tables_number       1
_space_group_crystal_system       triclinic
_cell_length_a                    16.004165
_cell_length_b                    14.801071
_cell_length_c                    10.937583
_cell_angle_alpha                 89.407026
_cell_angle_beta                  90.233138
_cell_angle_gamma                 90.579164
_cell_volume                      2590.5898725

loop_
_atom_site_label
_atom_site_type_symbol
_atom_type_description
_atom_site_fract_x
_atom_site_fract_y
_atom_site_fract_z
_atom_type_partial_charge
C1    C     C_1   0.251843 0.499288 0.498129 -0.168214
C2    C     C_1   0.747928 0.501343 0.503462 -0.142196
C3    C     C_R   0.535867 0.497504 0.868688 -0.028670
C4    C     C_R   0.510451 0.500026 0.123830 -0.039613
C5    C     C_R   0.501426 0.903250 0.507698 -0.129214
C6    C     C_R   0.500758 0.097432 0.505316 -0.168258
C7    C     C_R   0.576975 0.953541 0.522255 -0.051721
C8    C     C_R   0.426121 0.047406 0.485054 -0.091012
C9    C     C_R   0.425348 0.950867 0.493196 -0.104583
C10   C     C_R   0.576444 0.050263 0.525470 -0.126260
C11   C     C_R   0.957302 0.584377 0.495831 0.320054
C12   C     C_R   0.042282 0.418897 0.498867 0.299797
C13   C     C_R   0.044965 0.583646 0.497401 0.316070
C14   C     C_R   0.954861 0.419460 0.507720 0.317178
C15   C     C_R   0.340919 0.499668 0.499488 0.832289
C16   C     C_R   0.658999 0.500375 0.501001 0.875504
C17   C     C_R   0.500967 0.500192 0.260244 0.832467
C18   C     C_R   0.513294 0.499516 0.736420 0.799077
C19   C     C_R   0.912410 0.502217 0.503509 -0.207850
C20   C     C_R   0.087207 0.500879 0.497501 -0.193781
C21   C     C_1   0.501517 0.802540 0.503277 0.322045
C22   C     C_1   0.499939 0.197668 0.502489 0.280744
C23   C     C_1   0.822846 0.502207 0.504248 0.078474
C24   C     C_1   0.176844 0.499919 0.497251 0.112921
C25   C     C_R   0.575303 0.653370 0.125065 -0.154176
C26   C     C_R   0.552664 0.330562 0.888316 -0.153853
C27   C     C_R   0.588617 0.657307 0.875561 -0.133576
C28   C     C_R   0.458267 0.339696 0.104230 -0.151168
C29   C     C_R   0.571799 0.737003 0.065193 0.319156
C30   C     C_R   0.526059 0.250640 0.948042 0.300777
C31   C     C_R   0.586881 0.739344 0.939388 0.316547
C32   C     C_R   0.484245 0.255729 0.060252 0.320109
C33   C     C_R   0.554874 0.577660 0.933034 -0.044216
C34   C     C_R   0.496024 0.419437 0.055353 -0.059232
C35   C     C_R   0.545787 0.576924 0.061926 -0.053002
C36   C     C_R   0.528340 0.415544 0.935780 -0.048725
Cu1   Cu    Cu3+1 0.500000 0.589220 0.500000 1.040999
Cu2   Cu    Cu3+1 0.500000 0.410780 0.500000 1.052055
N1    N     N_1   0.500000 0.276710 0.500000 -0.127620
N2    N     N_1   0.500000 0.723290 0.500000 -0.126256
O1    O     O_R   0.380310 0.575320 0.500020 -0.567564
O2    O     O_R   0.619690 0.424680 0.499980 -0.559259
O3    O     O_R   0.619690 0.575320 0.499980 -0.559277
O4    O     O_R   0.380310 0.424680 0.500020 -0.548856
O5    O     O_R   0.499990 0.575350 0.319650 -0.597778
O6    O     O_R   0.500010 0.424650 0.680350 -0.595383
O7    O     O_R   0.500010 0.575350 0.680350 -0.577527
O8    O     O_R   0.499990 0.424650 0.319650 -0.582912
O9    O     O_3   0.089006 0.664213 0.486791 -0.584310
C37   C     C_3   0.096461 0.705057 0.602769 0.097888
H1    H     H_    0.157966 0.686558 0.642953 0.143807
H2    H     H_    0.046636 0.684057 0.668872 0.145368
C38   C     C_3   0.092206 0.807647 0.586207 -0.318625
H3    H     H_    0.137413 0.830226 0.515137 0.248451
H4    H     H_    0.028523 0.826256 0.554594 0.232672
C39   C     C_3   0.111587 0.856574 0.705311 -0.899473
H5    H     H_    0.175674 0.840412 0.737582 0.266071
H6    H     H_    0.065801 0.836477 0.776899 0.255881
H7    H     H_    0.107670 0.930687 0.689896 0.266839
O10   O     O_3   0.911263 0.338111 0.509069 -0.579813
C40   C     C_3   0.883985 0.317242 0.629168 0.095774
H8    H     H_    0.820086 0.287789 0.621800 0.180805
H9    H     H_    0.879357 0.377170 0.690012 0.130260
C41   C     C_3   0.941029 0.246647 0.688061 -0.338455
H10   H     H_    0.942491 0.185642 0.629714 0.226978
H11   H     H_    0.005508 0.274458 0.695831 0.253675
C42   C     C_3   0.910420 0.219752 0.815400 -0.914813
H12   H     H_    0.912353 0.279034 0.876845 0.266292
H13   H     H_    0.951243 0.166388 0.854297 0.262982
H14   H     H_    0.845428 0.193170 0.810661 0.264225
O11   O     O_3   0.916796 0.666627 0.493755 -0.586294
C43   C     C_3   0.883141 0.684112 0.375997 0.087244
H15   H     H_    0.814040 0.682330 0.383425 0.175031
H16   H     H_    0.901423 0.634376 0.304814 0.124235
C44   C     C_3   0.910545 0.778468 0.333261 -0.326365
H17   H     H_    0.892593 0.828976 0.402662 0.223361
H18   H     H_    0.979660 0.780468 0.323710 0.241157
C45   C     C_3   0.870526 0.803650 0.210687 -0.914468
H19   H     H_    0.889130 0.755098 0.139226 0.257506
H20   H     H_    0.891635 0.872414 0.182433 0.257386
H21   H     H_    0.801348 0.803482 0.218225 0.285912
O12   O     O_3   0.083909 0.337510 0.498319 -0.584747
C46   C     C_3   0.083950 0.303493 0.377992 0.116537
H22   H     H_    0.137087 0.334384 0.326637 0.140504
H23   H     H_    0.024796 0.317601 0.326958 0.153841
C47   C     C_3   0.094648 0.201162 0.384126 -0.305376
H24   H     H_    0.154240 0.185187 0.431568 0.252207
H25   H     H_    0.042578 0.170524 0.437812 0.228279
C48   C     C_3   0.094686 0.160154 0.256633 -0.920176
H26   H     H_    0.033755 0.171885 0.210427 0.261655
H27   H     H_    0.104797 0.086185 0.264148 0.272855
H28   H     H_    0.145500 0.190601 0.200362 0.263900
O13   O     O_3   0.475107 0.178653 0.131795 -0.571822
C49   C     C_3   0.553981 0.156922 0.184017 0.150649
H29   H     H_    0.558633 0.186871 0.276080 0.162237
H30   H     H_    0.608686 0.183668 0.131220 0.149911
C50   C     C_3   0.562082 0.054473 0.194290 -0.331210
H31   H     H_    0.522272 0.029129 0.269856 0.219477
H32   H     H_    0.539333 0.023034 0.108971 0.234064
C51   C     C_3   0.652518 0.025927 0.215685 -0.845819
H33   H     H_    0.675461 0.049171 0.305407 0.269666
H34   H     H_    0.693902 0.054762 0.143865 0.250592
H35   H     H_    0.656867 0.951323 0.213128 0.312976
O14   O     O_3   0.598626 0.821035 0.879008 -0.568048
C52   C     C_3   0.678734 0.857000 0.906336 0.104292
H36   H     H_    0.724821 0.829715 0.840936 0.191181
H37   H     H_    0.700985 0.840865 0.000827 0.136375
C53   C     C_3   0.675527 0.959545 0.892575 -0.235331
H38   H     H_    0.648457 0.978017 0.802509 0.282265
H39   H     H_    0.633433 0.986720 0.962717 0.224021
C54   C     C_3   0.761962 0.002709 0.906059 -0.860559
H40   H     H_    0.790856 0.982658 0.994647 0.233149
H41   H     H_    0.756069 0.077336 0.903316 0.273104
H42   H     H_    0.803082 0.981634 0.830149 0.284532
O15   O     O_3   0.549957 0.166638 0.906854 -0.593862
C55   C     C_3   0.489397 0.133082 0.823632 0.110940
H43   H     H_    0.520343 0.080170 0.769385 0.183190
H44   H     H_    0.467816 0.185746 0.757429 0.145711
C56   C     C_3   0.414119 0.090278 0.889896 -0.362564
H45   H     H_    0.435916 0.050191 0.969405 0.250119
H46   H     H_    0.372666 0.144261 0.923722 0.231384
C57   C     C_3   0.363653 0.028291 0.806309 -0.871987
H47   H     H_    0.338469 0.067245 0.727641 0.285070
H48   H     H_    0.310446 0.998161 0.857825 0.260682
H49   H     H_    0.403273 0.972712 0.772478 0.272781
O16   O     O_3   0.568171 0.816427 0.129909 -0.586889
C58   C     C_3   0.487186 0.824473 0.179960 0.101531
H50   H     H_    0.489714 0.879473 0.247547 0.166492
H51   H     H_    0.467153 0.762820 0.231864 0.146606
C59   C     C_3   0.422666 0.847970 0.080384 -0.424752
H52   H     H_    0.449665 0.899080 0.016689 0.249049
H53   H     H_    0.407235 0.786539 0.026887 0.223191
C60   C     C_3   0.342575 0.884528 0.135118 -0.811862
H54   H     H_    0.314804 0.834176 0.199482 0.274900
H55   H     H_    0.296808 0.898655 0.060986 0.253194
H56   H     H_    0.356012 0.948363 0.184127 0.302056
C61   C     C_2   0.655737 0.103069 0.541999 0.876565
O17   O     O_2   0.671910 0.166936 0.473948 -0.606116
O18   O     O_R   0.710943 0.081561 0.636729 -0.729421
H57   H     H_    0.762241 0.122261 0.637748 0.335554
C62   C     C_2   0.344923 0.898723 0.493393 0.808531
O19   O     O_2   0.287798 0.919190 0.424412 -0.593133
O20   O     O_R   0.334850 0.825460 0.574003 -0.766041
H58   H     H_    0.279558 0.792698 0.562822 0.333350
C63   C     C_2   0.349956 0.097095 0.448792 0.922225
O21   O     O_2   0.318081 0.150219 0.519142 -0.621117
O22   O     O_R   0.317734 0.086352 0.330915 -0.705933
H59   H     H_    0.267769 0.125972 0.314259 0.352349
C64   C     C_2   0.657264 0.904694 0.521770 0.874322
O23   O     O_2   0.702823 0.904919 0.611502 -0.570196
O24   O     O_R   0.680318 0.857407 0.417936 -0.742248
H60   H     H_    0.736348 0.827019 0.428366 0.340017
C65   C     C_2   0.641998 0.641755 0.217782 0.881803
O25   O     O_2   0.657123 0.701232 0.291278 -0.565363
O26   O     O_R   0.690370 0.563643 0.216334 -0.781295
H61   H     H_    0.739942 0.567069 0.273686 0.300857
C66   C     C_2   0.620583 0.325604 0.795744 0.927364
O27   O     O_2   0.625619 0.260832 0.727934 -0.582639
O28   O     O_R   0.680245 0.394986 0.788394 -0.741782
H62   H     H_    0.722893 0.384722 0.722077 0.316881
C67   C     C_2   0.643298 0.652649 0.766699 0.897697
O29   O     O_2   0.689318 0.588026 0.754444 -0.600188
O30   O     O_R   0.645392 0.723408 0.681380 -0.710077
H63   H     H_    0.688269 0.713807 0.614915 0.345122
C68   C     C_2   0.383313 0.343552 0.184553 0.913266
O31   O     O_2   0.362677 0.278392 0.247481 -0.552297
O32   O     O_R   0.335061 0.421817 0.185908 -0.795730
H64   H     H_    0.285431 0.416213 0.242894 0.315820

loop_
_geom_bond_atom_site_label_1
_geom_bond_atom_site_label_2
_ccdc_geom_bond_type
C7    C10   A    
O16   C58   S    
C19   C23   S    
O30   H63   S    
C17   O8    A    
C18   O7    A    
C63   O21   D    
C68   O31   D    
C38   H3    S    
C27   C33   A    
Cu2   O4    S    
C61   O18   S    
C11   C19   A    
O13   C49   S    
C26   C66   S    
C46   H22   S    
C17   O5    A    
C15   O4    A    
Cu2   O2    S    
Cu1   N2    S    
C62   O20   S    
Cu2   N1    S    
C47   H25   S    
C56   C57   S    
C3    C33   A    
O20   H58   S    
C6    C22   S    
C53   H38   S    
C3    C18   S    
C40   H9    S    
C39   H7    S    
O22   H59   S    
C50   H32   S    
C7    C64   S    
C66   O27   D    
C8    C63   S    
C53   H39   S    
C8    C9    A    
C60   H56   S    
C37   H2    S    
O24   H60   S    
C67   O30   S    
C1    C15   S    
C10   C61   S    
C39   H6    S    
Cu1   O7    S    
C2    C16   S    
Cu2   O8    S    
C13   C20   A    
C56   H46   S    
C32   O13   S    
C4    C35   A    
C28   C34   A    
C68   O32   S    
C29   O16   S    
C49   H29   S    
C43   C44   S    
C18   O6    A    
O14   C52   S    
C63   O22   S    
C50   H31   S    
C30   O15   S    
C38   H4    S    
C25   C29   A    
C52   C53   S    
C4    C34   A    
C37   C38   S    
C27   C31   A    
C42   H12   S    
C41   C42   S    
C20   C24   S    
C28   C32   A    
C15   O1    A    
C43   H16   S    
O32   H64   S    
C5    C7    A    
C9    C62   S    
C47   H24   S    
C6    C8    A    
C49   C50   S    
C25   C65   S    
C51   H35   S    
O10   C40   S    
C42   H13   S    
C41   H11   S    
Cu1   O3    S    
C40   C41   S    
C59   H53   S    
C44   H17   S    
C58   H51   S    
C5    C9    A    
Cu1   Cu2   S    
C52   H37   S    
O28   H62   S    
C56   H45   S    
C12   C20   A    
C51   H34   S    
C37   H1    S    
C45   H20   S    
C12   O12   S    
C54   H41   S    
C48   H28   S    
C49   H30   S    
C44   H18   S    
C16   O3    A    
C28   C68   S    
C25   C35   A    
C13   O9    S    
C4    C17   S    
C26   C36   A    
C46   H23   S    
C12   C14   A    
O9    C37   S    
C60   H54   S    
C59   C60   S    
C65   O26   S    
C39   H5    S    
C57   H48   S    
C58   H50   S    
C16   O2    A    
C2    C23   T    
C50   C51   S    
C61   O17   D    
C38   C39   S    
C54   H40   S    
C45   H19   S    
C14   C19   A    
C43   H15   S    
C47   C48   S    
C6    C10   A    
O18   H57   S    
C55   C56   S    
C26   C30   A    
C14   O10   S    
C52   H36   S    
C53   C54   S    
C42   H14   S    
C31   O14   S    
C57   H49   S    
C64   O24   S    
C59   H52   S    
C57   H47   S    
C58   C59   S    
O11   C43   S    
C29   C31   A    
C67   O29   D    
C62   O19   D    
C41   H10   S    
C30   C32   A    
C11   C13   A    
C45   H21   S    
C21   N2    T    
C3    C36   A    
C22   N1    T    
C48   H27   S    
C51   H33   S    
C33   C35   A    
C34   C36   A    
C55   H44   S    
C55   H43   S    
C54   H42   S    
C11   O11   S    
Cu1   O1    S    
C40   H8    S    
C44   C45   S    
Cu2   O6    S    
C46   C47   S    
C5    C21   S    
C1    C24   T    
C66   O28   S    
O12   C46   S    
O26   H61   S    
C60   H55   S    
C48   H26   S    
C64   O23   D    
Cu1   O5    S    
C27   C67   S    
O15   C55   S    
C65   O25   D    
