data_mof_unit_29054.cif
_audit_creation_date              2012-10-26T19:52:24-0400
_audit_creation_method            fapswitch 2.2
_symmetry_space_group_name_H-M    P1
_symmetry_Int_Tables_number       1
_space_group_crystal_system       triclinic
_cell_length_a                    9.572328
_cell_length_b                    10.879365
_cell_length_c                    13.411273
_cell_angle_alpha                 92.562178
_cell_angle_beta                  73.44756
_cell_angle_gamma                 89.333726
_cell_volume                      1337.01152478

loop_
_atom_site_label
_atom_site_type_symbol
_atom_type_description
_atom_site_fract_x
_atom_site_fract_y
_atom_site_fract_z
_atom_type_partial_charge
C1    C     C_R   0.502326 0.737002 0.492593 0.597203
C2    C     C_R   0.373385 0.515413 0.815293 0.023734
C3    C     C_R   0.372933 0.938503 0.521527 0.047320
C4    C     C_R   0.421917 0.507109 0.700234 0.574281
C5    C     C_R   0.504408 0.870526 0.485890 0.013260
C6    C     C_R   0.637100 0.934074 0.455234 0.070528
C7    C     C_R   0.635565 0.062335 0.466300 -0.121595
C8    C     C_R   0.503161 0.129295 0.500834 -0.027224
C9    C     C_R   0.373002 0.066248 0.529192 0.032629
C10   C     C_3   0.245335 0.082952 0.488229 -0.031079
C11   C     C_3   0.249538 0.943492 0.472521 -0.021807
C12   C     C_R   0.430152 0.534767 0.981779 0.039308
C13   C     C_R   0.949912 0.410982 0.444305 0.174995
C14   C     C_R   0.896945 0.575095 0.566938 0.047779
C15   C     C_R   0.043817 0.573221 0.569669 0.216938
C16   C     C_R   0.501023 0.262517 0.499634 0.551578
C17   C     C_R   0.096332 0.410656 0.444546 0.176482
C18   C     C_3   0.148239 0.374831 0.331498 -0.277126
C19   C     C_3   0.989702 0.378745 0.330449 -0.274231
C20   C     C_R   0.576375 0.510032 0.300965 0.547817
C21   C     C_R   0.790644 0.582181 0.026563 -0.117374
C22   C     C_R   0.614506 0.536065 0.189701 0.013654
C23   C     C_R   0.463594 0.561320 0.875332 0.038429
C24   C     C_R   0.240135 0.462463 0.865861 -0.110731
C25   C     C_R   0.202046 0.445601 0.972246 -0.132459
C26   C     C_R   0.298268 0.477160 0.029100 -0.088169
C27   C     C_R   0.535207 0.558690 0.035542 0.040829
C28   C     C_R   0.677678 0.588714 0.979219 0.020239
C29   C     C_R   0.699112 0.635903 0.881067 -0.101168
C30   C     C_R   0.586257 0.633551 0.834083 0.079344
C31   C     C_R   0.502083 0.560034 0.143874 0.052287
C32   C     C_R   0.760143 0.546556 0.129507 -0.134628
Cu1   Cu    Cu3+1 0.359330 0.500020 0.500010 1.044230
Cu2   Cu    Cu3+1 0.640670 0.499980 0.499990 1.008783
H1    H     H_    0.848883 0.535645 0.163659 0.136358
H2    H     H_    0.949268 0.287169 0.313184 0.136976
H3    H     H_    0.901677 0.601763 0.983606 0.144005
H4    H     H_    0.167956 0.428408 0.822247 0.164339
H5    H     H_    0.270953 0.452257 0.109120 0.124464
H6    H     H_    0.100939 0.401704 0.009725 0.124297
H7    H     H_    0.031651 0.913701 0.506644 0.281508
H8    H     H_    0.095352 0.913322 0.611079 0.293923
H9    H     H_    0.737511 0.109808 0.440552 0.161812
H10   H     H_    0.273997 0.129266 0.413203 0.117004
H11   H     H_    0.282787 0.910349 0.389266 0.177688
H12   H     H_    0.818796 0.636339 0.620035 0.160855
H13   H     H_    0.214336 0.445649 0.285479 0.175183
H14   H     H_    0.197997 0.280704 0.316298 0.127686
H15   H     H_    0.964930 0.454774 0.285110 0.159097
H16   H     H_    0.795955 0.686354 0.847151 0.160382
I1    I     I_    0.065888 0.170384 0.607682 -0.367383
I2    I     I_    0.081350 0.677761 0.696345 -0.347174
I3    I     I_    0.322206 0.680615 0.225328 -0.361961
I4    I     I_    0.572258 0.783336 0.741073 -0.312760
I5    I     I_    0.840960 0.848280 0.372669 -0.340943
N1    N     N_R   0.852320 0.499070 0.499340 -0.243009
N2    N     N_R   0.148230 0.499110 0.499340 -0.211004
N3    N     N_3   0.118727 0.884343 0.532664 -0.551511
O1    O     O_R   0.381190 0.680360 0.500000 -0.450851
O2    O     O_R   0.618780 0.680320 0.499990 -0.467900
O3    O     O_R   0.323230 0.500000 0.650990 -0.473625
O4    O     O_R   0.560820 0.499960 0.650980 -0.493051
O5    O     O_R   0.381220 0.319680 0.500010 -0.489130
O6    O     O_R   0.618810 0.319640 0.500000 -0.501975
O7    O     O_R   0.439180 0.500040 0.349020 -0.496984
O8    O     O_R   0.676770 0.500000 0.349010 -0.510370

loop_
_geom_bond_atom_site_label_1
_geom_bond_atom_site_label_2
_ccdc_geom_bond_type
C2    C4    S    
C23   C30   A    
Cu2   N1    S    
C6    C7    A    
C3    C9    A    
C16   O5    A    
C7    H9    S    
C11   N3    S    
C15   N2    A    
C9    C10   S    
C19   H15   S    
C24   H4    S    
C13   C17   A    
C6    I5    S    
C19   H2    S    
C13   N1    A    
C18   H13   S    
H8    N3    S    
C8    C16   S    
Cu2   O6    S    
C17   C18   S    
Cu1   O7    S    
C7    C8    A    
Cu1   O1    S    
C15   I2    S    
C31   I3    S    
C14   N1    A    
Cu2   O2    S    
C30   I4    S    
C12   C23   A    
Cu2   O8    S    
C29   C30   A    
C22   C32   A    
C1    C5    S    
C10   I1    S    
C20   O8    A    
C28   C29   A    
C21   C28   A    
C20   C22   S    
H7    N3    S    
Cu1   Cu2   S    
C29   H16   S    
C1    O1    A    
C25   H6    S    
C2    C24   A    
C5    C6    A    
C26   H5    S    
C21   C32   A    
Cu1   O5    S    
C11   H11   S    
C3    C11   S    
C22   C31   A    
C13   C19   S    
C12   C27   A    
C10   H10   S    
C32   H1    S    
C4    O4    A    
C20   O7    A    
Cu2   O4    S    
C21   H3    S    
C24   C25   A    
C2    C23   A    
Cu1   O3    S    
C18   C19   S    
C10   C11   S    
C1    O2    A    
C12   C26   A    
C27   C28   A    
C14   C15   A    
Cu1   N2    S    
C16   O6    A    
C3    C5    A    
C25   C26   A    
C27   C31   A    
C4    O3    A    
C17   N2    A    
C8    C9    A    
C14   H12   S    
C18   H14   S    
