data_mof_unit_36841.cif
_audit_creation_date              2013-03-05T16:48:15-0500
_audit_creation_method            fapswitch 2.2
_symmetry_space_group_name_H-M    P1
_symmetry_Int_Tables_number       1
_space_group_crystal_system       triclinic
_cell_length_a                    23.395936
_cell_length_b                    8.924951
_cell_length_c                    8.091041
_cell_angle_alpha                 89.869336
_cell_angle_beta                  90.40835
_cell_angle_gamma                 90.070468
_cell_volume                      1689.42216484

loop_
_atom_site_label
_atom_site_type_symbol
_atom_site_description
_atom_site_fract_x
_atom_site_fract_y
_atom_site_fract_z
_atom_type_partial_charge
O1    O     O_R   0.500000 0.285350 0.636850 -0.615408
O2    O     O_R   0.500000 0.714650 0.363150 -0.624138
O3    O     O_R   0.500000 0.714650 0.636850 -0.611333
O4    O     O_R   0.500000 0.285350 0.363150 -0.620389
C1    C     C_R   0.500008 0.217948 0.500116 0.909400
C2    C     C_R   0.500041 0.782055 0.499877 0.926168
O5    O     O_R   0.416160 0.500000 0.636910 -0.553073
O6    O     O_R   0.583840 0.500000 0.363090 -0.608077
O7    O     O_R   0.583840 0.500000 0.636910 -0.571032
O8    O     O_R   0.416160 0.500000 0.363090 -0.606124
C3    C     C_R   0.206509 0.499617 0.468344 -0.002883
C4    C     C_R   0.791160 0.450340 0.477765 -0.004707
C5    C     C_R   0.388692 0.505205 0.499059 0.964804
C6    C     C_R   0.610923 0.495310 0.500460 0.979410
Zn1   Zn    Zn3+2 0.500000 0.500000 0.682780 1.071626
Zn2   Zn    Zn3+2 0.500000 0.500000 0.317220 1.042422
C7    C     C_R   0.297807 0.554887 0.343937 0.234410
C8    C     C_R   0.697252 0.374212 0.383262 0.239515
C9    C     C_R   0.293252 0.478260 0.635026 0.387012
C10   C     C_R   0.707245 0.552383 0.612750 0.389661
C11   C     C_R   0.325755 0.515014 0.494008 -0.347003
C12   C     C_R   0.672726 0.472775 0.500057 -0.334821
C13   C     C_R   0.876535 0.570770 0.382175 0.636976
C14   C     C_R   0.121190 0.347436 0.472835 0.627259
C15   C     C_R   0.881945 0.325551 0.499924 0.630572
C16   C     C_R   0.114621 0.607340 0.405531 0.633242
N1    N     N_R   0.851530 0.448911 0.453347 -0.340837
N2    N     N_R   0.145858 0.484533 0.449859 -0.341950
C17   C     C_R   0.941106 0.319207 0.471684 -0.160020
C18   C     C_R   0.056012 0.593508 0.371822 -0.165436
C19   C     C_R   0.936187 0.576952 0.365157 -0.128920
C20   C     C_R   0.061359 0.332010 0.464779 -0.137454
C21   C     C_R   0.968656 0.450756 0.415539 -0.137082
C22   C     C_R   0.028665 0.458023 0.415436 -0.134968
C23   C     C_R   0.973653 0.188275 0.504515 0.337940
C24   C     C_R   0.023894 0.712384 0.301429 0.338484
C25   C     C_R   0.963784 0.705108 0.300237 0.477393
C26   C     C_R   0.033856 0.195443 0.504649 0.485754
C27   C     C_1   0.500053 0.065199 0.500154 -0.152765
C28   C     C_1   0.500060 0.934810 0.499814 -0.149875
C29   C     C_R   0.238679 0.535237 0.328415 0.474646
C30   C     C_R   0.756813 0.368800 0.367937 0.484545
C31   C     C_R   0.233127 0.478043 0.624113 0.329413
C32   C     C_R   0.767062 0.538444 0.604536 0.335581
N3    N     N_1   0.500000 0.500000 0.073640 0.002914
N4    N     N_1   0.500000 0.500000 0.926360 0.003955
O9    O     O_2   0.843385 0.686304 0.332487 -0.431920
O10   O     O_2   0.154781 0.228185 0.506199 -0.420251
O11   O     O_2   0.854912 0.212839 0.578872 -0.475132
O12   O     O_2   0.140286 0.742802 0.399572 -0.458153
O13   O     O_3   0.948010 0.051726 0.534428 -0.714670
H1    H     H_    0.916370 0.040130 0.453429 0.403675
O14   O     O_3   0.049957 0.834422 0.228721 -0.709865
H2    H     H_    0.082719 0.796850 0.163820 0.387533
O15   O     O_3   0.931164 0.820054 0.233588 -0.676284
H3    H     H_    0.955768 0.903319 0.195595 0.383564
O16   O     O_3   0.066672 0.070836 0.543164 -0.633655
H4    H     H_    0.042153 0.984592 0.572656 0.390159
O17   O     O_3   0.210245 0.554047 0.179157 -0.700063
H5    H     H_    0.238007 0.570944 0.089295 0.404018
O18   O     O_3   0.783494 0.284162 0.247948 -0.696112
H6    H     H_    0.754656 0.237435 0.174273 0.401381
O19   O     O_3   0.201818 0.454442 0.766255 -0.721946
H7    H     H_    0.161599 0.484460 0.747295 0.354749
O20   O     O_3   0.800556 0.614536 0.718390 -0.704632
H8    H     H_    0.840735 0.580982 0.710820 0.356635
O21   O     O_3   0.326962 0.614586 0.211519 -0.712439
H9    H     H_    0.354624 0.688866 0.255763 0.354400
O22   O     O_3   0.664377 0.282008 0.283636 -0.724548
H10   H     H_    0.629326 0.253528 0.344063 0.344241
O23   O     O_3   0.321324 0.443841 0.781483 -0.689930
H11   H     H_    0.293642 0.412565 0.866804 0.397958
O24   O     O_3   0.681112 0.645028 0.726550 -0.707673
H12   H     H_    0.710197 0.695573 0.796188 0.404153

loop_
_geom_bond_atom_site_label_1
_geom_bond_atom_site_label_2
_geom_bond_distance
_ccdc_geom_bond_type
Zn2   N3    1.970816 S    
O4    Zn2   1.950620 S    
O5    C5    1.284047 A    
C4    C30   1.398688 A    
O7    C6    1.277639 A    
C19   C21   1.416814 A    
C3    C31   1.414680 A    
O1    Zn1   1.952284 S    
C13   N1    1.362742 A    
C15   N1    1.362624 A    
C26   O16   1.385806 S    
O2    Zn2   1.952283 S    
O24   H12   0.989432 S    
C17   C23   1.419094 A    
C9    O23   1.384795 S    
Zn1   N4    1.970816 S    
C18   C24   1.416955 A    
O15   H3    0.989219 S    
O3    C2    1.259803 A    
C6    C12   1.460128 S    
C8    O22   1.382447 S    
C14   C20   1.407462 A    
C21   C22   1.405402 A    
O7    Zn1   1.998915 S    
C5    C11   1.475459 S    
O23   H11   0.989433 S    
C4    C32   1.414666 A    
O8    Zn2   1.998917 S    
N3    N4    1.191648 T    
C23   O13   1.379364 S    
C30   O18   1.384168 S    
C32   O20   1.383881 S    
O2    C2    1.260461 A    
C3    N2    1.431985 S    
C20   C22   1.415991 A    
O1    C1    1.260500 A    
O5    Zn1   1.993719 S    
C24   C25   1.407707 A    
C10   C32   1.407201 A    
C10   C12   1.406927 A    
C10   O24   1.384939 S    
C16   C18   1.401532 A    
C13   C19   1.404362 A    
C20   C26   1.415247 A    
O22   H10   0.990339 S    
C16   O12   1.350149 S    
C15   C17   1.405684 A    
O18   H6    0.989539 S    
C7    C29   1.398991 A    
C7    O21   1.379853 S    
C13   O9    1.349827 S    
C18   C22   1.412581 A    
C4    N1    1.427634 S    
C31   O19   1.383526 S    
O21   H9    0.991566 S    
C25   O15   1.385365 S    
C17   C21   1.414261 A    
O17   H5    0.989562 S    
C2    C28   1.363327 S    
O13   H1    0.990650 S    
C29   O17   1.384576 S    
C14   N2    1.365119 A    
O6    Zn2   1.993717 S    
O20   H8    0.989272 S    
C3    C29   1.399750 A    
C27   C28   1.163728 T    
C1    C27   1.363272 S    
C23   C26   1.409879 A    
O4    C1    1.259735 A    
O3    Zn1   1.950619 S    
O6    C6    1.276102 A    
C24   O14   1.380139 S    
C8    C30   1.400789 A    
C9    C11   1.413413 A    
O16   H4    0.989201 S    
C8    C12   1.417331 A    
C16   N2    1.363999 A    
O8    C5    1.278992 A    
C7    C11   1.419800 A    
C19   C25   1.414687 A    
O14   H2    0.991395 S    
C9    C31   1.408825 A    
O19   H7    0.989493 S    
C15   O11   1.349533 S    
C14   O10   1.349440 S    
