data_mof_unit_56869.cif
_audit_creation_date              2012-12-10T18:53:04-0500
_audit_creation_method            fapswitch 2.2
_symmetry_space_group_name_H-M    P1
_symmetry_Int_Tables_number       1
_space_group_crystal_system       triclinic
_cell_length_a                    9.835693
_cell_length_b                    10.680908
_cell_length_c                    17.048191
_cell_angle_alpha                 90.894834
_cell_angle_beta                  84.363513
_cell_angle_gamma                 89.701102
_cell_volume                      1782.06523007

loop_
_atom_site_label
_atom_site_type_symbol
_atom_type_description
_atom_site_fract_x
_atom_site_fract_y
_atom_site_fract_z
_atom_type_partial_charge
C1    C     C_R   0.500190 0.740023 0.499048 0.871688
C2    C     C_R   0.064424 0.586772 0.544437 0.519403
C3    C     C_R   0.080420 0.415541 0.454904 -0.303621
C4    C     C_R   0.919144 0.583250 0.545937 -0.306006
C5    C     C_R   0.480016 0.496562 0.652400 0.922226
C6    C     C_R   0.520038 0.498665 0.347937 0.899880
C7    C     C_R   0.464998 0.479638 0.737087 -0.189950
C8    C     C_R   0.537126 0.487080 0.263467 -0.204050
C9    C     C_R   0.549803 0.393334 0.771339 -0.081043
C10   C     C_R   0.481423 0.383752 0.225889 -0.061650
C11   C     C_R   0.539691 0.382953 0.852508 -0.175141
C12   C     C_R   0.500395 0.259891 0.499270 0.858683
C13   C     C_R   0.505732 0.370129 0.144882 -0.180872
C14   C     C_R   0.453105 0.463438 0.899990 0.073770
C15   C     C_R   0.580610 0.460748 0.101484 -0.031495
C16   C     C_R   0.362134 0.542067 0.866110 -0.284026
C17   C     C_R   0.640676 0.560413 0.138756 -0.296833
C18   C     C_R   0.362540 0.546491 0.784210 0.488991
C19   C     C_R   0.618593 0.574796 0.220048 0.440156
C20   C     C_2   0.458760 0.467822 0.985333 0.359773
C21   C     C_2   0.580765 0.460914 0.015935 0.312406
C22   C     C_1   0.646685 0.313112 0.724862 0.190379
C23   C     C_R   0.612135 0.935895 0.523999 -0.211060
C24   C     C_1   0.400758 0.289946 0.268850 0.162760
C25   C     C_3   0.589940 0.776212 0.263542 0.079999
C26   C     C_3   0.661829 0.888019 0.296860 -0.785790
C27   C     C_3   0.135574 0.598694 0.774009 0.172161
C28   C     C_3   0.092199 0.469393 0.745680 -0.839236
C29   C     C_3   0.805150 0.394133 0.992535 0.096179
C30   C     C_3   0.921762 0.382375 0.927595 -0.829895
C31   C     C_3   0.306763 0.589621 0.065730 0.089281
C32   C     C_3   0.152665 0.608693 0.078059 -0.824112
C33   C     C_3   0.905701 0.346657 0.328963 0.096639
C34   C     C_R   0.391842 0.063835 0.469645 -0.183475
C35   C     C_3   0.822740 0.256934 0.282744 -0.789485
C36   C     C_3   0.088681 0.793081 0.582717 0.078842
C37   C     C_3   0.172782 0.879550 0.630577 -0.739534
C38   C     C_R   0.612676 0.064038 0.523563 -0.159119
C39   C     C_R   0.393129 0.935546 0.468050 -0.214223
C40   C     C_R   0.501575 0.127423 0.497498 -0.012226
C41   C     C_R   0.501598 0.872331 0.497005 -0.024048
C42   C     C_R   0.936114 0.416961 0.453176 0.536840
H1    H     H_    0.294966 0.603593 0.903017 0.152650
H2    H     H_    0.855153 0.645034 0.584578 0.161087
H3    H     H_    0.497591 0.755452 0.304326 0.127194
H4    H     H_    0.557984 0.802474 0.204982 0.129559
H5    H     H_    0.750538 0.915098 0.255358 0.244026
H6    H     H_    0.590023 0.968751 0.305754 0.218530
H7    H     H_    0.698627 0.863974 0.354296 0.266056
H8    H     H_    0.071114 0.669383 0.748049 0.188022
H9    H     H_    0.111520 0.609848 0.838640 0.093820
H10   H     H_    0.138667 0.394533 0.779018 0.232884
H11   H     H_    0.979313 0.461378 0.755157 0.221403
H12   H     H_    0.699261 0.629861 0.104529 0.177756
H13   H     H_    0.124038 0.455515 0.681978 0.289773
H14   H     H_    0.765758 0.298197 0.005679 0.129266
H15   H     H_    0.846714 0.434798 0.045607 0.165680
H16   H     H_    0.964357 0.476289 0.914148 0.256865
H17   H     H_    0.003713 0.321672 0.946968 0.223490
H18   H     H_    0.884327 0.340556 0.873757 0.254319
H19   H     H_    0.351183 0.666720 0.028124 0.115749
H20   H     H_    0.347122 0.597418 0.124160 0.161897
H21   H     H_    0.105736 0.535925 0.117760 0.259798
H22   H     H_    0.128582 0.702428 0.105123 0.209588
H23   H     H_    0.461434 0.292279 0.114871 0.161039
H24   H     H_    0.108438 0.602302 0.020657 0.246672
H25   H     H_    0.015835 0.327524 0.311274 0.131929
H26   H     H_    0.880510 0.444213 0.312771 0.168447
H27   H     H_    0.712162 0.268949 0.301569 0.258857
H28   H     H_    0.841321 0.275815 0.218724 0.199301
H29   H     H_    0.852746 0.158740 0.293373 0.247558
H30   H     H_    0.979777 0.809861 0.604202 0.113539
H31   H     H_    0.106012 0.818585 0.519481 0.130470
H32   H     H_    0.282934 0.855841 0.619709 0.276110
H33   H     H_    0.156889 0.978331 0.614042 0.199867
H34   H     H_    0.602929 0.315007 0.878860 0.159763
H35   H     H_    0.140982 0.870004 0.694459 0.233759
H36   H     H_    0.696869 0.886880 0.546166 0.149676
H37   H     H_    0.306001 0.112927 0.448902 0.171531
H38   H     H_    0.698101 0.113208 0.544950 0.180333
H39   H     H_    0.309669 0.886022 0.444850 0.151231
H40   H     H_    0.142293 0.346251 0.420761 0.179085
N1    N     N_R   0.142790 0.500030 0.500020 -0.131687
N2    N     N_R   0.857210 0.499970 0.499980 -0.122399
N3    N     N_1   0.724509 0.249025 0.687831 -0.223737
N4    N     N_1   0.335880 0.214609 0.302847 -0.248973
O1    O     O_R   0.385380 0.683250 0.500010 -0.589753
O2    O     O_3   0.274218 0.625347 0.749057 -0.603260
O3    O     O_3   0.702432 0.473058 0.967333 -0.628934
O4    O     O_3   0.335131 0.468660 0.032724 -0.624976
O5    O     O_3   0.872751 0.327400 0.410359 -0.587866
O6    O     O_3   0.128350 0.667530 0.593425 -0.564991
O7    O     O_R   0.614620 0.316750 0.499990 -0.574297
O8    O     O_R   0.614710 0.683220 0.500000 -0.630994
O9    O     O_R   0.385290 0.316780 0.500000 -0.636190
O10   O     O_R   0.371780 0.500040 0.615800 -0.551029
O11   O     O_R   0.628220 0.499960 0.384200 -0.570957
O12   O     O_R   0.601110 0.500010 0.615800 -0.625887
O13   O     O_R   0.398890 0.499990 0.384200 -0.633080
O14   O     O_3   0.680271 0.672554 0.256867 -0.606982
Zn1   Zn    Zn3+2 0.346870 0.500020 0.500000 0.991461
Zn2   Zn    Zn3+2 0.653130 0.499980 0.500000 1.002784

loop_
_geom_bond_atom_site_label_1
_geom_bond_atom_site_label_2
_ccdc_geom_bond_type
C1    O1    A    
C37   H32   S    
C3    C42   A    
N2    Zn2   S    
C31   H19   S    
C25   H4    S    
C29   O3    S    
C39   C41   A    
C13   H23   S    
C34   C40   A    
C36   C37   S    
C11   H34   S    
C33   O5    S    
C11   C14   A    
C9    C22   S    
C7    C9    A    
C42   O5    S    
C22   N3    T    
C31   O4    S    
C33   C35   S    
O1    Zn1   S    
C35   H28   S    
C1    O8    A    
C30   H18   S    
C12   O9    A    
O11   Zn2   S    
C27   H8    S    
C26   H6    S    
C36   O6    S    
C37   H33   S    
C35   H29   S    
O10   Zn1   S    
C31   H20   S    
C2    N1    A    
C35   H27   S    
C28   H13   S    
C27   H9    S    
C8    C19   A    
C34   C39   A    
C6    O11   A    
C14   C20   S    
C42   N2    A    
C32   H22   S    
C26   H7    S    
C5    C7    S    
C21   O3    S    
C4    H2    S    
C10   C24   S    
C25   C26   S    
O12   Zn2   S    
C20   O4    S    
C18   O2    S    
C12   C40   S    
C2    C4    A    
C29   C30   S    
C34   H37   S    
C25   O14   S    
C31   C32   S    
C4    N2    A    
C19   O14   S    
C7    C18   A    
C30   H17   S    
C3    H40   S    
C16   C18   A    
C5    O12   A    
C2    O6    S    
C9    C11   A    
C16   H1    S    
C39   H39   S    
C26   H5    S    
C1    C41   S    
O13   Zn1   S    
C29   H15   S    
C13   C15   A    
C3    N1    A    
C14   C16   A    
C12   O7    A    
C25   H3    S    
C5    O10   A    
C33   H25   S    
C32   H24   S    
C15   C17   A    
C37   H35   S    
N1    Zn1   S    
C32   H21   S    
C10   C13   A    
O7    Zn2   S    
C6    C8    S    
C28   H11   S    
C29   H14   S    
C23   C38   A    
C23   C41   A    
C6    O13   A    
C38   C40   A    
C28   H10   S    
C38   H38   S    
C30   H16   S    
C17   C19   A    
C23   H36   S    
C27   O2    S    
C36   H31   S    
O9    Zn1   S    
C15   C21   S    
C20   C21   D    
O8    Zn2   S    
C8    C10   A    
C27   C28   S    
C24   N4    T    
C17   H12   S    
C36   H30   S    
C33   H26   S    
