data_mof_unit_59681.cif
_audit_creation_date              2012-12-10T18:42:30-0500
_audit_creation_method            fapswitch 2.2
_symmetry_space_group_name_H-M    P1
_symmetry_Int_Tables_number       1
_space_group_crystal_system       triclinic
_cell_length_a                    8.589928
_cell_length_b                    10.648266
_cell_length_c                    9.881832
_cell_angle_alpha                 89.526188
_cell_angle_beta                  98.3978
_cell_angle_gamma                 90.301356
_cell_volume                      894.140391054

loop_
_atom_site_label
_atom_site_type_symbol
_atom_type_description
_atom_site_fract_x
_atom_site_fract_y
_atom_site_fract_z
_atom_type_partial_charge
C1    C     C_R   0.499431 0.260684 0.500368 0.889573
C2    C     C_R   0.628642 0.065056 0.573927 -0.061667
C3    C     C_R   0.500948 0.871918 0.498748 -0.120113
C4    C     C_R   0.499052 0.128082 0.501252 -0.120114
C5    C     C_R   0.593879 0.581505 0.082343 0.046935
C6    C     C_R   0.406121 0.418495 0.917657 0.046935
C7    C     C_R   0.593611 0.581233 0.938710 -0.112353
C8    C     C_R   0.406389 0.418767 0.061290 -0.112353
C9    C     C_1   0.235805 0.133486 0.357089 0.185527
C10   C     C_1   0.764201 0.866514 0.642900 0.185526
C11   C     C_1   0.238763 0.866147 0.353144 0.195735
C12   C     C_R   0.500568 0.739316 0.499632 0.889575
C13   C     C_1   0.761236 0.133853 0.646856 0.195734
C14   C     C_1   0.693928 0.669160 0.164228 0.222821
C15   C     C_1   0.306071 0.330840 0.835772 0.222822
C16   C     C_R   0.201301 0.499921 0.464289 0.973189
C17   C     C_R   0.798699 0.500079 0.535711 0.973191
C18   C     C_2   0.036265 0.499812 0.445047 -0.343174
C19   C     C_2   0.963735 0.500188 0.554953 -0.343172
C20   C     C_R   0.370205 0.064955 0.427580 -0.051990
C21   C     C_R   0.629795 0.935045 0.572418 -0.051989
C22   C     C_R   0.371356 0.934944 0.426074 -0.061668
H1    H     H_    0.974884 0.499388 0.340634 0.187177
H2    H     H_    0.025115 0.500612 0.659366 0.187177
H3    H     H_    0.668206 0.646019 0.892284 0.151119
H4    H     H_    0.331794 0.353982 0.107716 0.151121
N1    N     N_R   0.499960 0.499970 0.857200 -0.106367
N2    N     N_R   0.500040 0.500030 0.142800 -0.106367
N3    N     N_1   0.128874 0.188087 0.301114 -0.199608
N4    N     N_1   0.871137 0.811913 0.698866 -0.199607
N5    N     N_1   0.133435 0.811207 0.295045 -0.177761
N6    N     N_1   0.866564 0.188793 0.704954 -0.177761
N7    N     N_1   0.774436 0.740040 0.229768 -0.181819
N8    N     N_1   0.225564 0.259960 0.770232 -0.181819
O1    O     O_R   0.499990 0.316750 0.614620 -0.615174
O2    O     O_R   0.500010 0.683250 0.385380 -0.615174
O3    O     O_R   0.499990 0.316780 0.385290 -0.620337
O4    O     O_R   0.500010 0.683220 0.614710 -0.620337
O5    O     O_R   0.271750 0.499990 0.587840 -0.618381
O6    O     O_R   0.728250 0.500010 0.412160 -0.618381
O7    O     O_R   0.271750 0.500010 0.358510 -0.618447
O8    O     O_R   0.728250 0.499990 0.641490 -0.618447
Zn1   Zn    Zn3+2 0.500000 0.499980 0.653120 0.975112
Zn2   Zn    Zn3+2 0.500000 0.500020 0.346880 0.975112

loop_
_geom_bond_atom_site_label_1
_geom_bond_atom_site_label_2
_ccdc_geom_bond_type
C2    C4    A    
C15   N8    T    
C1    O3    A    
C12   O2    A    
C5    N2    A    
C8    H4    S    
C10   N4    T    
C9    C20   S    
C6    N1    A    
C7    H3    S    
C9    N3    T    
C1    C4    S    
O1    Zn1   S    
C14   N7    T    
C19   H2    S    
C11   N5    T    
O4    Zn1   S    
C5    C14   S    
C2    C21   A    
C17   C19   S    
C20   C22   A    
C10   C21   S    
C12   O4    A    
C8    N2    A    
O7    Zn2   S    
O2    Zn2   S    
C3    C21   A    
O8    Zn1   S    
C16   O5    A    
C18   H1    S    
C4    C20   A    
O3    Zn2   S    
N1    Zn1   S    
O6    Zn2   S    
C7    N1    A    
C1    O1    A    
C16   C18   S    
C18   C19   D    
C5    C7    A    
C2    C13   S    
C17   O8    A    
C3    C22   A    
C6    C8    A    
C3    C12   S    
C11   C22   S    
C6    C15   S    
O5    Zn1   S    
C13   N6    T    
C16   O7    A    
N2    Zn2   S    
C17   O6    A    
