data_mof_unit_23987.cif
_audit_creation_date              2012-12-11T15:16:46-0500
_audit_creation_method            fapswitch 2.2
_symmetry_space_group_name_H-M    P1
_symmetry_Int_Tables_number       1
_space_group_crystal_system       triclinic
_cell_length_a                    25.399586
_cell_length_b                    7.225669
_cell_length_c                    21.752489
_cell_angle_alpha                 89.999386
_cell_angle_beta                  109.911813
_cell_angle_gamma                 90.000595
_cell_volume                      3753.5498431

loop_
_atom_site_label
_atom_site_type_symbol
_atom_type_description
_atom_site_fract_x
_atom_site_fract_y
_atom_site_fract_z
_atom_type_partial_charge
O1    O     O_R   0.554350 0.505270 0.581390 -0.524060
O2    O     O_R   0.445650 0.005270 0.418610 -0.524027
O3    O     O_R   0.553380 0.177580 0.454800 -0.543122
O4    O     O_R   0.446620 0.677580 0.545200 -0.543136
C1    C     C_R   0.564921 0.344786 0.437183 0.724046
C2    C     C_R   0.435077 0.844784 0.562814 0.723991
O5    O     O_R   0.560970 0.175640 0.583140 -0.539250
O6    O     O_R   0.439030 0.675640 0.416860 -0.539277
O7    O     O_R   0.453290 0.004120 0.547860 -0.533792
O8    O     O_R   0.546710 0.504120 0.452140 -0.533808
C3    C     C_R   0.576585 0.343799 0.607290 0.761006
C4    C     C_R   0.423413 0.843799 0.392712 0.760965
O9    O     O_3   0.464660 0.338800 0.488280 -0.378245
O10   O     O_3   0.535340 0.838800 0.511720 -0.378237
V1    V     V_3+5 0.506560 0.064420 0.502170 1.422160
V2    V     V_3+5 0.493440 0.564420 0.497830 1.422112
C5    C     C_R   0.150934 0.046203 0.285488 0.211579
C6    C     C_R   0.849078 0.546004 0.714492 0.211603
H1    H     H_    0.069180 0.086517 0.216196 0.118301
H2    H     H_    0.930825 0.586419 0.783785 0.118305
H3    H     H_    0.235654 0.055858 0.398187 0.173898
H4    H     H_    0.764375 0.555397 0.601772 0.173893
C7    C     C_R   0.121703 0.948171 0.172035 -0.065463
C8    C     C_R   0.878293 0.448158 0.827968 -0.065438
C9    C     C_R   0.392480 0.787100 0.275005 -0.187574
C10   C     C_R   0.607502 0.287309 0.725012 -0.187595
C11   C     C_R   0.352678 0.771215 0.213065 -0.108827
C12   C     C_R   0.647297 0.271536 0.786963 -0.108800
C13   C     C_R   0.296778 0.812164 0.202340 -0.138132
C14   C     C_R   0.703202 0.312407 0.797684 -0.138123
C15   C     C_R   0.278722 0.871968 0.253787 0.040488
C16   C     C_R   0.721271 0.372008 0.746220 0.040486
C17   C     C_R   0.320196 0.892347 0.318059 0.076177
C18   C     C_R   0.679806 0.392275 0.681937 0.076163
C19   C     C_R   0.220847 0.914633 0.242811 0.022210
C20   C     C_R   0.779151 0.414599 0.757191 0.022219
C21   C     C_R   0.206203 0.987670 0.295477 0.111408
C22   C     C_R   0.793806 0.487490 0.704508 0.111370
C23   C     C_R   0.246831 0.004245 0.357489 -0.218183
C24   C     C_R   0.753187 0.503931 0.642485 -0.218168
C25   C     C_R   0.302487 0.955413 0.369578 0.127274
C26   C     C_R   0.697528 0.455144 0.630401 0.127329
C27   C     C_R   0.176849 0.890177 0.181274 -0.209170
C28   C     C_R   0.823143 0.390203 0.818736 -0.209154
C29   C     C_R   0.110182 0.030922 0.223798 -0.223326
C30   C     C_R   0.889821 0.530826 0.776190 -0.223352
C31   C     C_R   0.377700 0.847288 0.328033 -0.076200
C32   C     C_R   0.622297 0.347306 0.671969 -0.076189
H5    H     H_    0.184128 0.831443 0.139360 0.107366
H6    H     H_    0.815857 0.331531 0.860660 0.107350
H7    H     H_    0.435515 0.750852 0.281769 0.110582
H8    H     H_    0.564462 0.251142 0.718254 0.110566
H9    H     H_    0.268761 0.797509 0.152738 0.112161
H10   H     H_    0.731213 0.297872 0.847296 0.112157
H11   H     H_    0.365278 0.725339 0.172752 0.128063
H12   H     H_    0.634687 0.225826 0.827289 0.128056
C33   C     C_R   0.118889 0.770093 0.875315 0.423830
C34   C     C_R   0.881124 0.270097 0.124700 0.423829
C35   C     C_R   0.160972 0.764426 0.846829 -0.229485
C36   C     C_R   0.839043 0.264422 0.153189 -0.229484
H13   H     H_    0.168815 0.634330 0.826750 0.152556
H14   H     H_    0.831203 0.134325 0.173271 0.152560
C37   C     C_R   0.190322 0.923671 0.840937 -0.034148
C38   C     C_R   0.809690 0.423661 0.159077 -0.034148
C39   C     C_R   0.180064 0.088517 0.869236 -0.138401
C40   C     C_R   0.819942 0.588505 0.130772 -0.138413
H15   H     H_    0.202292 0.214186 0.866249 0.156684
H16   H     H_    0.797712 0.714170 0.133756 0.156688
C41   C     C_R   0.140918 0.093320 0.901883 -0.237525
C42   C     C_R   0.859086 0.593313 0.098122 -0.237516
H17   H     H_    0.135048 0.222554 0.923912 0.185490
H18   H     H_    0.864952 0.722545 0.076088 0.185481
C43   C     C_R   0.109016 0.935722 0.904937 -0.145462
C44   C     C_R   0.890990 0.435721 0.095071 -0.145451
N1    N     N_R   0.252579 0.071974 0.788273 -0.280017
N2    N     N_R   0.747408 0.571954 0.211710 -0.280013
N3    N     N_R   0.284724 0.063987 0.750890 -0.233981
N4    N     N_R   0.715262 0.563969 0.249092 -0.233968
C45   C     C_R   0.294810 0.900171 0.726024 0.519119
C46   C     C_R   0.705200 0.400158 0.273989 0.519093
N5    N     N_R   0.272095 0.744273 0.741355 -0.281556
N6    N     N_R   0.727940 0.244263 0.258690 -0.281550
N7    N     N_R   0.239984 0.752174 0.778615 -0.284147
N8    N     N_R   0.760053 0.252163 0.221432 -0.284149
C47   C     C_R   0.229232 0.916038 0.802741 0.525010
C48   C     C_R   0.770781 0.416023 0.197275 0.524991
C49   C     C_R   0.354245 0.719474 0.675821 -0.180917
C50   C     C_R   0.645765 0.219462 0.324191 -0.180924
H19   H     H_    0.348435 0.598104 0.701986 0.174175
H20   H     H_    0.651581 0.098087 0.298034 0.174175
C51   C     C_R   0.387373 0.703306 0.636102 -0.174578
C52   C     C_R   0.612633 0.203300 0.363907 -0.174594
H21   H     H_    0.405993 0.570503 0.632782 0.128833
H22   H     H_    0.594016 0.070492 0.367231 0.128837
C53   C     C_R   0.397524 0.857502 0.602569 -0.084701
C54   C     C_R   0.602474 0.357506 0.397429 -0.084708
C55   C     C_R   0.372708 0.027497 0.608757 -0.199916
C56   C     C_R   0.627288 0.527505 0.391236 -0.199886
H23   H     H_    0.379344 0.147570 0.582491 0.123486
H24   H     H_    0.620645 0.647587 0.417494 0.123467
C57   C     C_R   0.338476 0.044883 0.647646 0.221891
C58   C     C_R   0.661523 0.544885 0.352351 0.221893
C59   C     C_R   0.329708 0.889627 0.682818 0.004519
C60   C     C_R   0.670298 0.389619 0.317189 0.004526
O11   O     O_R   0.953220 0.285790 0.047790 -0.504275
O12   O     O_R   0.046780 0.785790 0.952210 -0.504274
O13   O     O_R   0.939020 0.617570 0.916840 -0.534084
O14   O     O_R   0.060980 0.117570 0.083160 -0.534084
C61   C     C_R   0.923028 0.448958 0.893098 0.682040
C62   C     C_R   0.076969 0.948959 0.106904 0.682053
O15   O     O_R   0.946600 0.615450 0.045180 -0.544087
O16   O     O_R   0.053400 0.115450 0.954820 -0.544081
O17   O     O_R   0.054370 0.786770 0.081410 -0.539393
O18   O     O_R   0.945630 0.286770 0.918590 -0.539388
C63   C     C_R   0.933427 0.446390 0.060887 0.693828
C64   C     C_R   0.066575 0.946391 0.939115 0.693834
O19   O     O_3   0.035300 0.454160 0.011680 -0.367586
O20   O     O_3   0.964700 0.954160 0.988320 -0.367586
V3    V     V_3+5 0.993450 0.728620 0.997830 1.465709
V4    V     V_3+5 0.006550 0.228620 0.002170 1.465717
N9    N     N_3   0.311726 0.218661 0.650086 -0.637848
H25   H     H_    0.268772 0.200684 0.625872 0.236500
H26   H     H_    0.324617 0.320027 0.623983 0.215673
N10   N     N_3   0.688272 0.718666 0.349906 -0.637861
H27   H     H_    0.731225 0.700696 0.374117 0.236498
H28   H     H_    0.675383 0.820029 0.376008 0.215672
N11   N     N_3   0.136156 0.126623 0.337674 -0.691021
H29   H     H_    0.120830 0.260019 0.323539 0.231654
H30   H     H_    0.103695 0.048135 0.343773 0.229066
N12   N     N_3   0.863866 0.626306 0.662288 -0.690996
H31   H     H_    0.879205 0.759712 0.676397 0.231648
H32   H     H_    0.896320 0.547743 0.656200 0.229059
N13   N     N_3   0.340478 0.972568 0.435156 -0.670891
H33   H     H_    0.325370 0.890921 0.465201 0.217006
H34   H     H_    0.340474 0.110479 0.449755 0.233505
N14   N     N_3   0.659547 0.472124 0.564811 -0.670945
H35   H     H_    0.674655 0.390304 0.534807 0.217040
H36   H     H_    0.659565 0.609982 0.550151 0.233460
O21   O     O_3   0.088519 0.610798 0.874742 -0.547313
C65   C     C_3   0.051560 0.579787 0.810243 0.087996
H37   H     H_    0.072255 0.592035 0.772751 0.115216
H38   H     H_    0.017031 0.682470 0.798326 0.103752
C66   C     C_3   0.027917 0.384688 0.804699 -0.711284
H39   H     H_    0.011110 0.357655 0.844632 0.234005
H40   H     H_    0.993957 0.367049 0.756831 0.169082
H41   H     H_    0.061193 0.282619 0.807518 0.220690
O22   O     O_3   0.911495 0.110807 0.125273 -0.547310
C67   C     C_3   0.948456 0.079791 0.189775 0.088036
H42   H     H_    0.927763 0.092059 0.227274 0.115190
H43   H     H_    0.982992 0.182468 0.201690 0.103723
C68   C     C_3   0.972087 0.884677 0.195320 -0.711246
H44   H     H_    0.988884 0.857610 0.155376 0.234001
H45   H     H_    0.006054 0.867042 0.243183 0.169090
H46   H     H_    0.938806 0.782627 0.192516 0.220674

loop_
_geom_bond_atom_site_label_1
_geom_bond_atom_site_label_2
_ccdc_geom_bond_type
C50   C60   A    
C66   H41   S    
C40   H16   S    
C37   C39   A    
C7    C29   A    
C49   C51   A    
O12   V3    S    
C11   C13   A    
O14   V4    S    
O22   C67   S    
O1    C3    A    
C67   C68   S    
O2    C4    A    
C2    O7    A    
C25   N13   S    
C12   H12   S    
C23   C25   A    
C39   C41   A    
O5    C3    A    
C14   H10   S    
C43   C64   S    
C46   C60   S    
C16   C20   A    
C26   N14   S    
C19   C21   A    
N2    N4    A    
N10   H28   S    
N4    C46   A    
C33   C35   A    
C34   C36   A    
C66   H39   S    
H2    C30   S    
C52   C54   A    
C7    C27   A    
C33   O21   S    
C36   H14   S    
C68   H46   S    
C33   C43   A    
C41   H17   S    
O20   V3    S    
N5    N7    A    
O17   V3    S    
N1    C47   A    
C50   C52   A    
O14   C62   A    
C18   C26   A    
C39   H15   S    
C54   C56   A    
C42   C44   A    
C68   H44   S    
C65   C66   S    
O11   V4    S    
C41   C43   A    
C19   C27   A    
C9    C31   A    
C10   C32   A    
O5    V1    S    
O6    V2    S    
C22   C24   A    
C37   C47   S    
O13   C61   A    
C45   C59   S    
C3    C32   S    
C4    C31   S    
C58   N10   S    
C6    C30   A    
C38   C48   S    
C55   H23   S    
N3    C45   A    
C35   H13   S    
C65   H37   S    
N14   H36   S    
O19   V4    S    
C45   N5    A    
C34   O22   S    
C27   H5    S    
C56   C58   A    
C57   N9    S    
H1    C29   S    
C5    C29   A    
O12   C64   A    
C38   C40   A    
O4    V2    S    
N12   H32   S    
N11   H30   S    
C10   H8    S    
C51   H21   S    
H3    C23   S    
O6    C4    A    
H4    C24   S    
C15   C17   A    
O1    V2    S    
C5    C21   A    
C67   H42   S    
C58   C60   A    
O2    V1    S    
N1    N3    A    
C62   O17   A    
N9    H25   S    
C61   O18   A    
C49   C59   A    
O15   V3    S    
C46   N6    A    
N7    C47   A    
C50   H20   S    
N6    N8    A    
C49   H19   S    
N13   H33   S    
C8    C28   A    
C15   C19   A    
C6    N12   S    
O4    C2    A    
C18   C32   A    
N11   H29   S    
N2    C48   A    
O16   C64   A    
C1    C54   S    
O3    V1    S    
C34   C44   A    
O16   V4    S    
C57   C59   A    
C28   H6    S    
C66   H40   S    
C7    C62   S    
C10   C12   A    
O11   C63   A    
C5    N11   S    
C8    C61   S    
C67   H43   S    
N14   H35   S    
O3    C1    A    
C42   H18   S    
O21   C65   S    
C53   C55   A    
C65   H38   S    
C9    C11   A    
C35   C37   A    
C9    H7    S    
O13   V3    S    
C36   C38   A    
C8    C30   A    
C20   C22   A    
N12   H31   S    
C6    C22   A    
C17   C25   A    
C1    O8    A    
C21   C23   A    
O8    V2    S    
C14   C16   A    
C52   H22   S    
C40   C42   A    
C13   H9    S    
C17   C31   A    
C44   C63   S    
C24   C26   A    
C12   C14   A    
C11   H11   S    
C68   H45   S    
O7    V1    S    
C56   H24   S    
O18   V4    S    
N9    H26   S    
C20   C28   A    
C51   C53   A    
C13   C15   A    
C2    C53   S    
O9    V2    S    
N13   H34   S    
O10   V1    S    
N8    C48   A    
O15   C63   A    
C55   C57   A    
C16   C18   A    
N10   H27   S    
