data_mof_unit_35162.cif
_audit_creation_date              2012-12-10T19:08:09-0500
_audit_creation_method            fapswitch 2.2
_symmetry_space_group_name_H-M    P1
_symmetry_Int_Tables_number       1
_space_group_crystal_system       triclinic
_cell_length_a                    9.07309
_cell_length_b                    10.812366
_cell_length_c                    9.559272
_cell_angle_alpha                 90.137343
_cell_angle_beta                  90.147112
_cell_angle_gamma                 90.390959
_cell_volume                      937.751933065

loop_
_atom_site_label
_atom_site_type_symbol
_atom_type_description
_atom_site_fract_x
_atom_site_fract_y
_atom_site_fract_z
_atom_type_partial_charge
C1    C     C_R   0.503326 0.262350 0.499957 0.802910
C2    C     C_R   0.551796 0.935399 0.377042 -0.216485
C3    C     C_R   0.519378 0.870768 0.500859 -0.120919
C4    C     C_R   0.510240 0.936583 0.626191 0.071961
C5    C     C_3   0.397869 0.929914 0.740299 0.095123
C6    C     C_3   0.398011 0.070975 0.740319 -0.528009
C7    C     C_R   0.579488 0.586460 0.073919 0.189277
C8    C     C_R   0.409048 0.422714 0.073779 0.326886
C9    C     C_R   0.409039 0.423846 0.924344 -0.137171
C10   C     C_R   0.579467 0.586417 0.926923 0.309391
C11   C     C_3   0.741792 0.607990 0.921350 -0.494994
C12   C     C_R   0.220725 0.499884 0.499863 0.846661
C13   C     C_3   0.741872 0.607938 0.080197 -0.499905
C14   C     C_R   0.503367 0.737645 0.500136 0.789891
C15   C     C_R   0.779278 0.500110 0.500127 0.840490
C16   C     C_1   0.065565 0.499963 0.499811 -0.202475
C17   C     C_1   0.934431 0.500052 0.500144 -0.201404
C18   C     C_R   0.509502 0.063869 0.625876 0.070218
C19   C     C_R   0.519417 0.129338 0.500630 -0.079688
C20   C     C_R   0.552593 0.064468 0.377187 -0.217714
Cu1   Cu    Cu3+1 0.499990 0.499980 0.640670 0.947453
Cu2   Cu    Cu3+1 0.500010 0.500020 0.359330 0.952747
H1    H     H_    0.573065 0.112733 0.280144 0.165194
H2    H     H_    0.769831 0.699675 0.875857 0.194455
H3    H     H_    0.802808 0.528462 0.125106 0.221084
H4    H     H_    0.770075 0.699573 0.126359 0.193147
H5    H     H_    0.570343 0.886927 0.279451 0.160015
H6    H     H_    0.292408 0.885967 0.705968 0.140458
H7    H     H_    0.291796 0.110935 0.704645 0.174184
H8    H     H_    0.337025 0.362090 0.866488 0.156695
H9    H     H_    0.802704 0.528579 0.876136 0.216883
N1    N     N_R   0.500920 0.500930 0.147930 -0.206895
N2    N     N_R   0.500930 0.500890 0.852020 -0.204718
O1    O     O_R   0.500000 0.319640 0.618810 -0.583429
O2    O     O_R   0.500020 0.319680 0.381230 -0.551039
O3    O     O_R   0.288380 0.499980 0.618770 -0.581615
O4    O     O_R   0.288400 0.500020 0.381190 -0.570094
O5    O     O_R   0.499980 0.680320 0.618770 -0.562590
O6    O     O_R   0.500000 0.680360 0.381190 -0.589041
O7    O     O_R   0.711600 0.499980 0.618810 -0.582362
O8    O     O_R   0.711620 0.500020 0.381230 -0.583382
N3    N     N_2   0.458759 0.877332 0.867467 -0.397214
H10   H     H_    0.558539 0.914359 0.899431 0.252501
C21   C     C_3   0.354305 0.861164 0.979957 -0.701514
H11   H     H_    0.311729 0.952190 0.014681 0.228796
H12   H     H_    0.409163 0.815787 0.069937 0.221720
H13   H     H_    0.261109 0.801318 0.945182 0.233722
H14   H     H_    0.445060 0.114019 0.836331 0.203526
N4    N     N_2   0.311435 0.342800 0.147060 -0.364793
H15   H     H_    0.206110 0.377437 0.153977 0.244637
C22   C     C_3   0.313394 0.213746 0.106787 -0.743874
H16   H     H_    0.248344 0.199014 0.009510 0.203821
H17   H     H_    0.263257 0.157344 0.191311 0.239661
H18   H     H_    0.428206 0.182001 0.090328 0.227817

loop_
_geom_bond_atom_site_label_1
_geom_bond_atom_site_label_2
_ccdc_geom_bond_type
C7    C10   A    
C5    N3    S    
N3    C21   S    
C2    H5    S    
Cu1   O1    S    
C14   O5    A    
C5    H6    S    
C19   C20   A    
C21   H13   S    
C22   H18   S    
C4    C18   A    
C15   O7    A    
Cu2   O4    S    
C2    C3    A    
C3    C4    A    
C11   H9    S    
Cu1   O3    S    
Cu1   Cu2   S    
C9    N2    A    
Cu2   O2    S    
C11   C13   S    
C13   H3    S    
C6    H14   S    
C3    C14   S    
Cu2   N1    S    
C9    H8    S    
Cu2   O6    S    
C21   H12   S    
C1    O1    A    
C18   C19   A    
C10   N2    A    
C5    C6    S    
C6    C18   S    
C13   H4    S    
C1    C19   S    
Cu2   O8    S    
C12   O3    A    
C10   C11   S    
C2    C20   A    
C22   H16   S    
C8    N1    A    
C11   H2    S    
C7    C13   S    
C6    H7    S    
Cu1   N2    S    
C21   H11   S    
C15   O8    A    
N4    H15   S    
N3    H10   S    
C12   O4    A    
C15   C17   S    
C1    O2    A    
C8    C9    A    
C7    N1    A    
C22   H17   S    
C14   O6    A    
C20   H1    S    
C8    N4    S    
Cu1   O5    S    
C12   C16   S    
C16   C17   T    
C4    C5    S    
N4    C22   S    
Cu1   O7    S    
