data_mof_unit_8139.cif
_audit_creation_date              2012-12-10T19:34:39-0500
_audit_creation_method            fapswitch 2.2
_symmetry_space_group_name_H-M    P1
_symmetry_Int_Tables_number       1
_space_group_crystal_system       triclinic
_cell_length_a                    10.86204
_cell_length_b                    15.797664
_cell_length_c                    16.996749
_cell_angle_alpha                 95.640684
_cell_angle_beta                  91.790957
_cell_angle_gamma                 91.87901
_cell_volume                      2899.12853523

loop_
_atom_site_label
_atom_site_type_symbol
_atom_type_description
_atom_site_fract_x
_atom_site_fract_y
_atom_site_fract_z
_atom_type_partial_charge
C1    C     C_R   0.499076 0.490006 0.348510 0.975249
C2    C     C_R   0.056873 0.417980 0.485131 0.102722
C3    C     C_R   0.126714 0.496687 0.494103 -0.107731
C4    C     C_R   0.067175 0.573026 0.511701 -0.212427
C5    C     C_R   0.940739 0.573061 0.517097 -0.195295
C6    C     C_R   0.872241 0.496193 0.513573 -0.088632
C7    C     C_R   0.508346 0.484607 0.262469 -0.321465
C8    C     C_R   0.604479 0.530160 0.229629 0.227627
C9    C     C_R   0.622001 0.518273 0.147759 0.284017
C10   C     C_R   0.539128 0.464624 0.098839 0.086612
C11   C     C_R   0.447055 0.416930 0.131986 0.263447
C12   C     C_R   0.261624 0.499487 0.496079 0.788224
C13   C     C_R   0.425520 0.430965 0.213541 0.239149
C14   C     C_R   0.535249 0.440922 0.856839 -0.161783
C15   C     C_R   0.519338 0.438236 0.775189 -0.236130
C16   C     C_R   0.549048 0.519840 0.903614 0.374699
C17   C     C_R   0.517069 0.513844 0.738337 -0.025788
C18   C     C_R   0.532590 0.592385 0.784605 -0.225057
C19   C     C_R   0.548518 0.595101 0.866609 -0.193576
C20   C     C_R   0.444944 0.752794 0.457052 0.508479
C21   C     C_R   0.438585 0.843210 0.466227 0.259561
C22   C     C_R   0.516710 0.891676 0.523811 0.230331
C23   C     C_R   0.503986 0.509903 0.651757 0.790697
C24   C     C_R   0.587463 0.847313 0.575399 -0.388972
C25   C     C_R   0.584135 0.757956 0.568212 -0.076620
C26   C     C_R   0.544961 0.160493 0.547061 -0.241135
C27   C     C_R   0.541374 0.249556 0.549853 0.067255
C28   C     C_R   0.490614 0.109468 0.481762 0.365096
C29   C     C_R   0.430890 0.239684 0.426992 0.038059
C30   C     C_R   0.433471 0.150500 0.421514 -0.310459
C31   C     C_R   0.737896 0.499271 0.506472 0.806642
C32   C     C_R   0.104341 0.339416 0.454467 -0.213497
C33   C     C_R   0.040960 0.262473 0.460773 -0.283829
C34   C     C_R   0.928568 0.261284 0.499854 0.509294
C35   C     C_R   0.876774 0.339224 0.522883 -0.196343
C36   C     C_R   0.933623 0.417786 0.507739 0.024317
Cu1   Cu    Cu3+1 0.493970 0.415220 0.496180 0.955627
Cu2   Cu    Cu3+1 0.506030 0.584780 0.503820 0.968955
H1    H     H_    0.532339 0.651661 0.757554 0.156487
H2    H     H_    0.558501 0.656145 0.901676 0.145014
H3    H     H_    0.387154 0.270182 0.379776 0.152926
H4    H     H_    0.896733 0.633740 0.524921 0.157079
N1    N     N_2   0.545210 0.456607 0.015582 -0.195323
N2    N     N_2   0.555504 0.526421 0.987607 -0.189548
N3    N     N_R   0.515100 0.712130 0.509560 -0.221779
N4    N     N_2   0.523991 0.983474 0.533368 -0.252529
N5    N     N_2   0.491071 0.018205 0.473308 -0.175417
N6    N     N_R   0.484890 0.287850 0.490450 -0.171844
O1    O     O_R   0.494360 0.420530 0.382500 -0.576103
O2    O     O_R   0.504550 0.563720 0.388950 -0.513896
O3    O     O_R   0.314550 0.428390 0.496780 -0.585772
O4    O     O_R   0.324740 0.571580 0.503230 -0.574817
O5    O     O_R   0.495450 0.436280 0.611050 -0.599080
O6    O     O_R   0.505640 0.579470 0.617500 -0.592792
O7    O     O_R   0.675260 0.428420 0.496770 -0.594193
O8    O     O_R   0.685450 0.571610 0.503220 -0.585710
H5    H     H_    0.118005 0.633271 0.521162 0.149858
O9    O     O_3   0.326846 0.390997 0.246915 -0.577618
C37   C     C_3   0.213955 0.415357 0.213168 0.103731
H6    H     H_    0.190137 0.374726 0.157432 0.203436
H7    H     H_    0.216205 0.483537 0.201111 0.134528
C38   C     C_3   0.110565 0.402163 0.269248 -0.839868
H8    H     H_    0.128414 0.442965 0.325464 0.246083
H9    H     H_    0.021729 0.419702 0.242360 0.206785
H10   H     H_    0.103499 0.334343 0.281137 0.252662
O10   O     O_3   0.721185 0.558207 0.115870 -0.548332
C39   C     C_3   0.822534 0.504564 0.117363 0.109025
H11   H     H_    0.804391 0.445650 0.076445 0.137694
H12   H     H_    0.842962 0.486827 0.178173 0.153760
C40   C     C_3   0.936215 0.551075 0.090664 -0.783722
H13   H     H_    0.957339 0.609643 0.131186 0.247634
H14   H     H_    0.016391 0.509255 0.091457 0.192329
H15   H     H_    0.920120 0.568735 0.029622 0.254576
O11   O     O_3   0.689758 0.578239 0.278988 -0.560760
C41   C     C_3   0.669450 0.665542 0.274645 0.152048
H16   H     H_    0.570389 0.680172 0.281227 0.177731
H17   H     H_    0.700481 0.685808 0.217450 0.174185
C42   C     C_3   0.743564 0.717364 0.341170 -0.779201
H18   H     H_    0.843398 0.706131 0.335095 0.235661
H19   H     H_    0.727848 0.786194 0.338849 0.197220
H20   H     H_    0.714638 0.698736 0.399296 0.271724
H21   H     H_    0.585752 0.288088 0.599445 0.114475
H22   H     H_    0.591312 0.132333 0.594858 0.154924
H23   H     H_    0.645535 0.882086 0.621387 0.178162
H24   H     H_    0.638382 0.725129 0.609322 0.161060
H25   H     H_    0.187842 0.335816 0.421860 0.188097
O12   O     O_3   0.361046 0.883091 0.416523 -0.562832
C43   C     C_3   0.255204 0.908395 0.458270 0.063902
H26   H     H_    0.279115 0.955517 0.509924 0.168563
H27   H     H_    0.205962 0.852987 0.480230 0.093583
C44   C     C_3   0.167186 0.949444 0.403262 -0.806387
H28   H     H_    0.140808 0.904216 0.350817 0.241597
H29   H     H_    0.082687 0.967337 0.434936 0.190679
H30   H     H_    0.211598 0.007547 0.383334 0.247578
H31   H     H_    0.391073 0.113412 0.370226 0.151216
O13   O     O_3   0.398531 0.705903 0.388581 -0.562349
C45   C     C_3   0.269036 0.708029 0.380587 0.107889
H32   H     H_    0.242018 0.764302 0.350951 0.189606
H33   H     H_    0.224066 0.707965 0.438318 0.109099
C46   C     C_3   0.221425 0.630499 0.326827 -0.807130
H34   H     H_    0.251750 0.571491 0.350491 0.250350
H35   H     H_    0.119121 0.629180 0.322583 0.206495
H36   H     H_    0.257943 0.632896 0.266741 0.232814
H37   H     H_    0.082094 0.204896 0.435878 0.124525
O14   O     O_3   0.859676 0.188017 0.512680 -0.588037
C47   C     C_3   0.927680 0.113162 0.506159 0.047280
H38   H     H_    0.014900 0.121634 0.542804 0.143900
H39   H     H_    0.947338 0.094352 0.443146 0.149799
C48   C     C_3   0.850970 0.041194 0.535623 -0.775248
H40   H     H_    0.765875 0.028542 0.497868 0.272041
H41   H     H_    0.904550 0.982380 0.532965 0.190552
H42   H     H_    0.825373 0.058568 0.597736 0.244422
H43   H     H_    0.793413 0.336764 0.555532 0.163836
H44   H     H_    0.508762 0.376704 0.741000 0.154588
H45   H     H_    0.535162 0.381146 0.883018 0.154962
O15   O     O_3   0.373337 0.360114 0.082796 -0.564510
C49   C     C_3   0.417353 0.277609 0.087237 0.093148
H46   H     H_    0.411198 0.258362 0.148368 0.166069
H47   H     H_    0.514691 0.274169 0.068543 0.132796
C50   C     C_3   0.338768 0.214635 0.031964 -0.797757
H48   H     H_    0.344220 0.231425 0.970190 0.251143
H49   H     H_    0.372463 0.149369 0.034875 0.198551
H50   H     H_    0.241214 0.215879 0.049668 0.245358

loop_
_geom_bond_atom_site_label_1
_geom_bond_atom_site_label_2
_ccdc_geom_bond_type
C27   N6    A    
O12   C43   S    
C21   O12   S    
C28   N5    S    
C26   H22   S    
C33   H37   S    
C35   C36   A    
C5    H4    S    
C45   C46   S    
C45   H32   S    
C7    C8    A    
C26   C27   A    
C17   C23   S    
Cu1   Cu2   S    
C18   C19   A    
C48   H41   S    
C5    C6    A    
Cu1   O3    S    
C42   H19   S    
Cu2   O4    S    
C47   H38   S    
C14   H45   S    
O15   C49   S    
C30   H31   S    
C2    C32   A    
C34   C35   A    
C18   H1    S    
C9    O10   S    
Cu2   N3    S    
C41   H16   S    
C3    C12   S    
C12   O4    A    
C6    C36   A    
C8    C9    A    
C4    H5    S    
C38   H9    S    
C40   H13   S    
C31   O8    A    
C29   C30   A    
C1    O2    A    
C16   N2    S    
C20   N3    A    
C50   H50   S    
Cu1   O5    S    
C6    C31   S    
C20   O13   S    
C37   H6    S    
C21   C22   A    
C8    O11   S    
C45   H33   S    
C50   H49   S    
C23   O5    A    
C37   H7    S    
O11   C41   S    
C29   N6    A    
C39   H11   S    
O10   C39   S    
C24   C25   A    
C19   H2    S    
C49   C50   S    
C44   H28   S    
C42   H18   S    
C13   O9    S    
O9    C37   S    
C46   H36   S    
C39   H12   S    
N1    N2    D    
C38   H8    S    
C44   H29   S    
Cu1   O1    S    
Cu2   O6    S    
C43   C44   S    
C32   H25   S    
O13   C45   S    
C40   H15   S    
C25   H24   S    
C17   C18   A    
C15   H44   S    
C20   C21   A    
Cu1   N6    S    
C11   O15   S    
C41   H17   S    
C22   N4    S    
C43   H27   S    
C14   C16   A    
C48   H42   S    
C3    C4    A    
C25   N3    A    
C12   O3    A    
C50   H48   S    
C23   O6    A    
C46   H35   S    
C9    C10   A    
C2    C36   A    
C15   C17   A    
N4    N5    D    
C37   C38   S    
C38   H10   S    
C29   H3    S    
C10   N1    S    
C1    C7    S    
C34   O14   S    
C27   H21   S    
C4    C5    A    
Cu2   O2    S    
O14   C47   S    
C26   C28   A    
C39   C40   S    
C32   C33   A    
C49   H47   S    
C2    C3    A    
C24   H23   S    
C48   H40   S    
C44   H30   S    
C11   C13   A    
C42   H20   S    
C47   H39   S    
C16   C19   A    
C28   C30   A    
C46   H34   S    
C33   C34   A    
C35   H43   S    
C22   C24   A    
C41   C42   S    
C10   C11   A    
Cu1   O7    S    
C7    C13   A    
Cu2   O8    S    
C43   H26   S    
C14   C15   A    
C40   H14   S    
C31   O7    A    
C49   H46   S    
C1    O1    A    
C47   C48   S    
