data_mof_unit_43497.cif
_audit_creation_date              2012-12-11T16:26:28-0500
_audit_creation_method            fapswitch 2.2
_symmetry_space_group_name_H-M    P1
_symmetry_Int_Tables_number       1
_space_group_crystal_system       triclinic
_cell_length_a                    13.948413
_cell_length_b                    13.948323
_cell_length_c                    31.92683
_cell_angle_alpha                 89.712192
_cell_angle_beta                  90.287713
_cell_angle_gamma                 119.70909
_cell_volume                      5395.00116557

loop_
_atom_site_label
_atom_site_type_symbol
_atom_type_description
_atom_site_fract_x
_atom_site_fract_y
_atom_site_fract_z
_atom_type_partial_charge
C1    C     C_R   0.568090 0.443789 0.810608 0.534835
C2    C     C_R   0.443788 0.568092 0.189391 0.534837
C3    C     C_1   0.175762 0.767039 0.444995 0.204851
C4    C     C_1   0.606897 0.844704 0.056507 0.199302
C5    C     C_1   0.278204 0.334821 0.434890 0.190905
C6    C     C_1   0.767035 0.175758 0.555004 0.204850
C7    C     C_1   0.844648 0.606881 0.943490 0.199295
C8    C     C_1   0.334813 0.278208 0.565112 0.190904
C9    C     C_1   0.700323 0.022985 0.934660 0.193409
C10   C     C_1   0.982878 0.681359 0.566703 0.200192
C11   C     C_1   0.344616 0.277917 0.936866 0.202112
C12   C     C_R   0.432411 0.876622 0.310470 0.541104
C13   C     C_R   0.123098 0.555931 0.189580 0.544966
C14   C     C_1   0.930407 0.483068 0.027524 -0.000225
C15   C     C_1   0.551235 0.068195 0.472550 0.005727
C16   C     C_1   0.481059 0.485586 0.018674 0.007365
C17   C     C_1   0.091489 0.560332 0.490958 0.004785
C18   C     C_1   0.468522 0.907315 0.009000 0.000208
C19   C     C_1   0.476647 0.480745 0.481315 -0.002246
C20   C     C_1   0.560328 0.091488 0.509042 0.004785
C21   C     C_R   0.876623 0.432411 0.689530 0.541103
C22   C     C_1   0.907367 0.468589 0.990995 0.000213
C23   C     C_1   0.480747 0.476646 0.518685 -0.002246
C24   C     C_1   0.483012 0.930373 0.972474 -0.000229
C25   C     C_1   0.068197 0.551239 0.527450 0.005727
C26   C     C_1   0.485551 0.481091 0.981318 0.007366
C27   C     C_R   0.854341 0.423656 0.860047 0.001115
C28   C     C_R   0.569013 0.144971 0.639956 0.001031
C29   C     C_R   0.530901 0.459404 0.851781 0.002095
C30   C     C_R   0.939959 0.474789 0.650447 0.000488
C31   C     C_R   0.535395 0.059073 0.849407 0.004755
C32   C     C_R   0.555932 0.123098 0.810420 0.544960
C33   C     C_R   0.529792 0.459595 0.648259 0.004772
C34   C     C_R   0.474789 0.939958 0.349553 0.000490
C35   C     C_R   0.059069 0.535386 0.150593 0.004752
C36   C     C_R   0.459594 0.529790 0.351741 0.004772
C37   C     C_R   0.423621 0.854298 0.139951 0.001120
C38   C     C_R   0.144973 0.569014 0.360044 0.001030
C39   C     C_R   0.459397 0.530911 0.148215 0.002103
C40   C     C_R   0.841523 0.505887 0.880402 -0.133988
C41   C     C_R   0.666230 0.166932 0.618895 -0.135919
C42   C     C_R   0.446322 0.368189 0.872948 -0.130360
C43   C     C_R   0.567827 0.443947 0.689413 0.537466
C44   C     C_R   0.941255 0.563585 0.628901 -0.132356
C45   C     C_R   0.623497 0.060685 0.871585 -0.135672
C46   C     C_R   0.441549 0.369260 0.628094 -0.135417
C47   C     C_R   0.563576 0.941243 0.371101 -0.132355
C48   C     C_R   0.060519 0.623456 0.128449 -0.135689
C49   C     C_R   0.369257 0.441551 0.371907 -0.135417
C50   C     C_R   0.505883 0.841533 0.119596 -0.133980
C51   C     C_R   0.166935 0.666233 0.381104 -0.135920
C52   C     C_R   0.368180 0.446333 0.127049 -0.130359
C53   C     C_R   0.857193 0.520875 0.923661 -0.000589
C54   C     C_R   0.830564 0.404030 0.814886 0.560853
C55   C     C_R   0.665497 0.151685 0.575613 -0.000670
C56   C     C_R   0.427216 0.375248 0.915412 -0.003917
C57   C     C_R   0.987756 0.593379 0.588904 -0.001988
C58   C     C_R   0.606845 0.014148 0.911655 -0.001147
C59   C     C_R   0.421095 0.374953 0.585583 -0.002798
C60   C     C_R   0.593369 0.987743 0.411099 -0.001988
C61   C     C_R   0.013981 0.606816 0.088379 -0.001167
C62   C     C_R   0.374950 0.421098 0.414417 -0.002798
C63   C     C_R   0.520855 0.857190 0.076336 -0.000582
C64   C     C_R   0.151688 0.665500 0.424387 -0.000671
C65   C     C_R   0.573074 0.168874 0.685066 0.561174
C66   C     C_R   0.375230 0.427239 0.084583 -0.003912
C67   C     C_R   0.885080 0.452359 0.946950 0.023390
C68   C     C_R   0.566431 0.114000 0.553065 0.022165
C69   C     C_R   0.492330 0.474967 0.936782 0.022282
C70   C     C_R   0.034152 0.534315 0.570449 0.024955
C71   C     C_R   0.500709 0.964266 0.929434 0.024286
C72   C     C_R   0.488576 0.472486 0.563220 0.024051
C73   C     C_R   0.534312 0.034150 0.429551 0.024956
C74   C     C_R   0.964273 0.500726 0.070566 0.024284
C75   C     C_R   0.472486 0.488573 0.436779 0.024051
C76   C     C_R   0.443947 0.567827 0.310587 0.537467
C77   C     C_R   0.452293 0.885013 0.053045 0.023394
C78   C     C_R   0.114001 0.566434 0.446935 0.022165
C79   C     C_R   0.474942 0.492362 0.063211 0.022281
C80   C     C_R   0.896363 0.369515 0.926949 -0.120709
C81   C     C_R   0.469941 0.093461 0.573806 -0.118227
C82   C     C_R   0.570908 0.568074 0.915116 -0.116191
C83   C     C_R   0.037607 0.449506 0.592662 -0.112723
C84   C     C_R   0.411960 0.957481 0.906512 -0.119275
C85   C     C_R   0.571098 0.565058 0.583850 -0.122012
C86   C     C_R   0.449512 0.037615 0.407336 -0.112722
C87   C     C_R   0.404019 0.830548 0.185114 0.560873
C88   C     C_R   0.957646 0.412000 0.093454 -0.119277
C89   C     C_R   0.565060 0.571090 0.416149 -0.122011
C90   C     C_R   0.369412 0.896234 0.073046 -0.120712
C91   C     C_R   0.093461 0.469943 0.426194 -0.118226
C92   C     C_R   0.568051 0.570942 0.084875 -0.116199
C93   C     C_R   0.880766 0.354887 0.883823 -0.129277
C94   C     C_R   0.471194 0.109475 0.616887 -0.127727
C95   C     C_R   0.590381 0.560457 0.872855 -0.133593
C96   C     C_R   0.990932 0.419862 0.632358 -0.130007
C97   C     C_R   0.429032 0.004566 0.866783 -0.123737
C98   C     C_R   0.168875 0.573075 0.314934 0.561176
C99   C     C_R   0.591707 0.558840 0.626177 -0.126119
C100  C     C_R   0.419869 0.990941 0.367640 -0.130006
C101  C     C_R   0.004721 0.429057 0.133183 -0.123737
C102  C     C_R   0.558841 0.591701 0.373822 -0.126119
C103  C     C_R   0.354799 0.880646 0.116173 -0.129237
C104  C     C_R   0.109475 0.471194 0.383113 -0.127728
C105  C     C_R   0.560444 0.590402 0.127138 -0.133587
C106  C     C_1   0.022630 0.700268 0.065413 0.193368
C107  C     C_1   0.681339 0.982853 0.433301 0.200194
C108  C     C_1   0.277896 0.344640 0.063130 0.202098
Cr1   Cr    Cr6+3 0.504240 0.249200 0.750000 1.012530
Cr2   Cr    Cr6+3 0.744960 0.495760 0.750000 1.018306
Cr3   Cr    Cr6+3 0.750800 0.255040 0.750000 1.019610
Cr4   Cr    Cr6+3 0.249200 0.504240 0.250000 1.012530
Cr5   Cr    Cr6+3 0.495760 0.744960 0.250000 1.018312
Cr6   Cr    Cr6+3 0.255040 0.750800 0.250000 1.019602
H1    H     H_    0.818477 0.557975 0.862731 0.140865
H2    H     H_    0.558011 0.818541 0.137268 0.140862
H3    H     H_    0.197374 0.743137 0.363973 0.140143
H4    H     H_    0.289530 0.399456 0.142819 0.138734
H5    H     H_    0.002008 0.359627 0.149605 0.143113
H6    H     H_    0.351238 0.991313 0.351782 0.142951
H7    H     H_    0.632049 0.655883 0.142664 0.142414
H8    H     H_    0.094370 0.395641 0.367978 0.143612
H9    H     H_    0.289278 0.888690 0.130800 0.139255
H10   H     H_    0.629680 0.660012 0.359072 0.142241
H11   H     H_    0.395642 0.094372 0.632023 0.143612
H12   H     H_    0.743134 0.197370 0.636027 0.140141
H13   H     H_    0.888859 0.289395 0.869196 0.139260
H14   H     H_    0.660022 0.629678 0.640926 0.142241
H15   H     H_    0.359579 0.001728 0.850334 0.143088
H16   H     H_    0.991296 0.351224 0.648214 0.142951
H17   H     H_    0.655861 0.632061 0.857329 0.142408
H18   H     H_    0.919976 0.330185 0.079864 0.134395
H19   H     H_    0.403252 0.072673 0.421404 0.143536
H20   H     H_    0.645377 0.620725 0.068619 0.155476
H21   H     H_    0.064718 0.393361 0.443386 0.152332
H22   H     H_    0.316185 0.917554 0.055264 0.142854
H23   H     H_    0.399452 0.289534 0.857181 0.138751
H24   H     H_    0.640571 0.623062 0.433267 0.134464
H25   H     H_    0.393360 0.064719 0.556615 0.152330
H26   H     H_    0.917736 0.316326 0.944731 0.142905
H27   H     H_    0.623073 0.640567 0.566731 0.134464
H28   H     H_    0.330108 0.919676 0.920075 0.134346
H29   H     H_    0.072657 0.403239 0.578593 0.143540
H30   H     H_    0.620684 0.645405 0.931370 0.155459
H31   H     H_    0.902057 0.606665 0.642376 0.134787
H32   H     H_    0.706043 0.102400 0.858580 0.125414
H33   H     H_    0.392692 0.292044 0.644693 0.130382
H34   H     H_    0.606650 0.902037 0.357627 0.134790
H35   H     H_    0.102102 0.705973 0.141481 0.125422
H36   H     H_    0.292039 0.392699 0.355309 0.130383
N1    N     N_1   0.029633 0.775147 0.047000 -0.258786
N2    N     N_1   0.775222 0.030138 0.953104 -0.258868
N3    N     N_1   0.978970 0.751817 0.548893 -0.258142
N4    N     N_1   0.278523 0.199928 0.954049 -0.254761
N5    N     N_1   0.751789 0.978934 0.451113 -0.258146
N6    N     N_1   0.199904 0.278548 0.045949 -0.254776
N7    N     N_1   0.195163 0.848399 0.461513 -0.271166
N8    N     N_1   0.675813 0.834826 0.040558 -0.266286
N9    N     N_1   0.200669 0.265787 0.451284 -0.256808
N10   N     N_1   0.848393 0.195159 0.538486 -0.271169
N11   N     N_1   0.834724 0.675770 0.959440 -0.266323
N12   N     N_1   0.265775 0.200675 0.548718 -0.256803
O1    O     O_R   0.480350 0.140770 0.796330 -0.510024
O2    O     O_R   0.140770 0.480350 0.203670 -0.510037
O3    O     O_R   0.519650 0.660420 0.296330 -0.511899
O4    O     O_R   0.339580 0.859230 0.203670 -0.509126
O5    O     O_R   0.514930 0.348530 0.793250 -0.499664
O6    O     O_R   0.833600 0.485070 0.706750 -0.493225
O7    O     O_R   0.651470 0.166400 0.793250 -0.510696
O8    O     O_R   0.514930 0.348530 0.706750 -0.514743
O9    O     O_R   0.833600 0.485070 0.793250 -0.492691
O10   O     O_R   0.651470 0.166400 0.706750 -0.492959
O11   O     O_R   0.348530 0.514930 0.293250 -0.514743
O12   O     O_R   0.660420 0.519650 0.703670 -0.511900
O13   O     O_R   0.485070 0.833600 0.206750 -0.492691
O14   O     O_R   0.166400 0.651470 0.293250 -0.492959
O15   O     O_R   0.348530 0.514930 0.206750 -0.499671
O16   O     O_R   0.485070 0.833600 0.293250 -0.493223
O17   O     O_R   0.166400 0.651470 0.206750 -0.510712
O18   O     O_3   0.666667 0.333333 0.750000 -0.268882
O19   O     O_3   0.333333 0.666667 0.250000 -0.268892
O20   O     O_R   0.859230 0.339580 0.796330 -0.509139
O21   O     O_R   0.480350 0.140770 0.703670 -0.510086
O22   O     O_R   0.660420 0.519650 0.796330 -0.523053
O23   O     O_R   0.859230 0.339580 0.703670 -0.522061
O24   O     O_R   0.140770 0.480350 0.296330 -0.510080
O25   O     O_R   0.519650 0.660420 0.203670 -0.523047
O26   O     O_R   0.339580 0.859230 0.296330 -0.522062

loop_
_geom_bond_atom_site_label_1
_geom_bond_atom_site_label_2
_ccdc_geom_bond_type
C12   O16   A    
C32   O7    A    
C9    N2    T    
C33   C46   A    
C46   C59   A    
C28   C41   A    
C92   H20   S    
C56   C69   A    
C91   C104  A    
C38   C98   S    
C103  H9    S    
C72   C85   A    
C27   C54   S    
C52   C66   A    
C3    C64   S    
C66   C79   A    
C7    N11   T    
C4    C63   S    
C21   O6    A    
C49   H36   S    
C18   C24   T    
C68   C81   A    
C14   C74   S    
C28   C94   A    
C76   O11   A    
C13   C35   S    
C8    C59   S    
Cr4   O24   S    
C29   C42   A    
C43   O12   A    
C58   C71   A    
C87   O4    A    
C104  H8    S    
C1    O5    A    
C12   O26   A    
C32   O1    A    
C60   C73   A    
Cr6   O26   S    
C36   C102  A    
C9    C58   S    
C2    O25   A    
C41   C55   A    
C38   C104  A    
C69   C82   A    
C36   C76   S    
C11   N4    T    
C42   C56   A    
C47   C60   A    
Cr2   O6    S    
C2    C39   S    
C1    O22   A    
Cr5   O19   S    
C46   H33   S    
C73   C86   A    
C5    N9    T    
C30   C96   A    
C54   O20   A    
C106  N1    T    
C2    O15   A    
C84   H28   S    
C57   C70   A    
Cr1   O5    S    
C6    C55   S    
C96   H16   S    
C39   C105  A    
C59   C72   A    
Cr5   O13   S    
Cr2   O9    S    
Cr1   O21   S    
C44   C57   A    
Cr6   O14   S    
Cr5   O16   S    
Cr2   O22   S    
C48   H35   S    
C42   H23   S    
C95   H17   S    
C50   C63   A    
C30   C44   A    
C13   O17   A    
C102  H10   S    
C35   C48   A    
C41   H12   S    
C10   N3    T    
C43   O8    A    
C37   C87   S    
Cr6   O4    S    
Cr2   O12   S    
C16   C26   T    
C15   C20   T    
Cr4   O2    S    
C4    N8    T    
C77   C90   A    
Cr3   O23   S    
C74   C88   A    
C67   C80   A    
C65   O10   A    
C45   H32   S    
C33   C43   S    
C10   C57   S    
C82   H30   S    
Cr1   O1    S    
Cr5   O25   S    
C85   H27   S    
C37   C50   A    
C29   C95   A    
C55   C68   A    
C38   C51   A    
C80   H26   S    
Cr3   O20   S    
Cr3   O10   S    
C33   C99   A    
C88   H18   S    
C101  H5    S    
C19   C23   T    
C93   H13   S    
C85   C99   A    
C90   H22   S    
C86   H19   S    
C34   C100  A    
C31   C32   S    
C108  N6    T    
Cr2   O18   S    
C27   C40   A    
C90   C103  A    
C83   H29   S    
C89   C102  A    
C1    C29   S    
C44   H31   S    
C105  H7    S    
C76   O3    A    
C70   C83   A    
C89   H24   S    
C79   C92   A    
Cr4   O19   S    
C60   C107  S    
C100  H6    S    
C15   C73   S    
C40   C53   A    
Cr3   O18   S    
C78   C91   A    
C62   C75   A    
C27   C93   A    
C84   C97   A    
C12   C34   S    
C45   C58   A    
C61   C106  S    
C86   C100  A    
Cr1   O8    S    
C13   O2    A    
C37   C103  A    
C71   C84   A    
C63   C77   A    
C94   H11   S    
C81   H25   S    
C47   H34   S    
C82   C95   A    
C98   O14   A    
C64   C78   A    
C54   O9    A    
C20   C68   S    
C88   C101  A    
C51   C64   A    
C66   C108  S    
C35   C101  A    
C6    N10   T    
C21   O23   A    
C99   H14   S    
C25   C70   S    
C61   C74   A    
Cr6   O19   S    
C87   O13   A    
C21   C30   S    
C16   C79   S    
C17   C25   T    
C14   C22   T    
C65   O21   A    
C28   C65   S    
C97   H15   S    
C98   O24   A    
C8    N12   T    
C36   C49   A    
Cr5   O3    S    
C81   C94   A    
Cr1   O18   S    
C48   C61   A    
C18   C77   S    
C83   C96   A    
C19   C75   S    
C17   C78   S    
C51   H3    S    
C5    C62   S    
C39   C52   A    
C50   H2    S    
C23   C72   S    
C31   C97   A    
C53   C67   A    
C22   C67   S    
C75   C89   A    
C40   H1    S    
C92   C105  A    
C91   H21   S    
Cr6   O17   S    
C31   C45   A    
C3    N7    T    
C26   C69   S    
C7    C53   S    
C49   C62   A    
C34   C47   A    
Cr3   O7    S    
C80   C93   A    
C107  N5    T    
C11   C56   S    
C24   C71   S    
Cr4   O11   S    
Cr4   O15   S    
C52   H4    S    
