data_mof_unit_7187.cif
_audit_creation_date              2012-12-11T15:13:49-0500
_audit_creation_method            fapswitch 2.2
_symmetry_space_group_name_H-M    P1
_symmetry_Int_Tables_number       1
_space_group_crystal_system       triclinic
_cell_length_a                    6.9496
_cell_length_b                    13.67519
_cell_length_c                    20.080821
_cell_angle_alpha                 104.118495
_cell_angle_beta                  89.627138
_cell_angle_gamma                 90.533203
_cell_volume                      1850.67807893

loop_
_atom_site_label
_atom_site_type_symbol
_atom_type_description
_atom_site_fract_x
_atom_site_fract_y
_atom_site_fract_z
_atom_type_partial_charge
O1    O     O_R   0.506780 0.600060 0.449950 -0.533239
O2    O     O_R   0.179840 0.597110 0.589410 -0.534421
O3    O     O_R   0.004570 0.399940 0.550050 -0.547863
C1    C     C_R   0.348102 0.618807 0.616886 0.747231
O4    O     O_R   0.177380 0.612160 0.452890 -0.517582
O5    O     O_R   0.002100 0.415100 0.412560 -0.537159
C2    C     C_R   0.347351 0.637431 0.435639 0.804819
O6    O     O_R   0.509250 0.584900 0.587440 -0.535919
O7    O     O_3   0.337570 0.435330 0.486930 -0.387080
V1    V     V_3+5 0.064650 0.512000 0.502430 1.523660
O8    O     O_R   0.672090 0.402890 0.410590 -0.548704
C3    C     C_R   0.840875 0.381962 0.382829 0.702598
O9    O     O_R   0.674540 0.387840 0.547110 -0.547367
C4    C     C_R   0.842202 0.362250 0.564291 0.682400
V2    V     V_3+5 0.564040 0.488000 0.497570 1.481575
O10   O     O_3   0.840990 0.564670 0.513070 -0.348398
C5    C     C_R   0.782258 0.114018 0.609147 -0.111318
H1    H     H_    0.781847 0.163145 0.515692 0.107871
H2    H     H_    0.732731 0.992622 0.692022 0.168788
H3    H     H_    0.750866 0.036901 0.582699 0.168861
C6    C     C_R   0.844806 0.285376 0.603468 -0.033255
C7    C     C_R   0.905806 0.315065 0.932577 -0.120544
C8    C     C_R   0.920781 0.390620 0.897616 -0.065224
C9    C     C_R   0.901163 0.368611 0.826583 -0.141207
C10   C     C_R   0.861551 0.269116 0.788365 0.073711
C11   C     C_R   0.839589 0.192210 0.824890 0.065370
C12   C     C_R   0.844415 0.243208 0.715246 0.071834
C13   C     C_R   0.800013 0.141916 0.680827 0.138333
C14   C     C_R   0.771893 0.069117 0.718006 -0.159830
C15   C     C_R   0.794224 0.093154 0.788702 -0.197399
C16   C     C_R   0.868021 0.314138 0.674810 -0.208383
C17   C     C_R   0.802152 0.185468 0.570808 -0.171732
C18   C     C_R   0.865854 0.215989 0.897013 -0.082469
H4    H     H_    0.898884 0.392662 0.697012 0.106233
H5    H     H_    0.926808 0.333782 0.987689 0.141764
H6    H     H_    0.917899 0.431290 0.803355 0.135925
H7    H     H_    0.950545 0.466786 0.925737 0.151288
H8    H     H_    0.774208 0.033210 0.814774 0.125932
C19   C     C_3   0.896023 0.158393 0.254099 -0.121209
C20   C     C_3   0.027285 0.252006 0.280098 -0.101349
H9    H     H_    0.168511 0.252054 0.305646 0.133073
H10   H     H_    0.927514 0.080450 0.257775 0.140899
C21   C     C_3   0.849954 0.312978 0.311891 -0.030774
C22   C     C_3   0.718893 0.220356 0.286627 -0.135431
C23   C     C_3   0.685484 0.252782 0.218840 -0.101014
C24   C     C_3   0.816179 0.346154 0.244945 -0.123863
C25   C     C_3   0.993608 0.284308 0.212270 -0.096977
C26   C     C_3   0.862542 0.191349 0.187018 -0.014250
H11   H     H_    0.605711 0.194606 0.317853 0.122628
H12   H     H_    0.545396 0.255777 0.193247 0.154766
H13   H     H_    0.779094 0.423244 0.240995 0.157128
H14   H     H_    0.107101 0.310630 0.181414 0.154684
C27   C     C_3   0.536017 0.740288 0.724003 -0.140041
C28   C     C_3   0.423575 0.840470 0.747205 -0.174606
H15   H     H_    0.476273 0.916428 0.745148 0.137897
H16   H     H_    0.684307 0.732773 0.702587 0.167662
C29   C     C_3   0.358503 0.809714 0.812877 -0.076446
C30   C     C_3   0.470492 0.710352 0.790107 0.186933
C31   C     C_3   0.289222 0.657761 0.752990 -0.187139
C32   C     C_3   0.176697 0.758068 0.776159 -0.173226
C33   C     C_3   0.242725 0.787739 0.710021 0.216296
C34   C     C_3   0.354591 0.688582 0.687463 -0.072436
H17   H     H_    0.234328 0.582174 0.755374 0.139888
H18   H     H_    0.028316 0.765951 0.797458 0.164331
C35   C     C_R   0.480687 0.880195 0.392445 -0.164189
H19   H     H_    0.484777 0.010324 0.316000 0.133296
H20   H     H_    0.536773 0.953731 0.418479 0.136052
C36   C     C_R   0.365153 0.715383 0.397761 -0.108472
C37   C     C_R   0.337085 0.684833 0.069405 0.078485
C38   C     C_R   0.355314 0.609312 0.105512 0.191784
C39   C     C_R   0.378339 0.635721 0.176274 -0.153897
C40   C     C_R   0.369631 0.736389 0.214420 0.048255
C41   C     C_R   0.373659 0.814647 0.178810 -0.000176
C42   C     C_R   0.374418 0.760823 0.287525 0.069529
C43   C     C_R   0.438085 0.858110 0.322359 0.055499
C44   C     C_R   0.450070 0.934073 0.287697 -0.182442
C45   C     C_R   0.401611 0.915648 0.218628 0.094402
C46   C     C_R   0.315099 0.693690 0.327796 0.035643
C47   C     C_R   0.454247 0.807365 0.429263 0.143372
C48   C     C_R   0.354994 0.787533 0.105666 -0.128377
H21   H     H_    0.408558 0.576000 0.201215 0.171428
O11   O     O_R   0.203580 0.914920 0.912610 -0.543162
O12   O     O_R   0.535710 0.887810 0.047120 -0.534992
O13   O     O_R   0.710730 0.084950 0.087430 -0.527841
C49   C     C_R   0.366370 0.863595 0.065530 0.771576
O14   O     O_R   0.533010 0.902850 0.910600 -0.537692
O15   O     O_R   0.708010 0.100090 0.949930 -0.541182
C50   C     C_R   0.364714 0.880243 0.883352 0.712649
O16   O     O_R   0.206300 0.899780 0.050100 -0.537158
O17   O     O_3   0.375170 0.064580 0.013100 -0.355200
V3    V     V_3+5 0.648200 0.988020 0.997570 1.492498
O18   O     O_R   0.038030 0.112330 0.952840 -0.539072
C51   C     C_R   0.870134 0.137847 0.935617 0.686744
O19   O     O_R   0.040730 0.097300 0.089360 -0.527864
C52   C     C_R   0.871732 0.120107 0.116593 0.728080
V4    V     V_3+5 0.148780 0.012220 0.002360 1.494770
O20   O     O_3   0.871930 0.935430 0.986900 -0.373810
I1    I     I_    0.662299 0.643098 0.848129 -0.557758
I2    I     I_    0.060810 0.848415 0.645366 -0.411938
I3    I     I_    0.539831 0.842621 0.533698 -0.398440
I4    I     I_    0.105652 0.576557 0.291832 -0.460235
C53   C     C_3   0.301712 0.656355 0.992432 -0.349918
C54   C     C_3   0.088286 0.662131 0.976842 -0.696320
H22   H     H_    0.002307 0.616492 0.005187 0.240590
H23   H     H_    0.036702 0.740829 0.991931 0.248138
H24   H     H_    0.065264 0.633269 0.920815 0.232707
H25   H     H_    0.383569 0.706605 0.966617 0.186486
H26   H     H_    0.353717 0.579581 0.968158 0.235194
I5    I     I_    0.348554 0.451848 0.058413 -0.483341
I6    I     I_    0.361687 0.051975 0.189075 -0.470226

loop_
_geom_bond_atom_site_label_1
_geom_bond_atom_site_label_2
_ccdc_geom_bond_type
C22   H11   S    
C20   C25   S    
C35   C47   A    
C26   C52   S    
O15   V3    S    
C30   I1    S    
C1    O6    A    
O17   V3    S    
C23   C24   S    
C7    H5    S    
C6    C16   A    
C14   C15   A    
C4    C6    S    
C13   C14   A    
C3    C21   S    
O14   V3    S    
O5    C3    A    
O14   C50   A    
C27   H16   S    
V2    O10   S    
C1    C34   S    
O18   V4    S    
C5    H3    S    
C15   H8    S    
C2    C36   S    
C24   C25   S    
O8    V2    S    
C20   C21   S    
O19   C52   A    
C35   H20   S    
C8    C9    A    
C53   H26   S    
C38   C39   A    
O1    V2    S    
O13   V3    S    
O7    V1    S    
C36   C47   A    
C31   C32   S    
O9    C4    A    
C46   I4    S    
C33   I2    S    
C19   H10   S    
C36   C46   A    
C6    C17   A    
O11   V4    S    
C42   C43   A    
C12   C16   A    
C53   C54   S    
C47   I3    S    
C9    C10   A    
C40   C42   A    
C19   C20   S    
O4    C2    A    
C37   C53   S    
C29   C32   S    
C10   C11   A    
C8    H7    S    
C24   H13   S    
V3    O20   S    
C32   C33   S    
O13   C52   A    
O2    C1    A    
C43   C44   A    
C48   C49   S    
C38   I5    S    
C27   C34   S    
C11   C18   A    
C25   C26   S    
C27   C30   S    
H19   C44   S    
V4    O20   S    
O17   V4    S    
C16   H4    S    
C53   H25   S    
C54   H23   S    
C9    H6    S    
C44   C45   A    
O19   V4    S    
C19   C22   S    
O3    C4    A    
C20   H9    S    
O12   C49   A    
C11   C15   A    
O6    V2    S    
O9    V2    S    
C21   C22   S    
H1    C17   S    
O2    V1    S    
C12   C13   A    
C22   C23   S    
C23   C26   S    
C7    C18   A    
C28   H15   S    
C31   C34   S    
C49   O16   A    
O1    C2    A    
C5    C13   A    
C40   C41   A    
C18   C51   S    
O5    V1    S    
O8    C3    A    
C27   C28   S    
C25   H14   S    
C28   C33   S    
C10   C12   A    
O12   V3    S    
C31   H17   S    
C35   C43   A    
C29   C50   S    
C32   H18   S    
O16   V4    S    
C30   C31   S    
O4    V1    S    
O3    V1    S    
V1    O10   S    
C29   C30   S    
C23   H12   S    
O11   C50   A    
O15   C51   A    
O18   C51   A    
C41   C48   A    
C54   H24   S    
O7    V2    S    
C33   C34   S    
C21   C24   S    
C37   C38   A    
C39   C40   A    
C42   C46   A    
C54   H22   S    
C5    C17   A    
C41   C45   A    
C7    C8    A    
C37   C48   A    
C45   I6    S    
C19   C26   S    
C39   H21   S    
C28   C29   S    
H2    C14   S    
