data_mof_unit_53929.cif
_audit_creation_date              2012-12-10T18:00:44-0500
_audit_creation_method            fapswitch 2.2
_symmetry_space_group_name_H-M    P1
_symmetry_Int_Tables_number       1
_space_group_crystal_system       triclinic
_cell_length_a                    15.8551
_cell_length_b                    10.81917
_cell_length_c                    9.589438
_cell_angle_alpha                 89.196203
_cell_angle_beta                  88.578258
_cell_angle_gamma                 91.875235
_cell_volume                      1643.39442483

loop_
_atom_site_label
_atom_site_type_symbol
_atom_type_description
_atom_site_fract_x
_atom_site_fract_y
_atom_site_fract_z
_atom_type_partial_charge
C1    C     C_R   0.499358 0.262280 0.500652 0.775892
C2    C     C_R   0.499953 0.737718 0.499535 0.776655
C3    C     C_R   0.477078 0.936611 0.379839 -0.186593
C4    C     C_R   0.519246 0.063324 0.622240 -0.195208
C5    C     C_R   0.499384 0.871664 0.499748 -0.012005
C6    C     C_R   0.498436 0.128309 0.501360 -0.015098
C7    C     C_R   0.444373 0.426715 0.080033 -0.065219
C8    C     C_R   0.556578 0.571563 0.919826 -0.054972
C9    C     C_R   0.442325 0.427440 0.932228 0.256834
C10   C     C_R   0.555694 0.575987 0.067640 0.257386
C11   C     C_R   0.339928 0.499489 0.501501 0.825264
C12   C     C_R   0.660103 0.500254 0.498531 0.822064
C13   C     C_3   0.966969 0.421056 0.600240 -0.201997
C14   C     C_3   0.033205 0.576405 0.400728 -0.201510
C15   C     C_3   0.026275 0.383053 0.477863 -0.200162
C16   C     C_3   0.973932 0.614410 0.523112 -0.200087
C17   C     C_1   0.250191 0.498837 0.504767 -0.183160
C18   C     C_1   0.749895 0.500008 0.495454 -0.186189
C19   C     C_3   0.024819 0.535883 0.624898 0.219118
C20   C     C_3   0.975410 0.461559 0.376034 0.218865
C21   C     C_3   0.082958 0.498332 0.503894 0.109593
C22   C     C_3   0.917197 0.499134 0.497003 0.109354
C23   C     C_1   0.174615 0.498406 0.505565 -0.073851
C24   C     C_1   0.825493 0.499649 0.495002 -0.072271
C25   C     C_R   0.477109 0.064521 0.380255 -0.184746
C26   C     C_R   0.520022 0.935415 0.621301 -0.184192
Cu1   Cu    Cu3+1 0.500000 0.500020 0.640660 0.929528
Cu2   Cu    Cu3+1 0.500000 0.499980 0.359340 0.930426
H1    H     H_    0.400371 0.367990 0.141013 0.139824
H2    H     H_    0.601746 0.627863 0.858443 0.144437
N1    N     N_R   0.500020 0.500030 0.852070 -0.193790
N2    N     N_R   0.499980 0.499970 0.147930 -0.194204
O1    O     O_R   0.500000 0.319660 0.618740 -0.606905
O2    O     O_R   0.500000 0.680340 0.381260 -0.589299
O3    O     O_R   0.499990 0.319630 0.381170 -0.583747
O4    O     O_R   0.500010 0.680370 0.618830 -0.583999
O5    O     O_R   0.379080 0.500000 0.618760 -0.577910
O6    O     O_R   0.620920 0.500000 0.381240 -0.597521
O7    O     O_R   0.379080 0.499970 0.381190 -0.575237
O8    O     O_R   0.620920 0.500030 0.618810 -0.575533
H3    H     H_    0.048812 0.288541 0.458882 0.136452
H4    H     H_    0.951443 0.708939 0.542153 0.136562
H5    H     H_    0.938820 0.358107 0.682481 0.137286
H6    H     H_    0.061375 0.639363 0.318510 0.137412
C27   C     C_3   0.945456 0.419547 0.233579 -0.412097
C28   C     C_3   0.019495 0.385088 0.138771 -0.846947
H7    H     H_    0.053671 0.307345 0.185497 0.249956
H8    H     H_    0.064006 0.465654 0.122182 0.255482
H9    H     H_    0.995713 0.355803 0.036032 0.244563
H10   H     H_    0.901516 0.338056 0.248120 0.204187
H11   H     H_    0.910921 0.495460 0.183756 0.201950
C29   C     C_3   0.055380 0.577622 0.767104 -0.413572
C30   C     C_3   0.981786 0.612401 0.862599 -0.846978
H12   H     H_    0.947626 0.690320 0.816213 0.249952
H13   H     H_    0.937181 0.531999 0.879549 0.254536
H14   H     H_    0.006017 0.641548 0.965094 0.244643
H15   H     H_    0.089925 0.501493 0.816516 0.204907
H16   H     H_    0.099488 0.658886 0.752256 0.203982
H17   H     H_    0.459643 0.113256 0.286367 0.144395
H18   H     H_    0.537326 0.886669 0.715285 0.147728
H19   H     H_    0.458430 0.888695 0.286747 0.150119
H20   H     H_    0.535947 0.111176 0.716648 0.149837
C31   C     C_3   0.373886 0.345099 0.871634 -0.373607
C32   C     C_3   0.286695 0.399200 0.894060 -0.856555
H21   H     H_    0.285506 0.494569 0.849975 0.271503
H22   H     H_    0.238507 0.340863 0.841398 0.238095
H23   H     H_    0.269608 0.401617 0.006989 0.239757
H24   H     H_    0.383292 0.326460 0.760915 0.256271
H25   H     H_    0.374184 0.252569 0.923603 0.157485
C33   C     C_3   0.618247 0.668477 0.128022 -0.373947
C34   C     C_3   0.601387 0.801076 0.081011 -0.893886
H26   H     H_    0.533250 0.819914 0.092703 0.258316
H27   H     H_    0.637761 0.867566 0.145373 0.251034
H28   H     H_    0.621361 0.816820 0.970255 0.237002
H29   H     H_    0.618415 0.668371 0.241419 0.263711
H30   H     H_    0.683151 0.645089 0.093358 0.170635

loop_
_geom_bond_atom_site_label_1
_geom_bond_atom_site_label_2
_ccdc_geom_bond_type
C7    H1    S    
C1    O1    A    
C30   H12   S    
Cu1   O1    S    
C28   H9    S    
C17   C23   T    
C18   C24   T    
C14   C21   S    
C19   C21   S    
C6    C25   A    
C27   H11   S    
C4    H20   S    
C11   O5    A    
C31   H24   S    
C19   C29   S    
C31   H25   S    
Cu2   O3    S    
C33   C34   S    
C20   C27   S    
C2    O2    A    
C3    H19   S    
Cu2   O2    S    
C30   H13   S    
C15   C20   S    
C28   H8    S    
C13   C19   S    
Cu1   N1    S    
C1    C6    S    
C32   H23   S    
C14   C20   S    
Cu2   N2    S    
C15   H3    S    
C4    C6    A    
C34   H27   S    
Cu2   O7    S    
C27   C28   S    
C31   C32   S    
C32   H22   S    
C12   O8    A    
Cu2   O6    S    
Cu1   O8    S    
C11   O7    A    
C29   H16   S    
C10   C33   S    
C20   C22   S    
C13   C15   S    
C33   H30   S    
C14   C16   S    
C2    C5    S    
C16   H4    S    
C13   H5    S    
C29   C30   S    
C1    O3    A    
C14   H6    S    
C30   H14   S    
C2    O4    A    
C7    C9    A    
C28   H7    S    
C11   C17   S    
C16   C22   S    
C7    N2    A    
C9    C31   S    
C8    N1    A    
C3    C5    A    
C34   H28   S    
C4    C26   A    
Cu1   O4    S    
C8    H2    S    
C32   H21   S    
C21   C23   S    
C34   H26   S    
C27   H10   S    
Cu1   O5    S    
C16   C19   S    
C13   C22   S    
C22   C24   S    
C12   O6    A    
C29   H15   S    
C9    N1    A    
C5    C26   A    
C10   N2    A    
C15   C21   S    
C3    C25   A    
C8    C10   A    
C12   C18   S    
C33   H29   S    
C25   H17   S    
C26   H18   S    
Cu1   Cu2   S    
