data_mof_unit_59850.cif
_audit_creation_date              2012-10-26T18:48:18-0400
_audit_creation_method            fapswitch 2.2
_symmetry_space_group_name_H-M    P1
_symmetry_Int_Tables_number       1
_space_group_crystal_system       triclinic
_cell_length_a                    10.614914
_cell_length_b                    8.683503
_cell_length_c                    7.465344
_cell_angle_alpha                 102.829603
_cell_angle_beta                  94.770793
_cell_angle_gamma                 92.515205
_cell_volume                      667.233791857

loop_
_atom_site_label
_atom_site_type_symbol
_atom_type_description
_atom_site_fract_x
_atom_site_fract_y
_atom_site_fract_z
_atom_type_partial_charge
C1    C     C_R   0.496189 0.199810 0.453365 0.557271
C2    C     C_3   0.123081 0.498247 0.500831 0.039999
C3    C     C_3   0.968801 0.519744 0.675536 -0.130517
C4    C     C_3   0.031197 0.480248 0.324460 -0.130442
C5    C     C_2   0.494372 0.031941 0.427119 -0.135869
C6    C     C_2   0.505628 0.968059 0.572881 -0.135864
C7    C     C_R   0.503811 0.800190 0.546635 0.557273
C8    C     C_R   0.259608 0.499264 0.500958 0.582799
C9    C     C_R   0.740390 0.500733 0.499041 0.582803
C10   C     C_3   0.040877 0.379363 0.573619 -0.153428
C11   C     C_3   0.959121 0.620630 0.426378 -0.153351
C12   C     C_3   0.948163 0.364825 0.400204 0.230274
C13   C     C_3   0.051835 0.635170 0.599796 0.230298
C14   C     C_3   0.876919 0.501748 0.499167 0.040009
Cu1   Cu    Cu3+1 0.514140 0.517380 0.684380 0.992683
Cu2   Cu    Cu3+1 0.485860 0.482620 0.315620 0.992686
H1    H     H_    0.076134 0.279728 0.630321 0.120391
H2    H     H_    0.041986 0.842809 0.751010 0.320361
H3    H     H_    0.923868 0.720268 0.369681 0.120389
H4    H     H_    0.942081 0.539216 0.819176 0.132824
H5    H     H_    0.057920 0.460782 0.180821 0.132847
H6    H     H_    0.399779 0.378815 0.948593 0.238151
H7    H     H_    0.600221 0.621184 0.051407 0.238149
H8    H     H_    0.483751 0.960557 0.286572 0.141655
H9    H     H_    0.516248 0.039443 0.713428 0.141659
H10   H     H_    0.958016 0.157095 0.249298 0.320400
N1    N     N_2   0.464560 0.456420 0.038510 -0.252354
N2    N     N_2   0.535440 0.543580 0.961490 -0.252354
O1    O     O_R   0.509190 0.286130 0.619780 -0.510985
O2    O     O_3   0.111555 0.776963 0.704997 -0.682011
O3    O     O_R   0.490810 0.713870 0.380220 -0.510988
O4    O     O_R   0.485310 0.256770 0.308360 -0.490954
O5    O     O_R   0.514690 0.743230 0.691640 -0.490955
O6    O     O_R   0.328790 0.514640 0.655680 -0.484752
O7    O     O_R   0.671210 0.485360 0.344320 -0.484749
O8    O     O_R   0.304910 0.485280 0.344260 -0.515649
O9    O     O_R   0.695090 0.514720 0.655740 -0.515649
O10   O     O_3   0.888445 0.223031 0.294996 -0.682051

loop_
_geom_bond_atom_site_label_1
_geom_bond_atom_site_label_2
_ccdc_geom_bond_type
C2    C4    S    
C9    C14   S    
C6    C7    S    
H2    O2    S    
Cu2   O4    S    
C7    O5    A    
Cu1   O6    S    
C3    C13   S    
Cu2   N1    S    
C5    H8    S    
C3    H4    S    
C3    C10   S    
C8    O6    A    
H7    N2    S    
Cu2   O8    S    
C4    C11   S    
C4    H5    S    
C11   C13   S    
C11   H3    S    
Cu1   N2    S    
C3    C14   S    
C10   C12   S    
C1    C5    S    
C9    O9    A    
C12   C14   S    
Cu1   O1    S    
H6    N1    S    
Cu2   O7    S    
C12   O10   S    
C5    C6    D    
C11   C14   S    
C2    C8    S    
C6    H9    S    
C4    C12   S    
C1    O1    A    
C10   H1    S    
Cu1   Cu2   S    
C2    C10   S    
C13   O2    S    
C7    O3    A    
C8    O8    A    
N1    N2    D    
C9    O7    A    
C2    C13   S    
H10   O10   S    
Cu1   O5    S    
C1    O4    A    
Cu1   O9    S    
Cu2   O3    S    
