data_mof_unit_57822.cif
_audit_creation_date              2012-12-10T18:58:12-0500
_audit_creation_method            fapswitch 2.2
_symmetry_space_group_name_H-M    P1
_symmetry_Int_Tables_number       1
_space_group_crystal_system       triclinic
_cell_length_a                    10.715112
_cell_length_b                    9.871888
_cell_length_c                    15.792647
_cell_angle_alpha                 89.504188
_cell_angle_beta                  90.143269
_cell_angle_gamma                 90.013986
_cell_volume                      1670.45289268

loop_
_atom_site_label
_atom_site_type_symbol
_atom_type_description
_atom_site_fract_x
_atom_site_fract_y
_atom_site_fract_z
_atom_type_partial_charge
C1    C     C_R   0.872523 0.500009 0.499939 -0.012308
C2    C     C_R   0.569800 0.393972 0.958048 0.374151
C3    C     C_R   0.532628 0.510436 0.913156 -0.256200
C4    C     C_R   0.539864 0.515044 0.087810 -0.264930
C5    C     C_1   0.519589 0.503894 0.824116 0.101523
C6    C     C_1   0.524336 0.508347 0.176484 0.126646
C7    C     C_1   0.511574 0.503279 0.250984 -0.185571
C8    C     C_1   0.509275 0.499769 0.749348 -0.208961
C9    C     C_R   0.576060 0.071107 0.553642 -0.076817
C10   C     C_R   0.423991 0.928869 0.446327 -0.077026
C11   C     C_R   0.424005 0.072543 0.446318 -0.068470
C12   C     C_R   0.127465 0.499962 0.499808 -0.011453
C13   C     C_R   0.576144 0.927432 0.553576 -0.077896
C14   C     C_R   0.063956 0.379191 0.516839 -0.196159
C15   C     C_R   0.936025 0.620757 0.482832 -0.198308
C16   C     C_R   0.936101 0.379219 0.516922 -0.192745
C17   C     C_R   0.063887 0.620730 0.482750 -0.191595
C18   C     C_3   0.558576 0.819960 0.119557 0.102207
C19   C     C_3   0.506694 0.924194 0.180560 -0.765045
C20   C     C_3   0.486369 0.205766 0.896159 0.098578
C21   C     C_3   0.439650 0.120680 0.970726 -0.779463
C22   C     C_3   0.554989 0.810576 0.868166 0.109037
C23   C     C_R   0.259960 0.499988 0.499908 0.864756
C24   C     C_3   0.503728 0.872228 0.786568 -0.817935
C25   C     C_3   0.749481 0.290071 0.099419 0.145254
C26   C     C_3   0.793070 0.166979 0.149842 -0.843156
C27   C     C_R   0.740036 0.500011 0.500020 0.863085
C28   C     C_R   0.500377 0.500670 0.339261 0.890217
C29   C     C_R   0.500354 0.499586 0.660799 0.896244
C30   C     C_R   0.503708 0.631611 0.955037 0.352867
C31   C     C_R   0.580944 0.399321 0.045782 0.332705
C32   C     C_R   0.505319 0.633244 0.043380 0.340811
H1    H     H_    0.636954 0.124735 0.596611 0.125797
H2    H     H_    0.625990 0.755491 0.155491 0.124435
H3    H     H_    0.455764 0.872218 0.232709 0.246029
H4    H     H_    0.584010 0.984090 0.208285 0.214836
H5    H     H_    0.441699 0.993840 0.146915 0.265579
H6    H     H_    0.507937 0.137710 0.842957 0.166331
H7    H     H_    0.410055 0.273544 0.873296 0.130855
H8    H     H_    0.396675 0.186794 0.019097 0.245439
H9    H     H_    0.368254 0.047374 0.948709 0.232349
H10   H     H_    0.518404 0.064560 0.999958 0.279796
H11   H     H_    0.635643 0.744680 0.851301 0.118656
H12   H     H_    0.363119 0.875209 0.403358 0.124333
H13   H     H_    0.591184 0.892791 0.908826 0.148829
H14   H     H_    0.419982 0.934503 0.799973 0.251562
H15   H     H_    0.576039 0.936382 0.755866 0.193660
H16   H     H_    0.476065 0.791040 0.742387 0.272763
H17   H     H_    0.779438 0.382679 0.133913 0.120209
H18   H     H_    0.795513 0.287939 0.036234 0.159053
H19   H     H_    0.766067 0.072761 0.116515 0.248241
H20   H     H_    0.896197 0.169420 0.156766 0.209669
H21   H     H_    0.750269 0.167250 0.213822 0.256426
H22   H     H_    0.363131 0.127325 0.403339 0.131102
H23   H     H_    0.637193 0.872601 0.596413 0.128594
H24   H     H_    0.112662 0.285347 0.530638 0.157870
H25   H     H_    0.887306 0.714595 0.469030 0.157547
H26   H     H_    0.887452 0.285395 0.530791 0.154614
H27   H     H_    0.112546 0.714548 0.468881 0.154696
H28   H     H_    0.609890 0.873145 0.068019 0.122980
N1    N     N_R   0.500000 0.857200 0.500000 -0.077619
N2    N     N_R   0.500000 0.142800 0.500000 -0.079777
O1    O     O_R   0.316770 0.614620 0.499990 -0.624441
O2    O     O_3   0.598064 0.274901 0.916753 -0.599509
O3    O     O_3   0.457145 0.742458 0.910964 -0.560344
O4    O     O_3   0.618402 0.285734 0.090969 -0.576194
O5    O     O_R   0.683230 0.385380 0.500010 -0.625875
O6    O     O_R   0.683230 0.614620 0.500010 -0.627109
O7    O     O_R   0.316770 0.385380 0.499990 -0.628186
O8    O     O_R   0.499980 0.614630 0.378020 -0.616070
O9    O     O_R   0.500020 0.385370 0.621980 -0.612993
O10   O     O_R   0.500020 0.614630 0.621980 -0.619820
O11   O     O_R   0.499980 0.385370 0.378020 -0.606287
O12   O     O_3   0.458501 0.744575 0.085485 -0.556673
Zn1   Zn    Zn3+2 0.500000 0.653120 0.500000 0.944562
Zn2   Zn    Zn3+2 0.500000 0.346880 0.500000 0.950041

loop_
_geom_bond_atom_site_label_1
_geom_bond_atom_site_label_2
_ccdc_geom_bond_type
C12   C17   A    
C20   O2    S    
C31   O4    S    
C14   H24   S    
C22   O3    S    
C6    C7    T    
C1    C15   A    
C30   C32   A    
C26   H20   S    
C3    C30   A    
C20   H6    S    
C23   O7    A    
C30   O3    S    
C22   H11   S    
C29   O10   A    
C24   H14   S    
C11   N2    A    
C23   O1    A    
C2    C3    A    
C16   H26   S    
C18   O12   S    
C1    C16   A    
C19   H3    S    
C26   H19   S    
N1    Zn1   S    
O6    Zn1   S    
C9    H1    S    
C18   H2    S    
C12   C23   S    
N2    Zn2   S    
C4    C32   A    
C21   H8    S    
O1    Zn1   S    
C17   H27   S    
O10   Zn1   S    
C15   H25   S    
C8    C29   S    
C11   H22   S    
C12   C14   A    
C22   C24   S    
C19   H4    S    
C32   O12   S    
O9    Zn2   S    
O11   Zn2   S    
C14   C16   A    
C10   N1    A    
C27   O5    A    
C10   C11   A    
C28   O11   A    
C10   H12   S    
C21   H10   S    
C4    C31   A    
C26   H21   S    
C3    C5    S    
C22   H13   S    
C13   N1    A    
C20   C21   S    
O7    Zn2   S    
C4    C6    S    
C18   C19   S    
C21   H9    S    
C18   H28   S    
O8    Zn1   S    
C15   C17   A    
C20   H7    S    
C5    C8    T    
C25   H18   S    
C1    C27   S    
C9    C13   A    
O5    Zn2   S    
C19   H5    S    
C27   O6    A    
C13   H23   S    
C25   C26   S    
C25   O4    S    
C24   H15   S    
C28   O8    A    
C7    C28   S    
C9    N2    A    
C2    O2    S    
C2    C31   A    
C29   O9    A    
C25   H17   S    
C24   H16   S    
