data_mof_unit_65696.cif
_audit_creation_date              2013-03-05T16:27:21-0500
_audit_creation_method            fapswitch 2.2
_symmetry_space_group_name_H-M    P1
_symmetry_Int_Tables_number       1
_space_group_crystal_system       triclinic
_cell_length_a                    28.271915
_cell_length_b                    18.273901
_cell_length_c                    21.673913
_cell_angle_alpha                 90.013698
_cell_angle_beta                  139.770901
_cell_angle_gamma                 89.99152
_cell_volume                      7231.90072375

loop_
_atom_site_label
_atom_site_type_symbol
_atom_site_description
_atom_site_fract_x
_atom_site_fract_y
_atom_site_fract_z
_atom_type_partial_charge
O1    O     O_R   0.892670 0.439420 0.892670 -0.615113
O2    O     O_R   0.107330 0.560580 0.107330 -0.615112
O3    O     O_R   0.107330 0.439420 0.107330 -0.625166
O4    O     O_R   0.892670 0.560580 0.892670 -0.625165
O5    O     O_R   0.392670 0.939420 0.892670 -0.625032
O6    O     O_R   0.607330 0.060580 0.107330 -0.624940
O7    O     O_R   0.607330 0.939420 0.107330 -0.615181
O8    O     O_R   0.392670 0.060580 0.892670 -0.615186
C1    C     C_R   0.858750 0.500001 0.858690 0.920477
C2    C     C_R   0.141250 0.499999 0.141310 0.920475
C3    C     C_R   0.358750 0.999996 0.858693 0.920266
C4    C     C_R   0.641250 0.000004 0.141305 0.920319
O9    O     O_R   0.999990 0.439420 0.908380 -0.622066
O10   O     O_R   0.000010 0.560580 0.091620 -0.622064
O11   O     O_R   0.000010 0.439420 0.091620 -0.618148
O12   O     O_R   0.999990 0.560580 0.908380 -0.618150
O13   O     O_R   0.499990 0.939420 0.908380 -0.618094
O14   O     O_R   0.500010 0.060580 0.091620 -0.618024
O15   O     O_R   0.500010 0.939420 0.091620 -0.621965
O16   O     O_R   0.499990 0.060580 0.908380 -0.622007
C5    C     C_R   0.998757 0.499862 0.878589 0.869027
C6    C     C_R   0.001243 0.500138 0.121411 0.869025
C7    C     C_R   0.498800 0.000121 0.878633 0.868960
C8    C     C_R   0.501176 0.999881 0.121341 0.868947
Zn1   Zn    Zn3+2 0.000000 0.419100 0.000000 0.966756
Zn2   Zn    Zn3+2 0.000000 0.580900 0.000000 0.966764
Zn3   Zn    Zn3+2 0.500000 0.919100 0.000000 0.966951
Zn4   Zn    Zn3+2 0.500000 0.080900 0.000000 0.966986
H1    H     H_    0.092884 0.436271 0.897798 0.154224
H2    H     H_    0.907121 0.563725 0.102207 0.154233
H3    H     H_    0.593508 0.062886 0.898473 0.153960
H4    H     H_    0.406044 0.937750 0.101058 0.153766
C9    C     C_R   0.876197 0.564948 0.693056 -0.168994
C10   C     C_R   0.123801 0.435057 0.306943 -0.169007
C11   C     C_R   0.375836 0.935779 0.692676 -0.169035
C12   C     C_R   0.624444 0.063620 0.307610 -0.169067
H5    H     H_    0.867464 0.551671 0.732449 0.142965
H6    H     H_    0.132534 0.448336 0.267550 0.142963
H7    H     H_    0.367220 0.949083 0.732200 0.142693
H8    H     H_    0.632985 0.050282 0.268009 0.142450
C13   C     C_R   0.823662 0.607370 0.611408 -0.180426
C14   C     C_R   0.176335 0.392637 0.388589 -0.180445
C15   C     C_R   0.322977 0.893751 0.610673 -0.180268
C16   C     C_R   0.677531 0.105352 0.389855 -0.180157
H9    H     H_    0.776309 0.626569 0.589584 0.154279
H10   H     H_    0.223687 0.373440 0.410414 0.154285
H11   H     H_    0.275473 0.874889 0.588683 0.154298
H12   H     H_    0.725150 0.123945 0.411969 0.154331
C17   C     C_R   0.834357 0.628998 0.561401 -0.142946
C18   C     C_R   0.165640 0.371008 0.438597 -0.142956
C19   C     C_R   0.333521 0.872052 0.560503 -0.143189
C20   C     C_R   0.667083 0.127121 0.440117 -0.143391
H13   H     H_    0.796027 0.667255 0.502804 0.145999
H14   H     H_    0.203969 0.332753 0.497193 0.146003
H15   H     H_    0.294912 0.834068 0.501604 0.145933
H16   H     H_    0.705892 0.164899 0.499219 0.145910
C21   C     C_R   0.896011 0.605361 0.589657 0.191070
C22   C     C_R   0.103987 0.394641 0.410340 0.191066
C23   C     C_R   0.395371 0.895236 0.588976 0.191257
C24   C     C_R   0.605087 0.104293 0.411481 0.191421
C25   C     C_R   0.944366 0.552436 0.664439 0.090435
C26   C     C_R   0.055632 0.447565 0.335560 0.090451
C27   C     C_R   0.444095 0.947837 0.664152 0.090404
C28   C     C_R   0.556102 0.051935 0.336043 0.090444
C29   C     C_R   0.938044 0.539102 0.722101 0.059094
C30   C     C_R   0.061955 0.460901 0.277898 0.059108
C31   C     C_R   0.437864 0.961213 0.721912 0.058937
C32   C     C_R   0.562278 0.038512 0.278231 0.058850
C33   C     C_R   0.993994 0.500058 0.807993 -0.084076
C34   C     C_R   0.006006 0.499941 0.192007 -0.084082
C35   C     C_R   0.494086 0.999882 0.808090 -0.083692
C36   C     C_R   0.505861 0.000130 0.191854 -0.083439
C37   C     C_R   0.050264 0.466479 0.831587 -0.209803
C38   C     C_R   0.949739 0.533518 0.168416 -0.209810
C39   C     C_R   0.550649 0.033005 0.832004 -0.209913
C40   C     C_R   0.449077 0.967371 0.167710 -0.210026
H17   H     H_    0.094329 0.441704 0.787672 0.168103
H18   H     H_    0.905676 0.558291 0.212333 0.168114
H19   H     H_    0.594928 0.057461 0.788328 0.168316
H20   H     H_    0.404629 0.943183 0.211204 0.168482
C41   C     C_R   0.052073 0.471478 0.770186 -0.202188
C42   C     C_R   0.947930 0.528519 0.229817 -0.202204
C43   C     C_R   0.552425 0.028002 0.770567 -0.201939
C44   C     C_R   0.447318 0.972387 0.229162 -0.201814
C45   C     C_R   0.999430 0.512805 0.686352 -0.116972
C46   C     C_R   0.000570 0.487194 0.313649 -0.116980
C47   C     C_R   0.499433 0.987106 0.686353 -0.117394
C48   C     C_R   0.500563 0.012952 0.313639 -0.117659
C49   C     C_1   0.782273 0.500013 0.781969 -0.196605
C50   C     C_1   0.217727 0.499987 0.218031 -0.196608
C51   C     C_1   0.282273 0.999978 0.781970 -0.196639
C52   C     C_1   0.717727 0.000021 0.218029 -0.196660
C53   C     C_1   0.717475 0.500020 0.717116 -0.185266
C54   C     C_1   0.282525 0.499980 0.282884 -0.185272
C55   C     C_1   0.217475 0.999972 0.717116 -0.185351
C56   C     C_1   0.782525 0.000027 0.282884 -0.185360
O17   O     O_R   0.060590 0.607350 0.560620 -0.615282
O18   O     O_R   0.939410 0.392650 0.439380 -0.615273
O19   O     O_R   0.939410 0.607350 0.439380 -0.630547
O20   O     O_R   0.060590 0.392650 0.560620 -0.630550
O21   O     O_R   0.560590 0.107350 0.560620 -0.630511
O22   O     O_R   0.439410 0.892650 0.439380 -0.630499
O23   O     O_R   0.439410 0.107350 0.439380 -0.615285
O24   O     O_R   0.560590 0.892650 0.560620 -0.615285
C57   C     C_R   0.000037 0.641272 0.498728 0.931384
C58   C     C_R   0.999963 0.358728 0.501273 0.931385
C59   C     C_R   0.499968 0.141274 0.501212 0.931445
C60   C     C_R   0.500033 0.858726 0.498761 0.931523
O25   O     O_R   0.060610 0.500000 0.652240 -0.625437
O26   O     O_R   0.939390 0.500000 0.347760 -0.625436
O27   O     O_R   0.560610 1.000000 0.652240 -0.625488
O28   O     O_R   0.439390 1.000000 0.347760 -0.625565
O29   O     O_R   0.939430 0.500000 0.531050 -0.613227
O30   O     O_R   0.060570 0.500000 0.468950 -0.613231
O31   O     O_R   0.439430 1.000000 0.531050 -0.613297
O32   O     O_R   0.560570 1.000000 0.468950 -0.613375
C61   C     C_R   0.999743 0.505354 0.620147 0.888040
C62   C     C_R   0.000257 0.494646 0.379853 0.888041
C63   C     C_R   0.499743 0.994624 0.620146 0.888170
C64   C     C_R   0.500256 0.005390 0.379853 0.888122
Zn5   Zn    Zn3+2 0.080920 0.500000 0.580940 0.954038
Zn6   Zn    Zn3+2 0.919080 0.500000 0.419060 0.954055
Zn7   Zn    Zn3+2 0.580920 1.000000 0.580940 0.953681
Zn8   Zn    Zn3+2 0.419080 1.000000 0.419060 0.953769
O33   O     O_R   0.500010 0.607330 0.448300 -0.619808
O34   O     O_R   0.499990 0.392670 0.551700 -0.619818
O35   O     O_R   0.499990 0.607330 0.551700 -0.620111
O36   O     O_R   0.500010 0.392670 0.448300 -0.620086
O37   O     O_R   0.000010 0.107330 0.448300 -0.620108
O38   O     O_R   0.999990 0.892670 0.551700 -0.620114
O39   O     O_R   0.999990 0.107330 0.551700 -0.619869
O40   O     O_R   0.000010 0.892670 0.448300 -0.619854
C65   C     C_R   0.499981 0.640987 0.499967 0.925185
C66   C     C_R   0.500019 0.359013 0.500033 0.925192
C67   C     C_R   0.000016 0.140987 0.500043 0.925227
C68   C     C_R   0.999984 0.859013 0.499957 0.925227
O41   O     O_R   0.607330 0.500000 0.555630 -0.622545
O42   O     O_R   0.392670 0.500000 0.444370 -0.622555
O43   O     O_R   0.107330 1.000000 0.555630 -0.622606
O44   O     O_R   0.892670 0.000000 0.444370 -0.622654
O45   O     O_R   0.607340 0.500000 0.659080 -0.617914
O46   O     O_R   0.392660 0.500000 0.340920 -0.617912
O47   O     O_R   0.107340 1.000000 0.659080 -0.617926
O48   O     O_R   0.892660 1.000000 0.340920 -0.617901
C69   C     C_R   0.640984 0.500013 0.640871 0.926098
C70   C     C_R   0.359016 0.499987 0.359129 0.926094
C71   C     C_R   0.140984 0.999984 0.640871 0.926146
C72   C     C_R   0.859016 0.000015 0.359129 0.926150
Zn9   Zn    Zn3+2 0.500000 0.500000 0.430940 0.967496
Zn10  Zn    Zn3+2 0.500000 0.500000 0.569060 0.967457
Zn11  Zn    Zn3+2 1.000000 1.000000 0.430940 0.967290
Zn12  Zn    Zn3+2 0.000000 1.000000 0.569060 0.967208
C73   C     C_1   0.000045 0.717755 0.499284 -0.191340
C74   C     C_1   0.999955 0.282245 0.500716 -0.191335
C75   C     C_1   0.499968 0.217756 0.500664 -0.191438
C76   C     C_1   0.500034 0.782244 0.499319 -0.191406
C77   C     C_1   0.500001 0.282529 0.500190 -0.182948
C78   C     C_1   0.500000 0.717471 0.499806 -0.182955
C79   C     C_1   0.000009 0.782529 0.499775 -0.183019
C80   C     C_1   0.999991 0.217471 0.500225 -0.183017
C81   C     C_3   0.912808 0.647391 0.548636 -0.861674
H21   H     H_    0.970960 0.642060 0.593040 0.219209
H22   H     H_    0.875092 0.629658 0.473928 0.266779
H23   H     H_    0.904000 0.706833 0.547803 0.228214
C82   C     C_3   0.087190 0.352611 0.451360 -0.861690
H24   H     H_    0.124907 0.370340 0.526069 0.266776
H25   H     H_    0.029040 0.357942 0.406958 0.219213
H26   H     H_    0.095996 0.293170 0.452189 0.228220
C83   C     C_3   0.411930 0.853031 0.547731 -0.860854
H27   H     H_    0.374362 0.870959 0.473131 0.266690
H28   H     H_    0.470128 0.857990 0.592202 0.219130
H29   H     H_    0.402733 0.793650 0.546532 0.228036
C84   C     C_3   0.588686 0.146647 0.452849 -0.860326
H30   H     H_    0.530457 0.141967 0.408335 0.219094
H31   H     H_    0.626137 0.128596 0.527377 0.266625
H32   H     H_    0.598164 0.205975 0.454277 0.227911

loop_
_geom_bond_atom_site_label_1
_geom_bond_atom_site_label_2
_geom_bond_distance
_ccdc_geom_bond_type
O21   C59   1.268897 A    
C43   C47   1.399566 A    
C54   C70   1.396667 S    
O14   Zn4   2.020059 S    
C22   C26   1.431166 A    
O12   C5    1.270648 A    
O32   Zn7   2.022442 S    
C75   C77   1.183722 T    
C83   H27   1.107981 S    
O46   C70   1.278170 A    
O7    Zn3   1.994639 S    
C57   C73   1.397691 S    
C10   C14   1.387597 A    
H20   C44   1.084308 S    
O41   Zn9   1.997389 S    
O44   C72   1.278454 A    
C10   C30   1.412726 A    
C81   H21   1.105734 S    
C9    C29   1.412769 A    
C68   C79   1.397667 S    
O24   Zn7   1.996497 S    
C84   H30   1.105920 S    
O42   Zn10  1.997391 S    
C74   C80   1.183724 T    
C26   C46   1.429798 A    
O43   C71   1.278454 A    
O21   Zn7   1.996535 S    
O14   C8    1.270544 A    
C28   C32   1.412309 A    
O46   Zn9   1.993801 S    
O41   C69   1.278453 A    
O37   Zn11  1.996973 S    
O48   Zn11  1.993801 S    
O39   C67   1.278040 A    
O35   Zn10  1.997149 S    
O6    C4    1.268488 A    
H2    C38   1.084328 S    
C17   H13   1.083858 S    
O11   Zn1   2.019884 S    
H1    C37   1.084369 S    
C52   C56   1.183184 T    
C17   C21   1.403512 A    
O27   C63   1.275546 A    
C65   C78   1.397664 S    
C14   H10   1.082601 S    
C13   C17   1.386724 A    
C21   C25   1.431199 A    
C22   C82   1.500334 S    
O17   Zn5   1.996535 S    
C20   C24   1.403701 A    
O5    Zn3   1.994681 S    
O30   Zn5   2.022442 S    
C39   C43   1.373301 A    
O11   C6    1.270649 A    
O6    Zn4   1.994679 S    
O29   Zn6   2.022442 S    
C58   C74   1.397691 S    
C34   C38   1.387926 A    
C33   C37   1.387987 A    
C67   C80   1.397667 S    
H17   C41   1.084182 S    
C48   C64   1.448375 S    
C11   C15   1.387834 A    
O44   Zn12  1.997391 S    
C19   H15   1.083979 S    
O48   C72   1.278170 A    
O17   C57   1.268066 A    
C16   C20   1.386856 A    
C82   H25   1.105712 S    
O37   C67   1.278817 A    
O1    Zn1   1.994681 S    
C24   C84   1.500762 S    
C83   H28   1.105860 S    
O9    Zn1   2.020059 S    
O39   Zn12  1.997149 S    
C38   C42   1.373322 A    
O3    Zn1   1.994639 S    
O22   Zn8   1.996537 S    
O23   Zn8   1.996495 S    
C37   C41   1.373319 A    
C81   H22   1.107859 S    
O45   Zn10  1.993799 S    
C50   C54   1.183186 T    
C84   H31   1.108041 S    
O12   Zn2   2.019884 S    
O7    C4    1.268552 A    
O19   C57   1.268926 A    
C27   C31   1.412293 A    
C40   C44   1.373305 A    
C26   C30   1.412266 A    
O27   Zn7   2.018101 S    
O13   Zn3   2.020059 S    
C7    C35   1.429802 S    
C12   H8    1.082041 S    
O1    C1    1.268560 A    
C46   C62   1.448072 S    
C1    C49   1.396468 S    
O28   C64   1.275564 A    
O16   Zn4   2.019884 S    
C42   C46   1.399228 A    
C9    H5    1.082024 S    
O32   C64   1.272205 A    
C56   C72   1.396667 S    
C5    C33   1.429936 S    
C32   C36   1.407488 A    
C18   C22   1.403469 A    
C73   C79   1.183724 T    
C11   H7    1.082033 S    
C47   C63   1.448251 S    
O36   C66   1.278813 A    
H18   C42   1.084138 S    
H3    C39   1.084519 S    
C60   C76   1.397678 S    
O16   C7    1.266484 A    
C11   C31   1.412865 A    
O40   C68   1.278038 A    
O9    C5    1.266500 A    
C36   C40   1.388104 A    
O2    Zn2   1.994679 S    
O13   C7    1.270593 A    
O10   Zn2   2.020059 S    
O22   C60   1.268915 A    
O26   C62   1.275500 A    
O34   C66   1.278041 A    
O30   C62   1.272119 A    
C25   C45   1.429835 A    
C14   C18   1.386718 A    
O19   Zn6   1.996495 S    
O29   C61   1.272119 A    
O47   Zn12  1.993799 S    
O47   C71   1.278172 A    
C82   H26   1.111428 S    
O31   C63   1.272164 A    
O5    C3    1.268487 A    
O38   Zn12  1.996974 S    
O8    Zn4   1.994641 S    
C83   H29   1.111553 S    
C53   C69   1.396667 S    
C55   C71   1.396667 S    
C45   C61   1.448074 S    
C19   C23   1.403675 A    
O2    C2    1.268560 A    
O24   C60   1.268060 A    
C81   H23   1.111451 S    
O15   Zn3   2.019884 S    
C8    C36   1.429734 S    
C84   H32   1.111568 S    
O33   C65   1.278026 A    
O18   Zn6   1.996537 S    
O20   Zn5   1.996497 S    
O31   Zn8   2.022442 S    
C27   C47   1.429967 A    
C10   H6    1.082023 S    
O20   C58   1.268926 A    
C4    C52   1.396471 S    
O38   C68   1.278818 A    
O35   C65   1.278828 A    
H4    C40   1.084543 S    
O4    Zn2   1.994641 S    
O25   C61   1.275500 A    
C12   C32   1.412857 A    
O28   Zn8   2.018099 S    
O36   Zn9   1.997152 S    
O45   C69   1.278172 A    
C23   C27   1.431355 A    
O18   C58   1.268066 A    
C24   C28   1.431371 A    
C9    C13   1.387629 A    
O10   C6    1.266500 A    
C76   C78   1.183723 T    
O15   C8    1.266499 A    
C18   H14   1.083836 S    
O3    C2    1.268480 A    
O26   Zn6   2.018099 S    
C35   C39   1.388115 A    
O34   Zn10  1.996974 S    
C15   C19   1.386792 A    
C30   C34   1.407321 A    
C44   C48   1.399659 A    
C20   H16   1.083984 S    
O42   C70   1.278453 A    
O8    C3    1.268553 A    
C29   C33   1.407359 A    
O43   Zn11  1.997389 S    
C6    C34   1.429938 S    
C31   C35   1.407470 A    
C25   C29   1.412270 A    
C49   C53   1.183186 T    
O33   Zn9   1.996973 S    
C59   C75   1.397667 S    
C12   C16   1.387887 A    
C51   C55   1.183184 T    
H19   C43   1.084297 S    
C3    C51   1.396470 S    
C82   H24   1.107851 S    
C66   C77   1.397662 S    
C21   C81   1.500347 S    
C2    C50   1.396468 S    
O40   Zn11  1.997152 S    
C13   H9    1.082638 S    
O23   C59   1.268062 A    
O25   Zn5   2.018101 S    
O4    C1    1.268480 A    
C23   C83   1.500583 S    
C15   H11   1.082759 S    
C28   C48   1.429944 A    
C41   C45   1.399283 A    
C16   H12   1.082784 S    
