data_mof_unit_10507.cif
_audit_creation_date              2012-10-26T18:50:26-0400
_audit_creation_method            fapswitch 2.2
_symmetry_space_group_name_H-M    P1
_symmetry_Int_Tables_number       1
_space_group_crystal_system       triclinic
_cell_length_a                    9.581634
_cell_length_b                    10.864679
_cell_length_c                    15.489431
_cell_angle_alpha                 87.71651
_cell_angle_beta                  74.245797
_cell_angle_gamma                 90.467901
_cell_volume                      1550.36463041

loop_
_atom_site_label
_atom_site_type_symbol
_atom_type_description
_atom_site_fract_x
_atom_site_fract_y
_atom_site_fract_z
_atom_type_partial_charge
C1    C     C_R   0.003374 0.263148 0.492748 0.551276
C2    C     C_R   0.234189 0.574097 0.045285 0.049623
C3    C     C_R   0.331686 0.532071 0.093896 0.032959
C4    C     C_R   0.918136 0.499851 0.672106 0.552248
C5    C     C_R   0.087000 0.589148 0.089223 -0.145198
C6    C     C_R   0.034564 0.561642 0.181012 -0.146650
C7    C     C_R   0.274756 0.500361 0.185655 -0.136244
C8    C     C_R   0.279907 0.123733 0.437691 -0.094714
C9    C     C_R   0.405214 0.066403 0.446251 -0.131036
C10   C     C_R   0.394884 0.951600 0.490317 -0.126357
C11   C     C_R   0.261596 0.888877 0.517403 -0.099379
C12   C     C_R   0.677431 0.520112 0.908514 0.033120
C13   C     C_R   0.135630 0.940165 0.499853 0.024504
C14   C     C_R   0.141737 0.065995 0.473143 0.026396
C15   C     C_R   0.009448 0.129433 0.484315 -0.009332
C16   C     C_R   0.999672 0.737682 0.504596 0.536798
C17   C     C_R   0.878794 0.062832 0.499721 -0.162100
C18   C     C_R   0.877336 0.935661 0.507233 -0.163445
C19   C     C_R   0.004070 0.872478 0.507632 -0.008203
C20   C     C_R   0.699189 0.661560 0.379359 -0.102710
C21   C     C_R   0.653997 0.740609 0.320162 -0.184785
C22   C     C_R   0.510090 0.741663 0.320547 -0.167409
C23   C     C_R   0.777612 0.490487 0.958447 0.049530
C24   C     C_R   0.410568 0.663645 0.380101 -0.092195
C25   C     C_R   0.451978 0.580229 0.441009 0.145371
C26   C     C_R   0.601729 0.579720 0.440816 0.151827
C27   C     C_R   0.548622 0.423660 0.556005 -0.011947
C28   C     C_R   0.081989 0.502646 0.327926 0.531900
C29   C     C_R   0.400645 0.423635 0.555940 -0.014188
C30   C     C_R   0.872951 0.500212 0.770605 -0.002929
C31   C     C_R   0.128800 0.518119 0.229731 -0.002911
C32   C     C_R   0.923570 0.469891 0.914466 -0.142058
C33   C     C_R   0.971321 0.475942 0.821118 -0.139136
C34   C     C_R   0.529787 0.542041 0.954230 0.032983
C35   C     C_R   0.727706 0.522225 0.814321 -0.135205
C36   C     C_R   0.481972 0.522120 0.049191 0.032365
C37   C     C_R   0.586365 0.495520 0.096453 -0.139452
C38   C     C_R   0.731170 0.480570 0.051715 -0.139449
C39   C     C_R   0.428915 0.584851 0.908446 -0.140572
C40   C     C_R   0.284441 0.601447 0.953482 -0.140014
Cu1   Cu    Cu3+1 0.140660 0.499990 0.500010 0.904740
Cu2   Cu    Cu3+1 0.859340 0.500010 0.499990 0.917470
H1    H     H_    0.806986 0.459090 0.090610 0.111822
H2    H     H_    0.731444 0.801902 0.273891 0.122357
H3    H     H_    0.341567 0.460516 0.224748 0.120743
H4    H     H_    0.474742 0.804159 0.274827 0.130486
H5    H     H_    0.302774 0.674111 0.375660 0.190022
H6    H     H_    0.324518 0.361039 0.601735 0.120337
H7    H     H_    0.921489 0.577010 0.213994 0.123286
H8    H     H_    0.211149 0.635061 0.915844 0.110234
H9    H     H_    0.000470 0.447102 0.952292 0.113839
H10   H     H_    0.084113 0.458440 0.788598 0.126053
H11   H     H_    0.654844 0.537083 0.773123 0.121681
H12   H     H_    0.012854 0.624105 0.052735 0.110816
H13   H     H_    0.560745 0.488675 0.168639 0.110623
H14   H     H_    0.458703 0.610286 0.837833 0.103542
H15   H     H_    0.293261 0.212193 0.401664 0.144756
H16   H     H_    0.776853 0.108960 0.506199 0.134267
H17   H     H_    0.509720 0.112758 0.421124 0.112318
H18   H     H_    0.490753 0.909783 0.501941 0.115348
H19   H     H_    0.259524 0.802909 0.554976 0.151998
H20   H     H_    0.775447 0.886874 0.514459 0.136247
H21   H     H_    0.583193 0.361059 0.601876 0.117285
H22   H     H_    0.811730 0.668718 0.373763 0.184667
N1    N     N_R   0.648320 0.501210 0.499140 -0.243848
N2    N     N_R   0.352470 0.501290 0.499110 -0.249859
O1    O     O_R   0.118810 0.319640 0.500010 -0.507300
O2    O     O_R   0.881240 0.319660 0.500000 -0.500775
O3    O     O_R   0.055570 0.499980 0.629840 -0.500152
O4    O     O_R   0.818000 0.500010 0.629830 -0.503617
O5    O     O_R   0.118760 0.680340 0.500000 -0.534213
O6    O     O_R   0.881190 0.680360 0.499990 -0.521691
O7    O     O_R   0.182000 0.499990 0.370170 -0.529130
O8    O     O_R   0.944430 0.500020 0.370160 -0.517638

loop_
_geom_bond_atom_site_label_1
_geom_bond_atom_site_label_2
_ccdc_geom_bond_type
C35   H11   S    
Cu1   Cu2   S    
C16   O6    A    
C28   O8    A    
C4    O4    A    
Cu1   O1    S    
C33   H10   S    
C12   C23   A    
C30   C35   A    
C7    H3    S    
C36   C37   A    
C3    C7    A    
C5    C6    A    
C27   C29   A    
Cu2   O4    S    
C1    O2    A    
C18   C19   A    
C8    C9    A    
Cu2   N1    S    
C1    C15   S    
C9    C10   A    
C17   H16   S    
Cu1   O5    S    
C6    C31   A    
C13   C14   A    
Cu2   O2    S    
C26   N1    A    
C16   O5    A    
C28   O7    A    
C4    O3    A    
Cu2   O8    S    
C7    C31   A    
C13   C19   A    
C29   H6    S    
C34   C39   A    
C5    H12   S    
C24   C25   A    
C39   C40   A    
C18   H20   S    
C25   C26   A    
C9    H17   S    
C20   H22   S    
C10   H18   S    
C32   H9    S    
C37   C38   A    
C27   N1    A    
C8    H15   S    
C21   H2    S    
C39   H14   S    
Cu2   O6    S    
C17   C18   A    
C12   C35   A    
C27   H21   S    
C22   H4    S    
C22   C24   A    
C2    C5    A    
C12   C34   A    
Cu1   O3    S    
C15   C17   A    
C8    C14   A    
C30   C33   A    
C24   H5    S    
C28   C31   S    
C25   N2    A    
C11   H19   S    
Cu1   N2    S    
C23   C38   A    
C23   C32   A    
C2    C3    A    
C38   H1    S    
C32   C33   A    
C11   C13   A    
C20   C26   A    
C3    C36   A    
C16   C19   S    
C40   H8    S    
C1    O1    A    
C34   C36   A    
C6    H7    S    
C10   C11   A    
Cu1   O7    S    
C29   N2    A    
C37   H13   S    
C2    C40   A    
C20   C21   A    
C14   C15   A    
C21   C22   A    
C4    C30   S    
