data_mof_unit_53026.cif
_audit_creation_date              2012-12-10T17:38:17-0500
_audit_creation_method            fapswitch 2.2
_symmetry_space_group_name_H-M    P1
_symmetry_Int_Tables_number       1
_space_group_crystal_system       triclinic
_cell_length_a                    12.138693
_cell_length_b                    12.751855
_cell_length_c                    19.119967
_cell_angle_alpha                 91.741778
_cell_angle_beta                  87.377236
_cell_angle_gamma                 94.998766
_cell_volume                      2944.21373978

loop_
_atom_site_label
_atom_site_type_symbol
_atom_type_description
_atom_site_fract_x
_atom_site_fract_y
_atom_site_fract_z
_atom_type_partial_charge
Br1   Br    Br    0.973471 0.284944 0.368535 -0.575043
Br2   Br    Br    0.027361 0.717293 0.630132 -0.575443
C1    C     C_R   0.523005 0.700122 0.498977 0.887510
C2    C     C_R   0.535632 0.130602 0.464390 -0.274842
C3    C     C_R   0.462953 0.975560 0.525552 0.182268
C4    C     C_R   0.537564 0.024546 0.475016 0.182028
C5    C     C_R   0.943488 0.392279 0.438272 0.171010
C6    C     C_R   0.056683 0.608401 0.561364 0.170350
C7    C     C_R   0.830837 0.404317 0.445436 -0.020661
C8    C     C_R   0.169349 0.596417 0.553998 -0.021842
C9    C     C_R   0.862214 0.550500 0.524127 0.044173
C10   C     C_R   0.137561 0.448940 0.476474 0.045470
C11   C     C_R   0.979132 0.540903 0.521990 -0.059722
C12   C     C_R   0.477019 0.299885 0.501099 0.885591
C13   C     C_R   0.020825 0.459268 0.478097 -0.059546
C14   C     C_R   0.500742 0.499412 0.634183 0.853674
C15   C     C_R   0.498858 0.498721 0.365851 0.853517
C16   C     C_R   0.410491 0.526068 0.750348 -0.187959
C17   C     C_R   0.574024 0.432868 0.252644 -0.189397
C18   C     C_R   0.403608 0.511011 0.821789 -0.155255
C19   C     C_R   0.566593 0.416641 0.180946 -0.158498
C20   C     C_R   0.486330 0.461564 0.853628 0.081913
C21   C     C_R   0.479974 0.455646 0.146340 0.079769
C22   C     C_R   0.576637 0.428136 0.813024 -0.153284
C23   C     C_R   0.462486 0.188137 0.504690 -0.034818
C24   C     C_R   0.400722 0.510741 0.184361 -0.154008
C25   C     C_R   0.583294 0.443008 0.741278 -0.210761
C26   C     C_R   0.408547 0.527314 0.255959 -0.218071
C27   C     C_R   0.499916 0.491623 0.709735 -0.038063
C28   C     C_R   0.494813 0.487985 0.290336 -0.032745
C29   C     C_R   0.476424 0.445622 0.070339 0.290862
C30   C     C_R   0.480116 0.449361 0.929302 0.289871
C31   C     C_R   0.184430 0.358490 0.439957 0.198287
C32   C     C_R   0.227526 0.366891 0.370803 -0.032063
C33   C     C_R   0.267973 0.279679 0.335371 -0.131686
C34   C     C_R   0.537726 0.811900 0.495646 -0.037573
C35   C     C_R   0.261278 0.182424 0.367765 -0.104240
C36   C     C_R   0.213759 0.172229 0.435462 -0.095573
C37   C     C_R   0.176345 0.260079 0.471893 -0.094379
C38   C     C_R   0.814498 0.638612 0.562883 0.199898
C39   C     C_R   0.819109 0.738176 0.532696 -0.085711
C40   C     C_R   0.780380 0.823698 0.571111 -0.097484
C41   C     C_R   0.735444 0.810096 0.639179 -0.105291
C42   C     C_R   0.732488 0.711772 0.669891 -0.132235
C43   C     C_R   0.774026 0.626841 0.632417 -0.037118
C44   C     C_R   0.613531 0.966973 0.436460 -0.215040
C45   C     C_R   0.387201 0.033207 0.564245 -0.216550
C46   C     C_R   0.613162 0.859890 0.446564 -0.227463
C47   C     C_R   0.387562 0.140289 0.554114 -0.224517
C48   C     C_R   0.464612 0.869416 0.535988 -0.273981
H1    H     H_    0.345324 0.563992 0.726831 0.164063
H2    H     H_    0.406694 0.830558 0.573891 0.150963
H3    H     H_    0.332306 0.186175 0.586037 0.158401
H4    H     H_    0.668600 0.814074 0.414735 0.158235
H5    H     H_    0.671175 0.004185 0.397890 0.160016
H6    H     H_    0.329691 0.996045 0.602909 0.160264
H7    H     H_    0.227959 0.647936 0.582738 0.168444
H8    H     H_    0.772382 0.353312 0.416226 0.167064
H9    H     H_    0.227040 0.440282 0.344019 0.129350
H10   H     H_    0.302402 0.287040 0.282344 0.146526
H11   H     H_    0.291449 0.114637 0.340080 0.137671
H12   H     H_    0.640564 0.400860 0.278713 0.162336
H13   H     H_    0.206607 0.096356 0.459895 0.147542
H14   H     H_    0.140074 0.251394 0.524432 0.119922
H15   H     H_    0.853452 0.749489 0.479912 0.119982
H16   H     H_    0.784618 0.900421 0.547974 0.147837
H17   H     H_    0.704323 0.876088 0.668433 0.137304
H18   H     H_    0.699792 0.701744 0.723112 0.142252
H19   H     H_    0.776276 0.552361 0.657714 0.125329
H20   H     H_    0.333569 0.538528 0.851914 0.158345
H21   H     H_    0.628791 0.374017 0.152740 0.158398
H22   H     H_    0.641618 0.389943 0.836450 0.154728
H23   H     H_    0.333798 0.542797 0.158789 0.157515
H24   H     H_    0.651759 0.413935 0.710395 0.153068
H25   H     H_    0.347636 0.571305 0.284344 0.152881
H26   H     H_    0.593366 0.169394 0.426353 0.150242
N1    N     N_R   0.565422 0.413738 0.962317 -0.173931
N2    N     N_R   0.389909 0.478480 0.037216 -0.174459
N3    N     N_R   0.563609 0.411944 0.031719 -0.172613
N4    N     N_R   0.391702 0.480226 0.967918 -0.174554
N5    N     N_R   0.207800 0.519350 0.512860 -0.145951
N6    N     N_R   0.792200 0.480650 0.487140 -0.145986
O1    O     O_R   0.421690 0.658830 0.503430 -0.619916
O2    O     O_R   0.578310 0.341170 0.496570 -0.621024
O3    O     O_R   0.609320 0.646410 0.495180 -0.618451
O4    O     O_R   0.390680 0.353590 0.504820 -0.618044
O5    O     O_R   0.406160 0.506220 0.605990 -0.619891
O6    O     O_R   0.593840 0.493780 0.394010 -0.619273
O7    O     O_R   0.593780 0.493810 0.597740 -0.627011
O8    O     O_R   0.406220 0.506190 0.402260 -0.627133
Zn1   Zn    Zn3+2 0.374720 0.508290 0.505510 0.942350
Zn2   Zn    Zn3+2 0.625280 0.491710 0.494490 0.941880

loop_
_geom_bond_atom_site_label_1
_geom_bond_atom_site_label_2
_ccdc_geom_bond_type
C6    C11   A    
O5    Zn1   S    
C1    O3    A    
C15   O6    A    
C39   C40   A    
C22   C25   A    
C12   O2    A    
C2    C23   A    
C45   C47   A    
C46   H4    S    
C37   H14   S    
C3    C45   A    
C31   C37   A    
C20   C30   S    
C19   H21   S    
C17   C19   A    
C26   H25   S    
C7    H8    S    
O4    Zn1   S    
C3    C4    A    
N2    N4    A    
C25   C27   A    
C17   H12   S    
C24   H23   S    
N6    Zn2   S    
C32   C33   A    
C21   C24   A    
C30   N1    A    
O6    Zn2   S    
C44   H5    S    
C14   O5    A    
C48   H2    S    
C25   H24   S    
C7    N6    A    
C5    C13   A    
C14   O7    A    
C15   C28   S    
C18   H20   S    
O3    Zn2   S    
C16   H1    S    
N1    N3    A    
C9    N6    A    
C38   C43   A    
C44   C46   A    
C43   H19   S    
C8    H7    S    
C12   O4    A    
C2    C4    A    
C39   H15   S    
C14   C27   S    
C33   H10   S    
C21   C29   S    
C41   C42   A    
C35   C36   A    
C30   N4    A    
C10   C13   A    
C31   C32   A    
C16   C27   A    
O7    Zn2   S    
C41   H17   S    
C38   C39   A    
C18   C20   A    
C11   C13   A    
C1    O1    A    
C32   H9    S    
C20   C22   A    
C3    C48   A    
C42   H18   S    
C40   C41   A    
C34   C48   A    
C42   C43   A    
C22   H22   S    
C29   N2    A    
C36   H13   S    
C5    C7    A    
C4    C44   A    
C33   C35   A    
Br1   C5    S    
Br2   C6    S    
C15   O8    A    
C35   H11   S    
C29   N3    A    
O1    Zn1   S    
C8    N5    A    
C24   C26   A    
C19   C21   A    
C9    C11   A    
O8    Zn1   S    
C36   C37   A    
C1    C34   S    
C47   H3    S    
C26   C28   A    
C10   N5    A    
C34   C46   A    
C16   C18   A    
C12   C23   S    
C9    C38   S    
C23   C47   A    
C2    H26   S    
N5    Zn1   S    
C6    C8    A    
C40   H16   S    
O2    Zn2   S    
C10   C31   S    
C17   C28   A    
C45   H6    S    
