data_mof_unit_10980.cif
_audit_creation_date              2012-12-11T14:56:11-0500
_audit_creation_method            fapswitch 2.2
_symmetry_space_group_name_H-M    P1
_symmetry_Int_Tables_number       1
_space_group_crystal_system       triclinic
_cell_length_a                    28.220166
_cell_length_b                    17.350043
_cell_length_c                    18.127125
_cell_angle_alpha                 89.947039
_cell_angle_beta                  138.264513
_cell_angle_gamma                 90.153988
_cell_volume                      5908.27473431

loop_
_atom_site_label
_atom_site_type_symbol
_atom_type_description
_atom_site_fract_x
_atom_site_fract_y
_atom_site_fract_z
_atom_type_partial_charge
C1    C     C_R   0.668634 0.923455 0.817326 -0.139569
C2    C     C_R   0.311884 0.101282 0.199926 -0.147398
C3    C     C_R   0.332869 0.924413 0.183067 -0.148010
C4    C     C_R   0.687817 0.101231 0.801515 -0.167062
C5    C     C_R   0.168634 0.423455 0.817326 -0.139565
C6    C     C_R   0.811884 0.601282 0.199925 -0.147398
C7    C     C_R   0.832869 0.424413 0.183067 -0.148009
C8    C     C_R   0.187817 0.601231 0.801515 -0.167064
C9    C     C_3   0.740447 0.346593 0.947913 0.432308
C10   C     C_3   0.302021 0.707580 0.012494 0.529284
C11   C     C_3   0.266479 0.340166 0.048202 0.438843
C12   C     C_3   0.692763 0.712383 0.996070 0.521040
C13   C     C_3   0.240446 0.846593 0.947913 0.432308
C14   C     C_3   0.802021 0.207579 0.012494 0.529284
C15   C     C_3   0.766479 0.840166 0.048202 0.438845
C16   C     C_3   0.192763 0.212384 0.996071 0.521041
C17   C     C_R   0.726856 0.762927 0.647959 -0.079918
C18   C     C_R   0.374258 0.178563 0.612677 -0.093520
C19   C     C_R   0.277729 0.751857 0.339682 -0.124468
C20   C     C_R   0.643895 0.188652 0.413458 -0.095852
C21   C     C_R   0.226856 0.262927 0.647960 -0.079918
C22   C     C_R   0.874258 0.678563 0.612677 -0.093520
C23   C     C_R   0.777729 0.251857 0.339682 -0.124468
C24   C     C_R   0.143895 0.688652 0.413458 -0.095852
C25   C     C_R   0.369489 0.295119 0.680205 0.358819
C26   C     C_R   0.773861 0.637346 0.667740 0.336537
C27   C     C_R   0.620804 0.269559 0.278111 0.357186
C28   C     C_R   0.276882 0.644364 0.422569 0.404702
C29   C     C_R   0.869490 0.795119 0.680206 0.358818
C30   C     C_R   0.273861 0.137347 0.667741 0.336537
C31   C     C_R   0.120805 0.769559 0.278112 0.357186
C32   C     C_R   0.776882 0.144364 0.422569 0.404701
C33   C     C_R   0.385459 0.259163 0.632901 0.393429
C34   C     C_R   0.722863 0.681489 0.647770 0.430233
C35   C     C_R   0.603579 0.247194 0.330575 0.420528
C36   C     C_R   0.301059 0.677117 0.384954 0.430911
C37   C     C_R   0.885459 0.759163 0.632901 0.393430
C38   C     C_R   0.222863 0.181490 0.647771 0.430233
C39   C     C_R   0.103580 0.747195 0.330575 0.420528
C40   C     C_R   0.801059 0.177116 0.384954 0.430913
C41   C     C_R   0.347111 0.135957 0.640678 -0.131743
C42   C     C_R   0.783994 0.797136 0.677652 -0.131321
C43   C     C_R   0.705414 0.162131 0.449932 -0.097006
C44   C     C_R   0.208930 0.771501 0.281869 -0.185739
C45   C     C_R   0.847111 0.635957 0.640678 -0.131744
C46   C     C_R   0.283994 0.297137 0.677651 -0.131320
C47   C     C_R   0.205414 0.662131 0.449933 -0.097005
C48   C     C_R   0.708930 0.271501 0.281869 -0.185738
C49   C     C_R   0.318306 0.174851 0.667751 -0.058917
C50   C     C_R   0.827209 0.755382 0.682121 -0.140854
C51   C     C_R   0.720746 0.180569 0.395172 -0.138768
C52   C     C_R   0.181131 0.738616 0.313730 -0.084670
C53   C     C_R   0.818306 0.674851 0.667751 -0.058918
C54   C     C_R   0.327209 0.255383 0.682121 -0.140854
C55   C     C_R   0.220746 0.680569 0.395172 -0.138767
C56   C     C_R   0.681131 0.238616 0.313729 -0.084670
C57   C     C_R   0.354912 0.080613 0.483358 0.473633
C58   C     C_R   0.677185 0.895114 0.616705 0.532777
C59   C     C_R   0.648964 0.083735 0.523821 0.478756
C60   C     C_R   0.322306 0.893998 0.384391 0.542740
C61   C     C_R   0.854912 0.580613 0.483358 0.473633
C62   C     C_R   0.177185 0.395114 0.616705 0.532776
C63   C     C_R   0.148964 0.583735 0.523822 0.478756
C64   C     C_R   0.822306 0.393998 0.384391 0.542741
C65   C     C_R   0.404104 0.802475 0.478045 -0.052894
C66   C     C_R   0.569816 0.179734 0.445539 -0.116767
C67   C     C_R   0.596814 0.802650 0.521370 -0.076142
C68   C     C_R   0.442844 0.167584 0.576862 -0.116736
C69   C     C_R   0.904104 0.302475 0.478045 -0.052893
C70   C     C_R   0.069816 0.679734 0.445539 -0.116767
C71   C     C_R   0.096814 0.302650 0.521370 -0.076142
C72   C     C_R   0.942844 0.667584 0.576862 -0.116736
C73   C     C_R   0.606464 0.193887 0.711964 0.491372
C74   C     C_R   0.415550 0.832037 0.271238 0.478246
C75   C     C_R   0.393558 0.193957 0.288911 0.524416
C76   C     C_R   0.585693 0.831217 0.729652 0.471479
C77   C     C_R   0.106464 0.693887 0.711964 0.491372
C78   C     C_R   0.915550 0.332037 0.271238 0.478246
C79   C     C_R   0.893558 0.693957 0.288910 0.524416
C80   C     C_R   0.085693 0.331217 0.729653 0.471480
C81   C     C_R   0.644618 0.863413 0.832036 -0.007924
C82   C     C_R   0.322701 0.177354 0.197743 0.035628
C83   C     C_R   0.357989 0.865417 0.169014 0.007365
C84   C     C_R   0.676798 0.176922 0.805152 0.034790
C85   C     C_R   0.144618 0.363413 0.832036 -0.007937
C86   C     C_R   0.822701 0.677354 0.197742 0.035627
C87   C     C_R   0.857989 0.365417 0.169014 0.007365
C88   C     C_R   0.176798 0.676921 0.805151 0.034791
C89   C     C_R   0.390561 0.140721 0.561627 -0.071137
C90   C     C_R   0.668753 0.816519 0.599568 -0.066536
C91   C     C_R   0.623422 0.153287 0.462022 -0.039924
C92   C     C_R   0.331965 0.814340 0.398384 -0.062782
C93   C     C_R   0.890561 0.640721 0.561627 -0.071136
C94   C     C_R   0.168752 0.316519 0.599568 -0.066536
C95   C     C_R   0.123422 0.653288 0.462022 -0.039924
C96   C     C_R   0.831964 0.314340 0.398384 -0.062782
C97   C     C_3   0.710280 0.271926 0.945030 0.520881
C98   C     C_3   0.332798 0.782693 0.016682 0.548538
C99   C     C_3   0.285285 0.258454 0.046536 0.522116
C100  C     C_3   0.673021 0.794939 0.995850 0.541344
C101  C     C_3   0.210280 0.771926 0.945031 0.520881
C102  C     C_3   0.832798 0.282693 0.016682 0.548539
C103  C     C_3   0.785286 0.758454 0.046536 0.522118
C104  C     C_3   0.173021 0.294940 0.995851 0.541341
C105  C     C_3   0.282047 0.748765 0.061313 -0.497951
C106  C     C_3   0.759710 0.304235 0.897387 -0.451347
C107  C     C_3   0.708618 0.739733 0.935509 -0.464531
C108  C     C_3   0.251110 0.311908 0.110136 -0.468278
C109  C     C_3   0.782047 0.248765 0.061313 -0.497951
C110  C     C_3   0.259710 0.804235 0.897386 -0.451346
C111  C     C_3   0.208618 0.239733 0.935509 -0.464525
C112  C     C_3   0.751109 0.811908 0.110135 -0.468290
C113  C     C_3   0.313331 0.824304 0.065429 -0.219419
C114  C     C_3   0.729250 0.229433 0.895658 -0.164045
C115  C     C_3   0.688786 0.822729 0.935825 -0.221011
C116  C     C_3   0.270357 0.229610 0.107537 -0.167989
C117  C     C_3   0.813331 0.324304 0.065429 -0.219419
C118  C     C_3   0.229250 0.729433 0.895658 -0.164045
C119  C     C_3   0.188786 0.322730 0.935826 -0.221018
C120  C     C_3   0.770357 0.729610 0.107537 -0.167986
H1    H     H_    0.715573 0.957873 0.879886 0.216554
H2    H     H_    0.261586 0.072419 0.149393 0.218725
H3    H     H_    0.285356 0.957790 0.119554 0.199846
H4    H     H_    0.738346 0.073444 0.851393 0.226042
H5    H     H_    0.215573 0.457873 0.879886 0.216554
H6    H     H_    0.761586 0.572419 0.149393 0.218724
H7    H     H_    0.785356 0.457790 0.119553 0.199846
H8    H     H_    0.238346 0.573444 0.851392 0.226042
H9    H     H_    0.428121 0.748605 0.490752 0.227008
H10   H     H_    0.537617 0.229866 0.402420 0.234210
H11   H     H_    0.574157 0.747615 0.508301 0.190633
H12   H     H_    0.483058 0.209461 0.636723 0.227284
H13   H     H_    0.928121 0.248605 0.490752 0.227008
H14   H     H_    0.037617 0.729866 0.402421 0.234211
H15   H     H_    0.074157 0.247616 0.508301 0.190633
H16   H     H_    0.983058 0.709461 0.636723 0.227284
H17   H     H_    0.291207 0.725916 0.128374 0.197871
H18   H     H_    0.749817 0.325027 0.828894 0.223627
H19   H     H_    0.692429 0.709372 0.865436 0.232527
H20   H     H_    0.268776 0.339801 0.182642 0.206353
H21   H     H_    0.791206 0.225916 0.128373 0.197871
H22   H     H_    0.249817 0.825027 0.828894 0.223627
H23   H     H_    0.192428 0.209371 0.865436 0.232527
H24   H     H_    0.768775 0.839800 0.182641 0.206351
H25   H     H_    0.786351 0.858656 0.674754 0.258871
H26   H     H_    0.341898 0.074077 0.630054 0.226453
H27   H     H_    0.182569 0.819823 0.226820 0.258243
H28   H     H_    0.745408 0.131855 0.526909 0.250769
H29   H     H_    0.286350 0.358657 0.674754 0.258871
H30   H     H_    0.841897 0.574077 0.630054 0.226453
H31   H     H_    0.682570 0.319823 0.226820 0.258243
H32   H     H_    0.245408 0.631855 0.526909 0.250769
N1    N     N_R   0.625380 0.928280 0.709340 -0.067312
N2    N     N_R   0.374620 0.071720 0.290660 -0.077285
N3    N     N_R   0.374620 0.928280 0.290660 -0.066154
N4    N     N_R   0.625380 0.071720 0.709340 -0.079181
N5    N     N_R   0.125380 0.428280 0.709340 -0.067311
N6    N     N_R   0.874620 0.571720 0.290660 -0.077285
N7    N     N_R   0.874620 0.428280 0.290660 -0.066154
N8    N     N_R   0.125380 0.571720 0.709340 -0.079181
N9    N     N_R   0.386100 0.070250 0.452470 -0.087199
N10   N     N_R   0.613900 0.929750 0.547530 -0.085697
N11   N     N_R   0.613900 0.070250 0.547530 -0.088705
N12   N     N_R   0.386100 0.929750 0.452470 -0.104563
N13   N     N_R   0.886100 0.570250 0.452470 -0.087199
N14   N     N_R   0.113900 0.429750 0.547530 -0.085697
N15   N     N_R   0.113900 0.570250 0.547530 -0.088705
N16   N     N_R   0.886100 0.429750 0.452470 -0.104563
N17   N     N_R   0.437800 0.869550 0.507970 -0.096466
N18   N     N_R   0.562200 0.130450 0.492030 -0.079990
N19   N     N_R   0.562200 0.869550 0.492030 -0.083259
N20   N     N_R   0.437800 0.130450 0.507970 -0.077798
N21   N     N_R   0.937800 0.369550 0.507970 -0.096466
N22   N     N_R   0.062200 0.630450 0.492030 -0.079990
N23   N     N_R   0.062200 0.369550 0.492030 -0.083260
N24   N     N_R   0.937800 0.630450 0.507970 -0.077798
N25   N     N_R   0.573690 0.128980 0.653840 -0.113116
N26   N     N_R   0.426310 0.871020 0.346160 -0.109917
N27   N     N_R   0.426310 0.128980 0.346160 -0.103596
N28   N     N_R   0.573690 0.871020 0.653840 -0.110427
N29   N     N_R   0.073690 0.628980 0.653840 -0.113116
N30   N     N_R   0.926310 0.371020 0.346160 -0.109917
N31   N     N_R   0.926310 0.628980 0.346160 -0.103596
N32   N     N_R   0.073690 0.371020 0.653840 -0.110426
Ni1   Ni    Ni4+2 0.616560 1.000000 0.627280 0.283045
Ni2   Ni    Ni4+2 0.383440 1.000000 0.372720 0.280768
Ni3   Ni    Ni4+2 0.116560 0.500000 0.627280 0.283044
Ni4   Ni    Ni4+2 0.883440 0.500000 0.372720 0.280768
Ni5   Ni    Ni4+2 0.497990 0.870580 0.500000 0.231557
Ni6   Ni    Ni4+2 0.502010 0.129420 0.500000 0.283796
Ni7   Ni    Ni4+2 0.997990 0.370580 0.500000 0.231556
Ni8   Ni    Ni4+2 0.002010 0.629420 0.500000 0.283796
Cl1   Cl    Cl    0.893250 0.893580 0.718573 -0.452370
Cl2   Cl    Cl    0.282796 0.037202 0.693567 -0.647826
Cl3   Cl    Cl    0.067849 0.839829 0.171841 -0.592823
Cl4   Cl    Cl    0.817354 0.059337 0.502678 -0.509515
Cl5   Cl    Cl    0.393250 0.393581 0.718571 -0.452370
Cl6   Cl    Cl    0.782795 0.537202 0.693566 -0.647825
Cl7   Cl    Cl    0.567848 0.339828 0.171839 -0.592823
Cl8   Cl    Cl    0.317354 0.559338 0.502678 -0.509514
Cl9   Cl    Cl    0.276228 0.037432 0.424168 -0.578656
Cl10  Cl    Cl    0.752216 0.936588 0.748385 -0.608331
Cl11  Cl    Cl    0.702649 0.015972 0.540122 -0.610309
Cl12  Cl    Cl    0.247579 0.935781 0.254115 -0.618772
Cl13  Cl    Cl    0.776228 0.537432 0.424168 -0.578657
Cl14  Cl    Cl    0.252216 0.436588 0.748385 -0.608330
Cl15  Cl    Cl    0.202649 0.515972 0.540122 -0.610309
Cl16  Cl    Cl    0.747579 0.435781 0.254115 -0.618774
Cl17  Cl    Cl    0.573478 0.286731 0.655179 -0.566112
Cl18  Cl    Cl    0.453726 0.742829 0.293408 -0.668121
Cl19  Cl    Cl    0.427434 0.286482 0.345444 -0.673366
Cl20  Cl    Cl    0.543919 0.744537 0.706888 -0.567682
Cl21  Cl    Cl    0.073478 0.786731 0.655179 -0.566113
Cl22  Cl    Cl    0.953726 0.242829 0.293408 -0.668120
Cl23  Cl    Cl    0.927434 0.786482 0.345444 -0.673365
Cl24  Cl    Cl    0.043919 0.244537 0.706888 -0.567686
O1    O     O_3   0.643157 0.264719 0.901572 -0.602210
C121  C     C_3   0.646724 0.293816 0.978285 0.253649
H33   H     H_    0.672461 0.351732 0.010136 0.162013
H34   H     H_    0.676623 0.253342 0.049082 0.077678
C122  C     C_3   0.571669 0.301449 0.921432 -0.632611
H35   H     H_    0.573633 0.323587 0.981152 0.238923
H36   H     H_    0.540886 0.342267 0.851007 0.307090
H37   H     H_    0.544556 0.244458 0.889776 0.207830
O2    O     O_3   0.399872 0.785614 0.059675 -0.551361
C123  C     C_3   0.411097 0.859746 0.042843 0.298289
H38   H     H_    0.403608 0.905566 0.076408 0.097682
H39   H     H_    0.374255 0.870032 0.953017 0.122526
C124  C     C_3   0.487078 0.865417 0.102632 -0.766324
H40   H     H_    0.496401 0.820848 0.070623 0.266528
H41   H     H_    0.496355 0.923244 0.088840 0.199501
H42   H     H_    0.525188 0.856683 0.193002 0.266066
O3    O     O_3   0.347027 0.239578 0.077620 -0.591371
C125  C     C_3   0.334188 0.250843 0.986646 0.211990
H43   H     H_    0.304047 0.304934 0.940371 0.149779
H44   H     H_    0.304106 0.200833 0.929153 0.129206
C126  C     C_3   0.404652 0.256637 0.028076 -0.591110
H45   H     H_    0.395109 0.261896 0.956715 0.208194
H46   H     H_    0.433551 0.308589 0.081053 0.302352
H47   H     H_    0.437391 0.204613 0.076839 0.235626
O4    O     O_3   0.610617 0.811637 0.963515 -0.552543
C127  C     C_3   0.610659 0.890116 0.983822 0.269309
H48   H     H_    0.618680 0.928369 0.944441 0.093996
H49   H     H_    0.653017 0.901663 0.074514 0.087117
C128  C     C_3   0.539194 0.909931 0.935218 -0.764882
H50   H     H_    0.529738 0.873536 0.973723 0.258443
H51   H     H_    0.538759 0.971492 0.951433 0.194512
H52   H     H_    0.495778 0.899903 0.844275 0.267852
O5    O     O_3   0.143157 0.764718 0.901573 -0.602210
C129  C     C_3   0.146724 0.793815 0.978286 0.253648
H53   H     H_    0.172461 0.851731 0.010137 0.162014
H54   H     H_    0.176624 0.753341 0.049083 0.077678
C130  C     C_3   0.071670 0.801448 0.921433 -0.632615
H55   H     H_    0.073634 0.823585 0.981154 0.238923
H56   H     H_    0.040886 0.842266 0.851008 0.307090
H57   H     H_    0.044557 0.744457 0.889778 0.207831
O6    O     O_3   0.899872 0.285613 0.059676 -0.551360
C131  C     C_3   0.911098 0.359745 0.042843 0.298289
H58   H     H_    0.903607 0.405566 0.076407 0.097681
H59   H     H_    0.874257 0.370030 0.953018 0.122527
C132  C     C_3   0.987079 0.365417 0.102635 -0.766328
H60   H     H_    0.996404 0.320847 0.070630 0.266530
H61   H     H_    0.996357 0.423243 0.088843 0.199502
H62   H     H_    0.025188 0.356683 0.193006 0.266067
O7    O     O_3   0.847028 0.739579 0.077621 -0.591371
C133  C     C_3   0.834189 0.750844 0.986647 0.211989
H63   H     H_    0.804048 0.804935 0.940371 0.149778
H64   H     H_    0.804107 0.700835 0.929155 0.129205
C134  C     C_3   0.904653 0.756639 0.028078 -0.591107
H65   H     H_    0.895110 0.761898 0.956717 0.208194
H66   H     H_    0.933552 0.808591 0.081055 0.302352
H67   H     H_    0.937393 0.704615 0.076841 0.235626
O8    O     O_3   0.110618 0.311638 0.963519 -0.552546
C135  C     C_3   0.110656 0.390120 0.983813 0.269324
H68   H     H_    0.118662 0.428367 0.944409 0.094000
H69   H     H_    0.153023 0.401677 0.074504 0.087106
C136  C     C_3   0.039197 0.409930 0.935230 -0.764887
H70   H     H_    0.029757 0.373541 0.973761 0.258434
H71   H     H_    0.038758 0.471493 0.951433 0.194513
H72   H     H_    0.995773 0.399888 0.844289 0.267862
Cl25  Cl    Cl    0.697281 0.437971 0.898562 -0.526480
Cl26  Cl    Cl    0.348175 0.617963 0.064012 -0.496626
Cl27  Cl    Cl    0.321223 0.421792 0.093084 -0.614526
Cl28  Cl    Cl    0.638765 0.630721 0.954815 -0.420530
Cl29  Cl    Cl    0.197281 0.937970 0.898562 -0.526481
Cl30  Cl    Cl    0.848174 0.117963 0.064012 -0.496626
Cl31  Cl    Cl    0.821222 0.921793 0.093085 -0.614525
Cl32  Cl    Cl    0.138765 0.130722 0.954816 -0.420530
O9    O     O_3   0.674527 0.646937 0.639108 -0.603030
C137  C     C_3   0.622674 0.605430 0.538252 0.224985
H73   H     H_    0.645422 0.554077 0.537326 0.166485
H74   H     H_    0.597459 0.641893 0.465707 0.131399
C138  C     C_3   0.565351 0.576961 0.524425 -0.690372
H75   H     H_    0.539965 0.626320 0.523521 0.258341
H76   H     H_    0.524098 0.544633 0.445432 0.208121
H77   H     H_    0.589131 0.538022 0.593952 0.291533
O10   O     O_3   0.410053 0.304415 0.603870 -0.591116
C139  C     C_3   0.351231 0.330585 0.493949 0.268879
H78   H     H_    0.312112 0.361679 0.483766 0.149127
H79   H     H_    0.323991 0.281457 0.434532 0.094308
C140  C     C_3   0.377534 0.386188 0.465564 -0.609347
H80   H     H_    0.417324 0.357286 0.476219 0.292847
H81   H     H_    0.332217 0.405700 0.378347 0.167842
H82   H     H_    0.402914 0.437150 0.521230 0.298642
O11   O     O_3   0.352640 0.640361 0.403835 -0.590739
C141  C     C_3   0.318248 0.602282 0.304976 0.213911
H83   H     H_    0.286321 0.643199 0.233970 0.085394
H84   H     H_    0.282797 0.555657 0.285039 0.106405
C142  C     C_3   0.373714 0.565963 0.319568 -0.704759
H85   H     H_    0.407009 0.524972 0.390153 0.259110
H86   H     H_    0.346971 0.534442 0.243019 0.261699
H87   H     H_    0.408052 0.611615 0.335422 0.276044
O12   O     O_3   0.549386 0.286084 0.302928 -0.619503
C143  C     C_3   0.576892 0.356029 0.363990 0.187070
H88   H     H_    0.618243 0.383472 0.376308 0.147882
H89   H     H_    0.601055 0.345359 0.447103 0.127880
C144  C     C_3   0.516768 0.413828 0.302497 -0.533245
H90   H     H_    0.476473 0.391783 0.295016 0.295544
H91   H     H_    0.538226 0.469276 0.348397 0.172096
H92   H     H_    0.490993 0.424216 0.218340 0.283693
O13   O     O_3   0.174528 0.146937 0.639109 -0.603030
C145  C     C_3   0.122674 0.105430 0.538253 0.224983
H93   H     H_    0.145422 0.054076 0.537328 0.166485
H94   H     H_    0.097460 0.141892 0.465708 0.131398
C146  C     C_3   0.065351 0.076961 0.524427 -0.690372
H95   H     H_    0.039965 0.126321 0.523522 0.258341
H96   H     H_    0.024099 0.044633 0.445435 0.208121
H97   H     H_    0.089132 0.038022 0.593955 0.291534
O14   O     O_3   0.910053 0.804415 0.603871 -0.591115
C147  C     C_3   0.851231 0.830585 0.493950 0.268876
H98   H     H_    0.812112 0.861680 0.483768 0.149129
H99   H     H_    0.823990 0.781457 0.434532 0.094307
C148  C     C_3   0.877534 0.886188 0.465564 -0.609346
H100  H     H_    0.917324 0.857285 0.476218 0.292847
H101  H     H_    0.832216 0.905701 0.378348 0.167841
H102  H     H_    0.902915 0.937150 0.521230 0.298642
O15   O     O_3   0.852641 0.140361 0.403835 -0.590739
C149  C     C_3   0.818249 0.102282 0.304976 0.213911
H103  H     H_    0.786321 0.143200 0.233971 0.085395
H104  H     H_    0.782797 0.055657 0.285040 0.106404
C150  C     C_3   0.873715 0.065963 0.319569 -0.704756
H105  H     H_    0.907010 0.024972 0.390154 0.259109
H106  H     H_    0.846972 0.034442 0.243020 0.261700
H107  H     H_    0.908053 0.111615 0.335424 0.276043
O16   O     O_3   0.049387 0.786084 0.302929 -0.619503
C151  C     C_3   0.076892 0.856030 0.363992 0.187073
H108  H     H_    0.118244 0.883473 0.376310 0.147881
H109  H     H_    0.101056 0.845360 0.447104 0.127880
C152  C     C_3   0.016769 0.913829 0.302498 -0.533248
H110  H     H_    0.976473 0.891783 0.295016 0.295545
H111  H     H_    0.038226 0.969276 0.348399 0.172096
H112  H     H_    0.990994 0.924217 0.218342 0.283692

loop_
_geom_bond_atom_site_label_1
_geom_bond_atom_site_label_2
_ccdc_geom_bond_type
C14   C109  S    
C145  H94   S    
C137  C138  S    
C38   O13   S    
C31   C52   A    
C32   Cl4   S    
C142  H86   S    
C110  C118  S    
O15   C149  S    
C80   Cl24  S    
C148  H100  S    
C98   C110  S    
N12   Ni2   S    
C99   O3    S    
C14   C102  S    
C145  C146  S    
C7    N7    A    
C129  H54   S    
C30   C38   A    
C135  H68   S    
N9    N20   A    
C16   C104  S    
N10   N19   A    
C77   C88   A    
C77   N29   A    
C69   N21   A    
C15   Cl31  S    
C75   N27   A    
C74   C83   A    
C35   O12   S    
C33   O10   S    
C129  C130  S    
C60   C92   A    
N1    N28   A    
N2    N27   A    
C78   Cl22  S    
C100  C115  S    
C125  H44   S    
C41   C49   A    
C3    H3    S    
C50   C53   A    
C147  H98   S    
C109  C117  S    
C99   C116  S    
C112  C120  S    
N26   Ni5   S    
C27   C35   A    
C143  H88   S    
C140  H80   S    
N21   Ni7   S    
C36   O11   S    
C125  C126  S    
C144  H92   S    
C124  H40   S    
C74   N26   A    
C141  H83   S    
N32   Ni7   S    
C78   N30   A    
C59   C91   A    
C147  H99   S    
C12   Cl28  S    
N15   N22   A    
C13   Cl29  S    
C30   C49   A    
C134  H66   S    
C3    C83   A    
C15   C115  S    
C17   C34   A    
C58   N10   A    
C19   C44   A    
C108  H20   S    
C148  H102  S    
C84   C114  S    
C18   C89   S    
C138  H77   S    
C10   Cl26  S    
C31   Cl3   S    
C29   Cl1   S    
C103  O7    S    
N24   Ni8   S    
C22   C45   A    
C57   N9    A    
C47   H32   S    
C58   Cl10  S    
C124  H41   S    
O13   C145  S    
C128  H52   S    
C70   H14   S    
C103  C107  S    
C15   C103  S    
C42   H25   S    
C1    C81   A    
C62   Cl14  S    
C16   C111  S    
C78   C87   A    
C152  H110  S    
N17   Ni5   S    
C24   C39   A    
N2    Ni2   S    
O5    C129  S    
C138  H75   S    
C101  C118  S    
C105  C113  S    
C45   H30   S    
C124  H42   S    
N28   Ni5   S    
C130  H55   S    
N29   Ni8   S    
N30   Ni7   S    
C4    H4    S    
C11   C99   S    
O4    C127  S    
C146  H96   S    
N11   N18   A    
C19   C92   S    
C20   C35   A    
C121  H34   S    
C60   Cl12  S    
C41   H26   S    
N5    N32   A    
C140  H82   S    
N6    N31   A    
C132  H61   S    
N3    N26   A    
C111  H23   S    
C104  C119  S    
C5    C85   A    
C76   Cl20  S    
C63   N15   A    
C45   C53   A    
C2    N2    A    
C126  H45   S    
C6    N6    A    
O8    C135  S    
C148  H101  S    
C150  H106  S    
C27   Cl7   S    
C64   C96   A    
O1    C121  S    
C67   C90   A    
C8    C88   A    
C68   H12   S    
C122  H35   S    
C97   C109  S    
C151  H109  S    
C99   C111  S    
O9    C137  S    
C70   N22   A    
C102  C117  S    
C133  H64   S    
C42   C50   A    
C62   N14   A    
C152  H112  S    
C149  H104  S    
C48   H31   S    
C88   C118  S    
N8    N29   A    
C121  C122  S    
N25   Ni6   S    
C15   C112  S    
N4    Ni1   S    
N5    Ni3   S    
C133  C134  S    
N6    Ni4   S    
C130  H57   S    
C75   C82   A    
C149  C150  S    
C6    C86   A    
C98   O2    S    
C136  H71   S    
C131  H58   S    
C14   Cl30  S    
C60   N12   A    
C79   N31   A    
C61   N13   A    
C80   N32   A    
C107  H19   S    
C26   Cl6   S    
C18   C33   A    
C1    H1    S    
C59   N11   A    
C105  H17   S    
C46   H29   S    
C123  H38   S    
C126  H47   S    
C5    H5    S    
C11   C108  S    
C86   C120  S    
N8    Ni3   S    
C7    H7    S    
C97   C114  S    
C128  H50   S    
C13   C101  S    
C61   Cl13  S    
C132  H60   S    
N16   Ni4   S    
C135  C136  S    
C83   C113  S    
C103  C120  S    
C11   Cl27  S    
N31   Ni8   S    
C77   Cl21  S    
N13   N24   A    
C75   Cl19  S    
N14   N23   A    
C57   C89   A    
C151  C152  S    
C87   C117  S    
C122  H37   S    
C61   C93   A    
C142  H87   S    
C143  H89   S    
C23   C40   A    
C63   C95   A    
C44   H27   S    
C137  H73   S    
O10   C139  S    
C144  H91   S    
C37   O14   S    
C17   C42   A    
C43   H28   S    
C40   O15   S    
C7    C87   A    
C147  C148  S    
C141  H84   S    
C52   C55   A    
C34   O9    S    
C143  C144  S    
C140  H81   S    
C145  H93   S    
C63   Cl15  S    
C134  H65   S    
C139  H79   S    
C16   C116  S    
C2    H2    S    
C20   C91   S    
C101  O5    S    
N13   Ni4   S    
N14   Ni3   S    
C127  C128  S    
C25   C54   A    
C6    H6    S    
C24   C95   S    
C127  H49   S    
C27   C56   A    
C98   C113  S    
C129  H53   S    
C150  H105  S    
C22   C37   A    
C65   N17   A    
C139  C140  S    
C32   C51   A    
C80   C85   A    
C132  H62   S    
C110  H22   S    
N4    N25   A    
C46   C54   A    
C3    N3    A    
C127  H48   S    
C1    N1    A    
C58   C90   A    
C72   C93   A    
C4    N4    A    
C106  C114  S    
C100  C112  S    
C5    N5    A    
C62   C94   A    
C97   O1    S    
C2    C82   A    
C125  H43   S    
C8    N8    A    
C104  C108  S    
C73   Cl17  S    
C9    C97   S    
C17   C90   S    
C76   N28   A    
C12   C107  S    
C65   H9    S    
N20   Ni6   S    
C108  C116  S    
N10   Ni1   S    
C82   C116  S    
C64   N16   A    
C14   C114  S    
N23   Ni7   S    
C68   N20   A    
C43   C51   A    
O12   C143  S    
C30   Cl2   S    
C71   N23   A    
C72   N24   A    
N7    N30   A    
C146  H95   S    
C12   C100  S    
C72   H16   S    
C141  C142  S    
C59   Cl11  S    
C28   C36   A    
C122  H36   S    
O11   C141  S    
C134  H67   S    
C29   C37   A    
C104  O8    S    
C79   C86   A    
C100  O4    S    
N9    Ni2   S    
C65   C92   A    
C9    C117  S    
O14   C147  S    
C69   C96   A    
C11   C119  S    
C121  H33   S    
C71   C94   A    
C142  H85   S    
C64   Cl16  S    
C28   Cl8   S    
C74   Cl18  S    
C111  C119  S    
O6    C131  S    
C19   C36   A    
C71   H15   S    
C106  H18   S    
C21   C94   S    
C49   C54   A    
C23   C96   S    
N19   Ni5   S    
C85   C119  S    
C51   C56   A    
C10   C98   S    
C12   C120  S    
C26   C34   A    
C4    C84   A    
C16   Cl32  S    
O7    C133  S    
C73   C84   A    
C135  H69   S    
C73   N25   A    
C79   Cl23  S    
C152  H111  S    
N12   N17   A    
C28   C55   A    
C8    H8    S    
C68   C89   A    
C29   C50   A    
C101  C105  S    
N16   N21   A    
C21   C38   A    
C18   C41   A    
C130  H56   S    
C67   N19   A    
C9    C106  S    
C39   O16   S    
N7    Ni4   S    
C146  H97   S    
C131  H59   S    
C13   C110  S    
C10   C118  S    
N15   Ni3   S    
C81   C115  S    
O2    C123  S    
C9    Cl25  S    
C107  C115  S    
C123  H39   S    
C126  H46   S    
C22   C93   S    
C136  H72   S    
C131  C132  S    
C57   Cl9   S    
C26   C53   A    
C20   C43   A    
C47   C55   A    
C21   C46   A    
O3    C125  S    
C150  H107  S    
C48   C56   A    
C69   H13   S    
C23   C48   A    
C24   C47   A    
C66   N18   A    
C67   H11   S    
N3    Ni2   S    
C76   C81   A    
C109  H21   S    
C66   C91   A    
C123  C124  S    
N18   Ni6   S    
C102  O6    S    
N11   Ni1   S    
C112  H24   S    
C128  H51   S    
C70   C95   A    
C138  H76   S    
N22   Ni8   S    
C44   C52   A    
C151  H108  S    
N27   Ni6   S    
N1    Ni1   S    
C31   C39   A    
C102  C106  S    
C137  H74   S    
C32   C40   A    
C144  H90   S    
C25   Cl5   S    
C133  H63   S    
C149  H103  S    
C139  H78   S    
C25   C33   A    
C10   C105  S    
O16   C151  S    
C136  H70   S    
C13   C113  S    
C66   H10   S    
