data_mof_unit_19742.cif
_audit_creation_date              2012-12-10T20:51:43-0500
_audit_creation_method            fapswitch 2.2
_symmetry_space_group_name_H-M    P1
_symmetry_Int_Tables_number       1
_space_group_crystal_system       triclinic
_cell_length_a                    8.085629
_cell_length_b                    8.937933
_cell_length_c                    16.920517
_cell_angle_alpha                 89.516599
_cell_angle_beta                  92.580821
_cell_angle_gamma                 89.994208
_cell_volume                      1221.54170001

loop_
_atom_site_label
_atom_site_type_symbol
_atom_type_description
_atom_site_fract_x
_atom_site_fract_y
_atom_site_fract_z
_atom_type_partial_charge
C1    C     C_R   0.499979 0.217905 0.499997 0.934941
C2    C     C_R   0.500019 0.782098 0.499976 0.926791
C3    C     C_R   0.518250 0.498320 0.653834 0.934262
C4    C     C_R   0.482205 0.502299 0.346051 0.903021
C5    C     C_R   0.523992 0.489628 0.740000 -0.148327
C6    C     C_R   0.480552 0.482258 0.260435 -0.222987
C7    C     C_R   0.376867 0.493685 0.782211 0.320969
C8    C     C_R   0.631145 0.481871 0.220287 0.308826
C9    C     C_R   0.386933 0.470814 0.864657 0.416311
C10   C     C_R   0.631730 0.432480 0.142280 0.504697
C11   C     C_R   0.544175 0.460327 0.903792 0.188360
C12   C     C_R   0.480053 0.395507 0.102499 0.150259
C13   C     C_R   0.687946 0.464980 0.861846 -0.268758
C14   C     C_R   0.332492 0.398135 0.141932 -0.252323
C15   C     C_R   0.678340 0.475563 0.780364 -0.303620
C16   C     C_R   0.332335 0.440834 0.220442 -0.268611
C17   C     C_1   0.499992 0.065165 0.499982 -0.180392
C18   C     C_1   0.500007 0.934841 0.499976 -0.180768
H1    H     H_    0.808055 0.459980 0.892733 0.186426
H2    H     H_    0.216498 0.370733 0.110843 0.201009
H3    H     H_    0.792343 0.474942 0.749088 0.209828
H4    H     H_    0.216431 0.439027 0.250161 0.221568
N1    N     N_1   0.073640 0.500030 0.499990 -0.013665
N2    N     N_1   0.926360 0.499970 0.500010 -0.016433
N3    N     N_2   0.561937 0.464292 0.986274 -0.125641
N4    N     N_2   0.468829 0.376262 0.020081 -0.115981
O1    O     O_R   0.636850 0.285340 0.500000 -0.613620
O2    O     O_R   0.363150 0.714660 0.500000 -0.614841
O3    O     O_R   0.363100 0.285350 0.500000 -0.617261
O4    O     O_R   0.636900 0.714650 0.500000 -0.621765
O5    O     O_R   0.652140 0.498630 0.616140 -0.637830
O6    O     O_R   0.347860 0.501370 0.383860 -0.621170
O7    O     O_R   0.378390 0.498650 0.616130 -0.552389
O8    O     O_R   0.621610 0.501350 0.383870 -0.592845
Zn1   Zn    Zn3+2 0.682780 0.499990 0.500010 1.012189
Zn2   Zn    Zn3+2 0.317220 0.500010 0.499990 1.029112
O9    O     O_3   0.779614 0.525149 0.256121 -0.743724
H5    H     H_    0.760246 0.622775 0.281567 0.333877
O10   O     O_3   0.227051 0.523045 0.742281 -0.749734
H6    H     H_    0.142652 0.549832 0.780345 0.359242
O11   O     O_3   0.779587 0.410506 0.105099 -0.594739
C19   C     C_3   0.860499 0.548389 0.092226 -0.223238
H7    H     H_    0.774148 0.645308 0.084539 0.138956
H8    H     H_    0.928991 0.539801 0.037090 0.181776
H9    H     H_    0.953502 0.570231 0.140981 0.210314
O12   O     O_3   0.245854 0.473301 0.908132 -0.617332
C20   C     C_3   0.167935 0.332083 0.902431 -0.333692
H10   H     H_    0.067856 0.327844 0.945119 0.200094
H11   H     H_    0.255010 0.238743 0.918029 0.178357
H12   H     H_    0.110406 0.314304 0.842364 0.180500

loop_
_geom_bond_atom_site_label_1
_geom_bond_atom_site_label_2
_ccdc_geom_bond_type
C2    O2    A    
N1    N2    T    
C19   H8    S    
O9    H5    S    
C14   C16   A    
C2    C18   S    
C11   C13   A    
O11   C19   S    
C1    C17   S    
C20   H10   S    
C2    O4    A    
C7    C9    A    
C1    O3    A    
C17   C18   T    
C9    O12   S    
C20   H11   S    
C3    O7    A    
C10   O11   S    
C3    O5    A    
C9    C11   A    
O3    Zn2   S    
C4    O6    A    
C10   C12   A    
O4    Zn1   S    
O6    Zn2   S    
C8    C10   A    
C12   C14   A    
N1    Zn2   S    
C20   H12   S    
C4    O8    A    
C13   C15   A    
O5    Zn1   S    
C5    C15   A    
N2    Zn1   S    
C8    O9    S    
C11   N3    S    
C6    C16   A    
C14   H2    S    
C15   H3    S    
O7    Zn2   S    
O2    Zn2   S    
C1    O1    A    
O8    Zn1   S    
C19   H7    S    
C12   N4    S    
O10   H6    S    
C5    C7    A    
C7    O10   S    
O12   C20   S    
C13   H1    S    
C6    C8    A    
O1    Zn1   S    
N3    N4    D    
C4    C6    S    
C16   H4    S    
C3    C5    S    
C19   H9    S    
