data_mof_unit_67124.cif
_audit_creation_date              2012-12-11T17:44:46-0500
_audit_creation_method            fapswitch 2.2
_symmetry_space_group_name_H-M    P1
_symmetry_Int_Tables_number       1
_space_group_crystal_system       triclinic
_cell_length_a                    8.284197
_cell_length_b                    12.889455
_cell_length_c                    15.026428
_cell_angle_alpha                 96.531417
_cell_angle_beta                  97.537729
_cell_angle_gamma                 98.585392
_cell_volume                      1558.19778195

loop_
_atom_site_label
_atom_site_type_symbol
_atom_type_description
_atom_site_fract_x
_atom_site_fract_y
_atom_site_fract_z
_atom_type_partial_charge
Ba1   Ba    Ba6+2 0.843760 0.550230 0.455610 1.696943
Ba2   Ba    Ba6+2 0.346080 0.449860 0.544400 1.679804
C1    C     C_3   0.582426 0.884794 0.115016 0.444021
C2    C     C_R   0.114161 0.465823 0.205802 0.094942
C3    C     C_R   0.923681 0.488121 0.769216 -0.304254
C4    C     C_3   0.101233 0.809282 0.203092 0.753136
C5    C     C_R   0.824734 0.451746 0.830020 0.029534
C6    C     C_R   0.887327 0.461909 0.922618 -0.115848
C7    C     C_R   0.054109 0.508168 0.956137 -0.062984
C8    C     C_R   0.151621 0.552372 0.892972 -0.077471
C9    C     C_R   0.127994 0.509690 0.049313 -0.024558
C10   C     C_R   0.300827 0.547292 0.075262 -0.068879
C11   C     C_R   0.394933 0.581456 0.008951 0.317457
C12   C     C_3   0.540782 0.800264 0.176393 0.801530
C13   C     C_R   0.315722 0.601203 0.925416 0.355309
C14   C     C_R   0.037289 0.471756 0.117008 0.002243
C15   C     C_R   0.279100 0.511130 0.230661 -0.302334
C16   C     C_3   0.019205 0.822445 0.108876 0.281134
C17   C     C_R   0.083788 0.540829 0.798227 0.090716
C18   C     C_R   0.770609 0.177510 0.519062 -0.284482
C19   C     C_R   0.418394 0.810903 0.463501 -0.218522
C20   C     C_R   0.386317 0.985098 0.424849 -0.017265
C21   C     C_R   0.321333 0.878392 0.422987 0.007793
C22   C     C_R   0.579490 0.848249 0.509128 0.089141
C23   C     C_3   0.414891 0.300555 0.269164 0.302644
C24   C     C_R   0.646319 0.958540 0.511115 -0.038338
C25   C     C_R   0.547228 0.027412 0.469305 -0.023958
C26   C     C_R   0.611838 0.137646 0.474867 -0.000306
C27   C     C_R   0.869777 0.111525 0.556161 0.023101
C28   C     C_3   0.268294 0.779531 0.657856 0.393145
C29   C     C_R   0.808061 0.003382 0.553961 -0.091497
C30   C     C_3   0.301493 0.897335 0.690331 0.565944
C31   C     C_3   0.867435 0.200639 0.225525 0.480957
C32   C     C_3   0.901291 0.213190 0.129397 0.180363
C33   C     C_3   0.782794 0.704118 0.730720 0.318422
C34   C     C_3   0.437618 0.296945 0.170256 -0.381418
C35   C     C_3   0.845261 0.745392 0.830276 -0.399423
C36   C     C_3   0.821204 0.057980 0.318021 -0.205347
C37   C     C_3   0.420409 0.022062 0.159307 -0.263674
C38   C     C_3   0.009381 0.226609 0.898793 -0.297964
C39   C     C_3   0.531799 0.180616 0.978706 -0.218548
C40   C     C_3   0.202934 0.200734 0.785233 0.502875
C41   C     C_3   0.302965 0.145793 0.854112 0.032405
C42   C     C_3   0.668451 0.187382 0.729407 0.295835
C43   C     C_3   0.696153 0.077222 0.750212 -0.427073
C44   C     C_R   0.373213 0.552260 0.167790 0.000048
H1    H     H_    0.417406 0.914252 0.739891 0.035024
H2    H     H_    0.751459 0.784992 0.860620 0.139344
H3    H     H_    0.416842 0.754924 0.146624 -0.181429
H4    H     H_    0.283758 0.301248 0.275162 0.081272
H5    H     H_    0.490845 0.375735 0.304254 0.050223
H6    H     H_    0.384105 0.219193 0.132292 0.134669
H7    H     H_    0.372126 0.353195 0.136445 0.096736
H8    H     H_    0.570278 0.316532 0.164917 0.093048
H9    H     H_    0.087648 0.787833 0.057101 -0.032649
H10   H     H_    0.294329 0.252546 0.755464 0.093771
H11   H     H_    0.222530 0.089133 0.886319 0.096662
H12   H     H_    0.741310 0.215710 0.232185 -0.015983
H13   H     H_    0.378968 0.098075 0.816359 0.113191
H14   H     H_    0.785643 0.229861 0.712956 0.005826
H15   H     H_    0.571235 0.177006 0.669267 0.045113
H16   H     H_    0.828791 0.072216 0.760927 0.155631
H17   H     H_    0.640424 0.016585 0.692235 0.077223
H18   H     H_    0.642155 0.054630 0.809971 0.120224
H19   H     H_    0.335108 0.514880 0.300385 0.039902
H20   H     H_    0.905766 0.449329 0.102835 0.077366
H21   H     H_    0.873464 0.476633 0.697899 0.055830
H22   H     H_    0.805680 0.427132 0.965398 0.083260
H23   H     H_    0.858778 0.284535 0.109148 -0.012966
H24   H     H_    0.307984 0.034664 0.393179 0.068008
H25   H     H_    0.886564 0.956205 0.587744 0.118757
H26   H     H_    0.820012 0.260778 0.522524 0.074683
H27   H     H_    0.229194 0.852418 0.213256 -0.109603
H28   H     H_    0.365057 0.728802 0.462527 0.033094
H29   H     H_    0.891880 0.777678 0.095112 0.158906
H30   H     H_    0.379570 0.754485 0.634705 -0.086488
H31   H     H_    0.161748 0.760388 0.602186 0.020574
H32   H     H_    0.477870 0.795852 0.294687 0.238434
H33   H     H_    0.372941 0.025848 0.644583 0.313262
H34   H     H_    0.827248 0.145675 0.080830 0.009892
H35   H     H_    0.069321 0.905851 0.691694 0.319739
H36   H     H_    0.994008 0.072498 0.231794 0.257887
H37   H     H_    0.904843 0.100154 0.379070 0.115413
H38   H     H_    0.820832 0.972090 0.316958 0.199856
H39   H     H_    0.692931 0.071835 0.318600 0.099951
H40   H     H_    0.086666 0.148709 0.098225 0.313766
H41   H     H_    0.336657 0.889328 0.059920 0.217825
H42   H     H_    0.304144 0.050304 0.136801 0.159226
H43   H     H_    0.526317 0.086975 0.166299 0.117447
H44   H     H_    0.412567 0.996761 0.226526 0.158461
H45   H     H_    0.885425 0.677030 0.699184 0.002446
H46   H     H_    0.662880 0.896350 0.000811 0.292814
H47   H     H_    0.142476 0.343720 0.839899 0.179320
H48   H     H_    0.083733 0.257806 0.965576 0.142376
H49   H     H_    0.981756 0.139180 0.891934 0.119066
H50   H     H_    0.891068 0.255946 0.897549 0.151097
H51   H     H_    0.351288 0.274498 0.959419 0.205880
H52   H     H_    0.471147 0.119939 0.015119 0.108676
H53   H     H_    0.608062 0.246253 0.026415 0.086906
H54   H     H_    0.615253 0.144219 0.937985 0.136097
H55   H     H_    0.203318 0.694689 0.241654 0.227213
H56   H     H_    0.679499 0.637051 0.725906 0.057505
H57   H     H_    0.606444 0.580087 0.965800 0.304474
H58   H     H_    0.502709 0.707512 0.911449 0.339746
H59   H     H_    0.975634 0.932981 0.037316 0.293146
H60   H     H_    0.690471 0.942469 0.149866 0.102397
H61   H     H_    0.960887 0.803529 0.836765 0.154817
H62   H     H_    0.870198 0.679601 0.868622 0.062558
N1    N     N_2   0.879540 0.092198 0.238461 -0.449245
N2    N     N_2   0.442805 0.937564 0.092932 -0.466646
N3    N     N_2   0.094523 0.264354 0.827057 -0.449125
N4    N     N_2   0.409324 0.222778 0.922912 -0.396267
O1    O     O_2   0.827930 0.435360 0.277760 -0.491677
O2    O     O_2   0.202404 0.121309 0.558376 -0.454789
O3    O     O_3   0.109534 0.123031 0.717544 -0.612992
O4    O     O_3   0.100310 0.439010 0.391180 -0.463124
O5    O     O_3   0.587770 0.631830 0.546230 -0.495113
O6    O     O_2   0.332600 0.233710 0.456170 -0.442448
O7    O     O_3   0.461721 0.210425 0.302917 -0.662952
O8    O     O_2   0.479132 0.415202 0.829032 -0.508599
O9    O     O_3   0.617041 0.244312 0.803350 -0.604143
O10   O     O_3   0.625610 0.634200 0.333270 -0.483127
O11   O     O_2   0.707698 0.545242 0.181247 -0.414648
O12   O     O_3   0.727728 0.786591 0.688990 -0.644003
O13   O     O_3   0.980693 0.266372 0.294197 -0.610944
O14   O     O_3   0.662754 0.735802 0.179314 -0.532248
O15   O     O_2   0.857120 0.766320 0.543890 -0.480283
O16   O     O_3   0.056570 0.691100 0.379020 -0.446569
O17   O     O_2   0.993315 0.877227 0.441276 -0.464840
O18   O     O_3   0.539347 0.849419 0.264121 -0.815937
O19   O     O_3   0.318512 0.953604 0.617471 -0.770536
O20   O     O_3   0.173265 0.926694 0.735015 -0.714028
O21   O     O_3   0.069816 0.219770 0.124386 -0.779012
O22   O     O_3   0.624705 0.837823 0.034692 -0.758255
O23   O     O_3   0.016817 0.852441 0.270025 -0.586562
O24   O     O_3   0.097714 0.700902 0.205160 -0.750888
O25   O     O_3   0.564784 0.592037 0.024402 -0.702179
O26   O     O_3   0.396870 0.670774 0.876460 -0.702167
O27   O     O_3   0.017120 0.929490 0.101743 -0.787807
O28   O     O_2   0.361790 0.564680 0.722290 -0.432627
O29   O     O_3   0.089410 0.561080 0.608830 -0.518786
O30   O     O_3   0.564100 0.365890 0.666740 -0.489573
O31   O     O_3   0.233688 0.732819 0.733209 -0.604393
O32   O     O_3   0.601940 0.368260 0.453780 -0.482039
O33   O     O_3   0.133140 0.308990 0.620990 -0.494848
P1    P     P_3+3 0.998770 0.403620 0.291990 1.010953
P2    P     P_3+3 0.687370 0.751000 0.571300 0.967529
P3    P     P_3+3 0.101178 0.827487 0.377804 1.002212
P4    P     P_3+3 0.190950 0.596470 0.708020 1.033705
P5    P     P_3+3 0.079324 0.169821 0.612033 0.971488
P6    P     P_3+3 0.588150 0.615820 0.215002 1.067261
P7    P     P_3+3 0.503767 0.235165 0.421191 0.944354
P8    P     P_3+3 0.620147 0.375649 0.783446 0.933707

loop_
_geom_bond_atom_site_label_1
_geom_bond_atom_site_label_2
_ccdc_geom_bond_type
O4    P1    S    
C16   H29   S    
C36   H37   S    
Ba2   O32   S    
C42   O9    S    
Ba1   O16   S    
C3    H21   S    
C33   H56   S    
Ba2   O6    S    
O29   P4    S    
C5    C6    A    
H41   N2    S    
Ba2   O33   S    
C24   C25   A    
C31   H12   S    
O9    P8    S    
C33   O12   S    
C33   C35   S    
C22   C24   A    
C35   H61   S    
O13   P1    S    
H57   O25   S    
C12   H3    S    
C1    N2    S    
C43   H16   S    
Ba1   Ba2   S    
C9    C14   A    
C23   H4    S    
O17   P3    D    
C4    O24   S    
C34   H7    S    
C40   H10   S    
C27   P5    S    
Ba1   O10   S    
C28   H31   S    
Ba2   O4    S    
C37   N2    S    
C6    C7    A    
C39   N4    S    
C39   H53   S    
Ba1   O4    S    
C7    C8    A    
C37   H44   S    
O33   P5    S    
C34   H6    S    
C41   H13   S    
C13   O26   S    
C32   H34   S    
Ba2   P4    S    
C29   H25   S    
C44   P6    S    
H33   O19   S    
C24   C29   A    
Ba1   P1    S    
Ba1   O1    S    
C37   H42   S    
C38   H50   S    
C23   O7    S    
Ba2   O5    S    
C38   N3    S    
C18   C27   A    
C1    H60   S    
C4    C16   S    
O12   P2    S    
O11   P6    D    
C36   H39   S    
H36   N1    S    
C34   H8    S    
C15   C44   A    
C35   H62   S    
C10   C44   A    
C3    C5    A    
H51   N4    S    
O16   P3    S    
H35   O20   S    
C18   C26   A    
C32   O21   S    
C19   H28   S    
C43   H17   S    
C28   O31   S    
C35   H2    S    
C11   O25   S    
O1    P1    D    
C2    C14   A    
C40   N3    S    
C23   H5    S    
C4    O23   S    
H59   O27   S    
C28   H30   S    
O14   P6    S    
H40   O21   S    
C5    P8    S    
C8    C17   A    
C2    P1    S    
C31   O13   S    
C31   C32   S    
C39   H54   S    
Ba1   O5    S    
C36   N1    S    
O6    P7    D    
C7    C9    A    
C32   H23   S    
C1    C12   S    
C16   H9    S    
H47   N3    S    
C2    C15   A    
C26   P7    S    
C20   C25   A    
C11   C13   A    
Ba2   O30   S    
C30   H1    S    
Ba1   P2    S    
C31   N1    S    
C40   C41   S    
O2    P5    D    
C38   H49   S    
C30   O20   S    
C20   H24   S    
C42   C43   S    
C4    H27   S    
C12   O18   S    
H55   O24   S    
O7    P7    S    
C36   H38   S    
C8    C13   A    
C39   H52   S    
H46   O22   S    
Ba1   O15   S    
C38   H48   S    
C22   P2    S    
C9    C10   A    
C6    H22   S    
C3    C17   A    
C42   H15   S    
C21   P3    S    
C43   H18   S    
C15   H19   S    
C12   O14   S    
O5    P2    S    
C1    O22   S    
Ba2   O28   S    
O10   P6    S    
C19   C21   A    
H32   O18   S    
O32   P7    S    
Ba1   O32   S    
C28   C30   S    
C42   H14   S    
O3    P5    S    
O8    P8    D    
C17   P4    S    
H58   O26   S    
O30   P8    S    
C16   O27   S    
Ba1   O29   S    
C41   H11   S    
C23   C34   S    
C40   O3    S    
O31   P4    S    
C14   H20   S    
C10   C11   A    
C27   C29   A    
O23   P3    S    
C41   N4    S    
C19   C22   A    
C25   C26   A    
Ba2   O29   S    
C20   C21   A    
C18   H26   S    
O28   P4    D    
C37   H43   S    
C30   O19   S    
O15   P2    D    
C33   H45   S    
