data_mof_unit_18320.cif
_audit_creation_date              2012-12-11T16:53:44-0500
_audit_creation_method            fapswitch 2.2
_symmetry_space_group_name_H-M    P1
_symmetry_Int_Tables_number       1
_space_group_crystal_system       triclinic
_cell_length_a                    15.04769
_cell_length_b                    14.767185
_cell_length_c                    17.136991
_cell_angle_alpha                 108.143455
_cell_angle_beta                  106.09558
_cell_angle_gamma                 108.573208
_cell_volume                      3116.3698076

loop_
_atom_site_label
_atom_site_type_symbol
_atom_type_description
_atom_site_fract_x
_atom_site_fract_y
_atom_site_fract_z
_atom_type_partial_charge
C1    C     C_R   0.083769 0.282490 0.074319 -0.125190
C2    C     C_R   0.024177 0.577882 0.744392 0.013890
C3    C     C_R   0.721633 0.196537 0.730290 0.171618
C4    C     C_R   0.357532 0.558645 0.047517 -0.124099
C5    C     C_R   0.273124 0.689553 0.250115 -0.025165
C6    C     C_R   0.752211 0.566168 0.973968 -0.144100
C7    C     C_R   0.891195 0.449369 0.188964 -0.138119
C8    C     C_R   0.084195 0.801369 0.004750 -0.213899
C9    C     C_R   0.915354 0.716185 0.924488 0.606570
C10   C     C_R   0.062852 0.538068 0.264311 -0.113868
C11   C     C_R   0.274481 0.788711 0.175753 0.569209
C12   C     C_R   0.934803 0.517806 0.747561 -0.122854
C13   C     C_R   0.734413 0.462360 0.044506 -0.129201
C14   C     C_R   0.331843 0.782810 0.251055 -0.083190
C15   C     C_R   0.712062 0.541312 0.030986 0.058077
C16   C     C_R   0.970975 0.517786 0.274418 0.063672
C17   C     C_R   0.001392 0.812773 0.956404 -0.131788
C18   C     C_R   0.490983 0.598125 0.994260 0.164745
C19   C     C_R   0.461935 0.581314 0.060663 0.068265
C20   C     C_R   0.532608 0.580869 0.133906 -0.119123
C21   C     C_R   0.623007 0.577442 0.130053 -0.260405
C22   C     C_R   0.641635 0.577420 0.054249 0.055099
C23   C     C_R   0.753063 0.201090 0.815230 -0.108010
C24   C     C_R   0.580525 0.598753 0.991991 0.091875
C25   C     C_3   0.532599 0.542763 0.890547 -0.519454
C26   C     C_3   0.433215 0.542215 0.893557 -0.434068
C27   C     C_R   0.959005 0.556604 0.359302 0.111227
C28   C     C_R   0.027559 0.616041 0.675440 0.135929
C29   C     C_R   0.124741 0.702298 0.606557 -0.225759
C30   C     C_R   0.120542 0.686220 0.681652 -0.170173
C31   C     C_R   0.937054 0.572709 0.597447 -0.261677
C32   C     C_R   0.941689 0.582479 0.520963 0.176892
C33   C     C_R   0.037038 0.643724 0.523419 0.136538
C34   C     C_R   0.297874 0.593269 0.999353 0.576820
C35   C     C_R   0.043558 0.636252 0.441493 -0.066546
C36   C     C_R   0.862436 0.507205 0.359559 -0.208536
C37   C     C_R   0.853466 0.522162 0.439988 -0.226076
C38   C     C_R   0.639620 0.108402 0.651649 -0.111030
C39   C     C_R   0.422506 0.863120 0.328249 -0.027159
C40   C     C_R   0.601043 0.932218 0.425593 -0.369907
C41   C     C_R   0.520113 0.868541 0.339157 0.621636
C42   C     C_R   0.404020 0.918619 0.398243 -0.329015
C43   C     C_R   0.482432 0.979583 0.482788 0.139533
C44   C     C_R   0.583027 0.989483 0.496988 -0.062718
C45   C     C_R   0.758614 0.298017 0.736624 -0.160660
C46   C     C_R   0.663224 0.057443 0.582278 0.555585
C47   C     C_R   0.538719 0.092475 0.638891 -0.007140
C48   C     C_R   0.460016 0.028092 0.553521 -0.266531
C49   C     C_R   0.071175 0.121179 0.152396 0.089795
C50   C     C_R   0.988916 0.105820 0.078109 0.069222
C51   C     C_R   0.894716 0.014044 0.043430 -0.216703
C52   C     C_R   0.888404 0.936221 0.075618 -0.154239
C53   C     C_R   0.975678 0.948115 0.142487 -0.057421
C54   C     C_R   0.063857 0.044576 0.184193 0.062071
C55   C     C_3   0.173447 0.064888 0.205756 0.503777
C56   C     C_R   0.294979 0.496186 0.074705 -0.013172
C57   C     C_3   0.181742 0.148225 0.169824 -0.638444
C58   C     C_R   0.106276 0.602786 0.822216 -0.097370
C59   C     C_R   0.913798 0.198885 0.995119 -0.123978
C60   C     C_R   0.996917 0.187272 0.043223 0.060593
H1    H     H_    0.156761 0.308133 0.128170 0.099690
H2    H     H_    0.745779 0.622537 0.948113 0.157985
H3    H     H_    0.811326 0.407015 0.173385 0.085211
H4    H     H_    0.163530 0.855512 0.027102 0.194734
H5    H     H_    0.140074 0.580434 0.316061 0.123901
H6    H     H_    0.701503 0.415628 0.075392 0.093393
H7    H     H_    0.515326 0.575501 0.189933 0.161695
H8    H     H_    0.672872 0.565873 0.181311 0.141566
H9    H     H_    0.565946 0.594041 0.860428 0.203742
H10   H     H_    0.856455 0.498439 0.706781 0.111037
H11   H     H_    0.528222 0.461741 0.863607 0.208871
H12   H     H_    0.409653 0.592886 0.864599 0.221815
H13   H     H_    0.371306 0.461158 0.869122 0.184588
H14   H     H_    0.794005 0.451307 0.298275 0.121884
H15   H     H_    0.198666 0.753259 0.612544 0.124849
H16   H     H_    0.779372 0.477729 0.438145 0.131270
H17   H     H_    0.191012 0.724642 0.742511 0.116975
H18   H     H_    0.863675 0.520791 0.591427 0.114324
H19   H     H_    0.729073 0.137146 0.834265 0.093313
H20   H     H_    0.676450 0.934796 0.437714 0.187922
H21   H     H_    0.382129 0.017840 0.542309 0.129836
H22   H     H_    0.326128 0.908436 0.387536 0.138052
H23   H     H_    0.826981 0.999225 0.988596 0.116964
H24   H     H_    0.817485 0.863739 0.044772 0.125584
H25   H     H_    0.184213 0.997534 0.164873 0.047469
H26   H     H_    0.234698 0.230982 0.222463 0.222068
H27   H     H_    0.193248 0.126785 0.106384 0.167176
H28   H     H_    0.739756 0.322890 0.683680 0.096873
H29   H     H_    0.184876 0.660658 0.846919 0.155575
H30   H     H_    0.833436 0.149469 0.975404 0.085861
N1    N     N_R   0.055640 0.348550 0.045600 -0.040642
N2    N     N_R   0.798340 0.505430 0.954400 -0.038697
N3    N     N_R   0.931580 0.439470 0.128350 -0.040764
N4    N     N_R   0.051950 0.704140 0.002340 -0.066979
N5    N     N_R   0.944360 0.651450 0.954400 -0.098192
N6    N     N_R   0.039170 0.492150 0.176290 -0.040512
N7    N     N_R   0.188710 0.696600 0.128350 -0.103244
N8    N     N_R   0.794820 0.447010 0.002340 -0.044262
N9    N     N_R   0.960830 0.507850 0.823710 -0.046377
N10   N     N_R   0.811290 0.303400 0.871650 -0.050858
N11   N     N_R   0.205180 0.552990 0.997660 -0.102762
N12   N     N_R   0.814810 0.361830 0.823710 -0.040602
N13   N     N_R   0.201660 0.494570 0.045600 -0.088081
N14   N     N_R   0.068420 0.560530 0.871650 -0.041908
N15   N     N_R   0.948050 0.295860 0.997660 -0.041255
N16   N     N_R   0.185190 0.638170 0.176290 -0.083852
Ni1   Ni    Ni4+2 0.119330 0.493420 0.109950 0.195835
Ni2   Ni    Ni4+2 0.880670 0.506580 0.890050 0.247189
Ni3   Ni    Ni4+2 0.872590 0.372590 0.000000 0.205929
Ni4   Ni    Ni4+2 0.127410 0.627410 0.000000 0.252612
O1    O     O_3   0.819460 0.677561 0.854464 -0.650014
C61   C     C_3   0.810965 0.753840 0.823670 -0.282268
H31   H     H_    0.866451 0.774505 0.793325 0.161544
H32   H     H_    0.821867 0.826082 0.878840 0.148487
H33   H     H_    0.732081 0.719195 0.770078 0.174346
O2    O     O_3   0.303141 0.859198 0.139248 -0.655327
C62   C     C_3   0.381856 0.960542 0.203901 -0.341826
H34   H     H_    0.458020 0.959275 0.223596 0.160657
H35   H     H_    0.365912 0.992606 0.263508 0.178940
H36   H     H_    0.385460 0.016040 0.172382 0.177694
N17   N     N_3   0.134625 0.706593 0.441077 -0.225220
H37   H     H_    0.148871 0.784992 0.477443 0.106063
H38   H     H_    0.197248 0.694772 0.472722 0.096488
O3    O     O_3   0.763443 0.070685 0.599793 -0.610700
C63   C     C_3   0.811808 0.145494 0.571606 -0.272015
H39   H     H_    0.838910 0.227705 0.622456 0.154415
H40   H     H_    0.761706 0.133645 0.504207 0.121397
H41   H     H_    0.880852 0.137054 0.566361 0.177802
N18   N     N_3   0.517787 0.147106 0.711631 -0.205478
H42   H     H_    0.484844 0.193938 0.693044 0.115015
H43   H     H_    0.463227 0.090209 0.719616 0.105285
O4    O     O_3   0.530197 0.802903 0.267216 -0.634345
C64   C     C_3   0.622112 0.856204 0.260545 -0.327052
H44   H     H_    0.688022 0.852654 0.306525 0.169063
H45   H     H_    0.638865 0.939948 0.273425 0.128199
H46   H     H_    0.613279 0.814537 0.190714 0.176780
O5    O     O_3   0.234918 0.112129 0.299700 -0.587754
C65   C     C_3   0.213632 0.034729 0.332548 -0.254965
H47   H     H_    0.213911 0.960454 0.290187 0.113874
H48   H     H_    0.138285 0.015912 0.337363 0.146756
H49   H     H_    0.274301 0.067614 0.401616 0.169823
O6    O     O_3   0.326738 0.667154 0.966214 -0.660162
C66   C     C_3   0.408184 0.765520 0.034707 -0.226775
H50   H     H_    0.479820 0.778342 0.024270 0.129212
H51   H     H_    0.423752 0.774422 0.104643 0.189615
H52   H     H_    0.388756 0.829948 0.028156 0.195489
N19   N     N_3   0.327204 0.451532 0.133532 -0.215689
H53   H     H_    0.293328 0.369336 0.094959 0.107859
H54   H     H_    0.299077 0.467775 0.182859 0.109590
N20   N     N_3   0.309165 0.642707 0.305728 -0.218977
H55   H     H_    0.377970 0.643387 0.303184 0.133269
H56   H     H_    0.327281 0.692119 0.372360 0.108255

loop_
_geom_bond_atom_site_label_1
_geom_bond_atom_site_label_2
_ccdc_geom_bond_type
C9    O1    S    
C66   H52   S    
C26   H12   S    
N1    N15   A    
C20   H7    S    
C3    C23   A    
C19   C20   A    
C18   C26   S    
C2    C12   A    
C61   H32   S    
N2    N8    A    
C39   C41   A    
C53   C54   A    
C48   H21   S    
N9    Ni2   S    
C59   N15   A    
C47   N18   S    
C18   C24   A    
C36   C37   A    
N19   H54   S    
N10   Ni3   S    
C62   H35   S    
C11   C14   A    
N16   Ni1   S    
C49   C54   A    
C29   C33   A    
C26   H13   S    
C49   C57   S    
C57   H26   S    
C18   C19   A    
C13   N8    A    
C52   H24   S    
C12   N9    A    
N15   Ni3   S    
N19   H53   S    
C14   C39   S    
C4    C19   S    
N2    Ni2   S    
C15   C22   S    
C34   O6    S    
O1    C61   S    
C3    C38   S    
O4    C64   S    
C42   H22   S    
C63   H41   S    
C40   H20   S    
N12   Ni2   S    
C25   H11   S    
C5    C14   A    
C43   C48   A    
C9    N5    A    
C5    N16   A    
C16   C27   S    
C23   N10   A    
C6    C15   A    
C59   C60   A    
C1    N1    A    
N8    Ni3   S    
C21   C22   A    
C4    C56   A    
C30   H17   S    
C46   O3    S    
C61   H31   S    
C44   C46   A    
C39   C42   A    
C13   H6    S    
C7    N3    A    
C4    C34   A    
C34   N11   A    
C38   C46   A    
C51   C52   A    
C47   C48   A    
N1    Ni1   S    
C35   N17   S    
C45   H28   S    
C8    N4    A    
C24   C25   S    
C65   H47   S    
C1    C60   A    
C27   C35   A    
N11   Ni4   S    
C3    C45   A    
C5    N20   S    
C57   H27   S    
C59   H30   S    
C55   H25   S    
C43   C44   A    
C29   C30   A    
C64   H46   S    
C31   C32   A    
C10   N6    A    
N10   N12   A    
C50   C51   A    
C38   C47   A    
C32   C37   A    
C11   O2    S    
C7    H3    S    
N17   H37   S    
C36   H14   S    
C8    H4    S    
C29   H15   S    
N7    N16   A    
C9    C17   A    
C40   C41   A    
N6    Ni1   S    
N3    N6    A    
C55   C57   S    
C21   H8    S    
C64   H44   S    
C22   C24   A    
C62   H36   S    
C58   N14   A    
C42   C43   A    
C51   H23   S    
C52   C53   A    
C31   H18   S    
C63   H40   S    
N18   H42   S    
C10   H5    S    
C66   H51   S    
C12   H10   S    
C54   C55   S    
C7    C16   A    
O6    C66   S    
C45   N12   A    
C37   H16   S    
C28   C31   A    
C56   N13   A    
C65   H49   S    
C1    H1    S    
C41   O4    S    
N13   Ni1   S    
C2    C58   A    
C65   H48   S    
C27   C36   A    
O5    C65   S    
C8    C17   A    
C55   O5    S    
C11   N7    A    
C50   C60   S    
C32   C33   A    
C6    H2    S    
C56   N19   S    
C13   C15   A    
C25   C26   S    
C10   C16   A    
C62   H34   S    
N14   Ni4   S    
N7    Ni4   S    
C63   H39   S    
C6    N2    A    
C28   C30   A    
C33   C35   A    
N4    Ni4   S    
O2    C62   S    
N9    N14   A    
N20   H56   S    
N4    N5    A    
C58   H29   S    
N17   H38   S    
N5    Ni2   S    
C40   C44   A    
C25   H9    S    
C20   C21   A    
N11   N13   A    
C49   C50   A    
C64   H45   S    
N20   H55   S    
C2    C28   S    
C23   H19   S    
C61   H33   S    
C66   H50   S    
N3    Ni3   S    
O3    C63   S    
N18   H43   S    
