data_mof_unit_17799.cif
_audit_creation_date              2012-10-26T19:58:15-0400
_audit_creation_method            fapswitch 2.2
_symmetry_space_group_name_H-M    P1
_symmetry_Int_Tables_number       1
_space_group_crystal_system       triclinic
_cell_length_a                    7.429563
_cell_length_b                    8.694381
_cell_length_c                    13.408227
_cell_angle_alpha                 94.034377
_cell_angle_beta                  77.331274
_cell_angle_gamma                 103.131102
_cell_volume                      822.737312831

loop_
_atom_site_label
_atom_site_type_symbol
_atom_type_description
_atom_site_fract_x
_atom_site_fract_y
_atom_site_fract_z
_atom_type_partial_charge
C1    C     C_R   0.545269 0.800198 0.503106 0.538579
C2    C     C_R   0.335934 0.493035 0.807167 -0.004108
C3    C     C_2   0.570774 0.968053 0.504679 -0.150964
C4    C     C_R   0.399081 0.497055 0.694633 0.559912
C5    C     C_2   0.429046 0.031938 0.495652 -0.149942
C6    C     C_R   0.454642 0.199803 0.497054 0.555087
C7    C     C_R   0.601763 0.511048 0.305875 0.538786
C8    C     C_R   0.879200 0.677242 0.052960 -0.133605
C9    C     C_R   0.662814 0.536460 0.195672 -0.008733
C10   C     C_R   0.150612 0.413314 0.850042 0.365170
C11   C     C_R   0.097943 0.383469 0.953872 -0.096764
C12   C     C_R   0.417543 0.505369 0.975893 0.018755
C13   C     C_R   0.229394 0.425476 0.015920 -0.188927
C14   C     C_R   0.465211 0.551826 0.872340 -0.021871
C15   C     C_R   0.559222 0.542846 0.035617 0.046227
C16   C     C_R   0.739040 0.638285 0.994495 0.057294
C17   C     C_R   0.775314 0.697555 0.896619 -0.097755
C18   C     C_R   0.639781 0.657323 0.837129 -0.089862
C19   C     C_R   0.527844 0.488303 0.135253 -0.127894
C20   C     C_R   0.840848 0.627419 0.153476 -0.145278
Cu1   Cu    Cu3+1 0.321300 0.483160 0.488710 0.995908
Cu2   Cu    Cu3+1 0.678700 0.516840 0.511290 0.974279
F1    F     F_    0.020915 0.359236 0.791335 -0.617424
H1    H     H_    0.946798 0.665769 0.199326 0.133600
H2    H     H_    0.672590 0.713832 0.764153 0.139714
H3    H     H_    0.707379 0.039419 0.513227 0.142592
H4    H     H_    0.292429 0.960566 0.487128 0.134116
H5    H     H_    0.010843 0.617574 0.579369 0.246019
H6    H     H_    0.989075 0.382345 0.420703 0.233551
H7    H     H_    0.909143 0.776006 0.865862 0.114704
H8    H     H_    0.016719 0.749982 0.021795 0.116144
H9    H     H_    0.397249 0.410269 0.169114 0.117416
H10   H     H_    0.177232 0.397236 0.095448 0.111984
H11   H     H_    0.954630 0.323181 0.986335 0.150311
N1    N     N_2   0.947230 0.542220 0.528320 -0.240712
N2    N     N_2   0.052770 0.457780 0.471680 -0.249557
O1    O     O_R   0.383920 0.714220 0.492660 -0.513710
O2    O     O_R   0.685730 0.742660 0.511730 -0.507925
O3    O     O_R   0.275440 0.478800 0.636790 -0.431728
O4    O     O_R   0.577250 0.507240 0.655860 -0.501974
O5    O     O_R   0.314270 0.257340 0.488270 -0.490325
O6    O     O_R   0.616080 0.285780 0.507340 -0.499089
O7    O     O_R   0.422750 0.492760 0.344140 -0.509628
O8    O     O_R   0.724560 0.521200 0.363210 -0.512375

loop_
_geom_bond_atom_site_label_1
_geom_bond_atom_site_label_2
_ccdc_geom_bond_type
C2    C4    S    
C4    O3    A    
C13   H10   S    
C17   H7    S    
C7    O7    A    
C10   F1    S    
C14   C18   A    
C9    C20   A    
N1    N2    D    
Cu1   O3    S    
C12   C15   A    
C1    O1    A    
Cu2   O4    S    
C17   C18   A    
C8    C16   A    
Cu1   N2    S    
C8    C20   A    
C7    O8    A    
C15   C19   A    
Cu2   N1    S    
C11   C13   A    
H6    N2    S    
Cu2   O6    S    
C18   H2    S    
C1    O2    A    
Cu1   O5    S    
C19   H9    S    
Cu1   Cu2   S    
C12   C14   A    
C11   H11   S    
C5    C6    S    
C2    C14   A    
Cu1   O7    S    
C10   C11   A    
C15   C16   A    
C2    C10   A    
C4    O4    A    
Cu1   O1    S    
C12   C13   A    
C6    O6    A    
C7    C9    S    
C3    C5    D    
C5    H4    S    
C8    H8    S    
C9    C19   A    
C3    H3    S    
Cu2   O8    S    
C20   H1    S    
H5    N1    S    
C16   C17   A    
C1    C3    S    
C6    O5    A    
Cu2   O2    S    
