data_mof_unit_17889.cif
_audit_creation_date              2012-12-11T16:31:35-0500
_audit_creation_method            fapswitch 2.2
_symmetry_space_group_name_H-M    P1
_symmetry_Int_Tables_number       1
_space_group_crystal_system       triclinic
_cell_length_a                    7.037243
_cell_length_b                    18.222535
_cell_length_c                    20.187672
_cell_angle_alpha                 68.236584
_cell_angle_beta                  90.42997
_cell_angle_gamma                 90.587785
_cell_volume                      2404.12678903

loop_
_atom_site_label
_atom_site_type_symbol
_atom_type_description
_atom_site_fract_x
_atom_site_fract_y
_atom_site_fract_z
_atom_type_partial_charge
O1    O     O_R   0.488990 0.443920 0.942160 -0.540295
O2    O     O_R   0.823840 0.406530 0.087600 -0.536810
O3    O     O_R   0.999650 0.556080 0.057840 -0.536121
C1    C     C_R   0.655231 0.383699 0.114787 0.690260
O4    O     O_R   0.818390 0.434590 0.944530 -0.537564
O5    O     O_R   0.994160 0.584350 0.913750 -0.537058
C2    C     C_R   0.649231 0.420563 0.924270 0.713311
O6    O     O_R   0.494480 0.415650 0.086250 -0.535982
O7    O     O_3   0.662600 0.549100 0.990070 -0.363911
V1    V     V_3+5 0.935320 0.490890 0.001840 1.443611
O8    O     O_R   0.324240 0.593470 0.912400 -0.537332
C3    C     C_R   0.155439 0.616350 0.885247 0.686224
O9    O     O_R   0.329690 0.565410 0.055470 -0.525107
C4    C     C_R   0.161714 0.579529 0.075534 0.709605
V2    V     V_3+5 0.435990 0.509110 0.998160 1.460289
O10   O     O_3   0.158840 0.450900 0.009930 -0.371950
C5    C     C_3   0.009136 0.671115 0.269997 -0.464669
C6    C     C_3   0.350998 0.708783 0.241253 0.213110
C7    C     C_3   0.320750 0.737676 0.306409 0.247539
H1    H     H_    0.962051 0.698557 0.365459 0.213036
H2    H     H_    0.070882 0.615747 0.308855 0.135837
H3    H     H_    0.401324 0.646582 0.264485 0.078978
H4    H     H_    0.280368 0.681036 0.349873 0.101746
C8    C     C_1   0.113508 0.875047 0.378818 -0.044592
C9    C     C_3   0.149262 0.709058 0.206745 0.034923
C10   C     C_3   0.974331 0.731368 0.307023 -0.301167
C11   C     C_3   0.140944 0.791649 0.292797 -0.111303
C12   C     C_3   0.139033 0.847006 0.211671 0.260154
C13   C     C_3   0.083850 0.796853 0.166400 -0.314744
C14   C     C_1   0.125751 0.837270 0.340543 0.261049
C15   C     C_1   0.149593 0.663249 0.159088 0.124264
C16   C     C_1   0.154368 0.625401 0.120704 -0.136976
H5    H     H_    0.136088 0.825101 0.111292 0.188922
H6    H     H_    0.874753 0.650176 0.255658 0.262080
H7    H     H_    0.844110 0.763708 0.284820 0.329415
H8    H     H_    0.285970 0.868739 0.197480 0.140593
H9    H     H_    0.417308 0.543601 0.693854 0.113366
C17   C     C_R   0.998251 0.766379 0.875725 -0.119463
C18   C     C_R   0.919520 0.837356 0.872816 -0.097113
C19   C     C_R   0.906020 0.900686 0.808098 -0.129080
C20   C     C_R   0.971389 0.893556 0.745805 -0.144071
C21   C     C_R   0.050403 0.821949 0.746865 0.069056
C22   C     C_R   0.063920 0.756968 0.813231 0.063092
C23   C     C_R   0.119002 0.814973 0.683536 -0.178769
C24   C     C_R   0.200631 0.742855 0.686645 0.064091
C25   C     C_R   0.213990 0.677871 0.753020 0.069497
C26   C     C_R   0.145622 0.684896 0.816327 -0.179471
C27   C     C_R   0.266249 0.733339 0.624186 -0.128815
C28   C     C_R   0.344399 0.662202 0.627188 -0.108672
C29   C     C_R   0.357585 0.598899 0.691900 -0.131285
C30   C     C_R   0.292519 0.606164 0.754140 -0.141681
H10   H     H_    0.008409 0.719433 0.927610 0.112161
H11   H     H_    0.869904 0.843391 0.921167 0.143262
H12   H     H_    0.845793 0.955887 0.806177 0.114279
H13   H     H_    0.960295 0.945053 0.697112 0.112168
H14   H     H_    0.256364 0.780283 0.572285 0.115672
H15   H     H_    0.393774 0.655876 0.578976 0.156727
H16   H     H_    0.303347 0.554656 0.802835 0.110797
H17   H     H_    0.743258 0.474587 0.313136 0.127997
C31   C     C_R   0.594612 0.223973 0.120648 -0.145534
C32   C     C_R   0.565046 0.147816 0.121666 -0.099440
C33   C     C_R   0.553376 0.084096 0.186251 0.058824
C34   C     C_R   0.570979 0.095968 0.250375 -0.104144
C35   C     C_R   0.601268 0.172588 0.251072 0.035668
C36   C     C_R   0.613449 0.237903 0.184835 0.070991
C37   C     C_R   0.620699 0.184665 0.316286 -0.169183
C38   C     C_R   0.653615 0.261988 0.315204 0.072334
C39   C     C_R   0.665987 0.327276 0.248966 0.062282
C40   C     C_R   0.645294 0.315274 0.183779 -0.168372
C41   C     C_R   0.674082 0.275875 0.379358 -0.133503
C42   C     C_R   0.706193 0.351921 0.378283 -0.118997
C43   C     C_R   0.718374 0.415629 0.313665 -0.114472
C44   C     C_R   0.698439 0.403795 0.249599 -0.143771
H18   H     H_    0.603247 0.271634 0.069081 0.096181
H19   H     H_    0.551321 0.138192 0.072043 0.127749
H20   H     H_    0.530478 0.025096 0.186662 0.186011
H21   H     H_    0.665274 0.228247 0.430940 0.090057
H22   H     H_    0.721550 0.361452 0.427898 0.116075
H23   H     H_    0.708753 0.455231 0.200714 0.113008
O11   O     O_R   0.770890 0.084490 0.414040 -0.531099
O12   O     O_R   0.445980 0.065450 0.555510 -0.538560
O13   O     O_R   0.270670 0.915620 0.586180 -0.537507
C45   C     C_R   0.614944 0.079472 0.575957 0.711978
O14   O     O_R   0.441480 0.093500 0.412450 -0.537065
O15   O     O_R   0.266140 0.943870 0.442100 -0.532641
C46   C     C_R   0.610220 0.116288 0.385311 0.694888
O16   O     O_R   0.775410 0.056240 0.558120 -0.541304
O17   O     O_3   0.602660 0.950990 0.510100 -0.368352
V3    V     V_3+5 0.329740 0.009100 0.498130 1.448475
O18   O     O_R   0.936120 0.934420 0.444240 -0.528277
C47   C     C_R   0.104305 0.920634 0.424104 0.708970
O19   O     O_R   0.940610 0.906370 0.587310 -0.540261
C48   C     C_R   0.109337 0.883554 0.614600 0.680759
V4    V     V_3+5 0.829110 0.990690 0.501470 1.461632
O20   O     O_3   0.106080 0.049010 0.489880 -0.372193
C49   C     C_3   0.823754 0.251939 0.703423 -0.329150
C50   C     C_3   0.471323 0.271910 0.686305 -0.322606
C51   C     C_3   0.473159 0.319890 0.736048 -0.327735
H24   H     H_    0.853734 0.363348 0.720986 0.143374
H25   H     H_    0.850944 0.292546 0.647529 0.141955
H26   H     H_    0.330150 0.242730 0.689407 0.137205
H27   H     H_    0.491351 0.312926 0.630064 0.143253
H28   H     H_    0.494167 0.383755 0.703514 0.139987
H29   H     H_    0.332883 0.313559 0.762804 0.137525
C52   C     C_1   0.639930 0.374759 0.878868 -0.183818
C53   C     C_3   0.630274 0.208820 0.707730 0.281458
C54   C     C_3   0.825564 0.299897 0.753183 -0.326347
C55   C     C_3   0.633357 0.290851 0.792835 0.280419
C56   C     C_3   0.599371 0.201626 0.836300 -0.320577
C57   C     C_3   0.597673 0.153648 0.786536 -0.322503
C58   C     C_1   0.635681 0.336875 0.840384 -0.096594
C59   C     C_1   0.627947 0.162863 0.660117 -0.099818
C60   C     C_1   0.623822 0.125108 0.621517 -0.186053
H30   H     H_    0.710426 0.107946 0.803836 0.140638
H31   H     H_    0.712877 0.178760 0.877329 0.149628
H32   H     H_    0.940899 0.208145 0.719102 0.136542
H33   H     H_    0.943646 0.278939 0.792529 0.138153
H34   H     H_    0.561069 0.044476 0.299234 0.129909
S1    S     S_3+6 0.522832 0.760820 0.172129 -0.041022
O21   O     O_2   0.666789 0.702840 0.168342 -0.359581
O22   O     O_2   0.438187 0.794169 0.098566 -0.363433
O23   O     O_3   0.626238 0.835150 0.189151 -0.464772
H35   H     H_    0.594141 0.883841 0.148121 0.387916
H36   H     H_    0.459051 0.122121 0.791566 0.143432
H37   H     H_    0.461529 0.192995 0.864981 0.142924
S2    S     S_3+6 0.506467 0.753514 0.360319 -0.040818
O24   O     O_2   0.635596 0.683789 0.380057 -0.377636
O25   O     O_2   0.608481 0.830345 0.323824 -0.300137
O26   O     O_3   0.415363 0.753864 0.436988 -0.541613
H38   H     H_    0.523624 0.767718 0.461896 0.350799
H39   H     H_    0.929095 0.797684 0.158687 0.270935
S3    S     S_3+6 0.007511 0.938028 0.186322 -0.007811
O27   O     O_2   0.844988 0.931422 0.235729 -0.281387
O28   O     O_2   0.138276 0.002582 0.189028 -0.358954
O29   O     O_3   0.923394 0.963238 0.102664 -0.499987
H40   H     H_    0.037592 0.976496 0.071945 0.331984

loop_
_geom_bond_atom_site_label_1
_geom_bond_atom_site_label_2
_ccdc_geom_bond_type
C9    C15   S    
C45   O16   A    
S2    O24   D    
C20   C21   A    
C45   C60   S    
O2    C1    A    
C5    H6    S    
C1    O6    A    
C50   C51   S    
O15   C47   A    
C28   H15   S    
O29   H40   S    
C53   C59   S    
C24   C25   A    
C32   H19   S    
C18   H11   S    
C10   C11   S    
O13   V3    S    
C5    C10   S    
C12   C13   S    
O14   C46   A    
O5    C3    A    
C17   C18   A    
C51   H29   S    
C24   C27   A    
C17   H10   S    
V2    O10   S    
O16   V4    S    
C13   H5    S    
C51   C55   S    
C55   C56   S    
C6    C7    S    
C1    C40   S    
O11   C46   A    
C23   C48   S    
C57   H36   S    
O8    V2    S    
C20   H13   S    
C39   C40   A    
C54   C55   S    
C2    C52   S    
C41   C42   A    
O1    V2    S    
C7    C11   S    
O7    V1    S    
C57   H30   S    
C50   H27   S    
H17   C43   S    
O12   V3    S    
C37   C38   A    
C52   C58   T    
O13   C48   A    
C6    H3    S    
O9    C4    A    
C41   H21   S    
C33   H20   S    
V4    O20   S    
C6    C9    S    
C21   C23   A    
C3    C26   S    
C59   C60   T    
O12   C45   A    
O18   V4    S    
S1    O22   D    
C9    C13   S    
O17   V4    S    
C38   C39   A    
C18   C19   A    
O4    C2    A    
C34   H34   S    
O15   V3    S    
S3    O27   D    
S2    O26   S    
C39   C44   A    
C25   C30   A    
C5    H2    S    
C31   C32   A    
C12   S3    S    
C35   C37   A    
V3    O20   S    
C7    H4    S    
O5    V1    S    
C33   C34   A    
C15   C16   T    
S1    O21   D    
O19   V4    S    
C29   C30   A    
C44   H23   S    
C30   H16   S    
O3    C4    A    
C50   C53   S    
C56   H37   S    
C19   C20   A    
C49   C54   S    
C31   C36   A    
O6    V2    S    
C19   H12   S    
O9    V2    S    
O14   V3    S    
O11   V4    S    
O2    V1    S    
C8    C47   S    
C23   C24   A    
O26   H38   S    
C53   C57   S    
S1    O23   S    
C27   H14   S    
C49   C53   S    
C25   C26   A    
C27   C28   A    
S2    O25   D    
O1    C2    A    
C4    C16   S    
C43   C44   A    
C37   C46   S    
O8    C3    A    
H24   C54   S    
C7    S2    S    
C55   C58   S    
C38   C41   A    
C5    C9    S    
C35   C36   A    
O7    V2    S    
C17   C22   A    
O3    V1    S    
V1    O10   S    
C56   C57   S    
H9    C29   S    
O18   C47   A    
C13   H39   S    
H1    C10   S    
S3    O29   S    
C36   C40   A    
C49   H25   S    
C31   H18   S    
O19   C48   A    
C32   C33   A    
C8    C14   T    
C56   H31   S    
C34   C35   A    
C10   H7    S    
O4    V1    S    
C42   C43   A    
O17   V3    S    
C12   H8    S    
S3    O28   D    
C28   C29   A    
C21   C22   A    
C11   C12   S    
C49   H32   S    
O23   H35   S    
C22   C26   A    
C6    S1    S    
C54   H33   S    
C42   H22   S    
C50   H26   S    
C51   H28   S    
C11   C14   S    
