data_mof_unit_26083.cif
_audit_creation_date              2012-12-11T16:27:24-0500
_audit_creation_method            fapswitch 2.2
_symmetry_space_group_name_H-M    P1
_symmetry_Int_Tables_number       1
_space_group_crystal_system       triclinic
_cell_length_a                    21.648398
_cell_length_b                    6.913254
_cell_length_c                    14.732264
_cell_angle_alpha                 89.979369
_cell_angle_beta                  105.421001
_cell_angle_gamma                 90.086728
_cell_volume                      2125.46230181

loop_
_atom_site_label
_atom_site_type_symbol
_atom_type_description
_atom_site_fract_x
_atom_site_fract_y
_atom_site_fract_z
_atom_type_partial_charge
O1    O     O_R   0.835850 0.638310 0.002120 -0.537524
O2    O     O_R   0.164150 0.361690 0.997880 -0.537524
O3    O     O_R   0.664150 0.138310 0.997880 -0.538005
O4    O     O_R   0.335850 0.861690 0.002120 -0.538005
O5    O     O_R   0.717530 0.306070 0.861970 -0.541469
O6    O     O_R   0.282470 0.693930 0.138030 -0.541469
O7    O     O_R   0.782470 0.806070 0.138030 -0.541126
O8    O     O_R   0.217530 0.193930 0.861970 -0.541126
C1    C     C_R   0.705076 0.476843 0.824396 0.710862
C2    C     C_R   0.294924 0.523157 0.175604 0.710862
C3    C     C_R   0.794884 0.976906 0.175606 0.711937
C4    C     C_R   0.205116 0.023094 0.824393 0.711937
O9    O     O_R   0.838690 0.308440 0.993250 -0.540381
O10   O     O_R   0.161310 0.691560 0.006750 -0.540381
O11   O     O_R   0.661310 0.808440 0.006750 -0.541334
O12   O     O_R   0.338690 0.191560 0.993250 -0.541334
O13   O     O_R   0.786170 0.140510 0.130090 -0.536928
O14   O     O_R   0.213830 0.859490 0.869910 -0.536928
O15   O     O_R   0.713830 0.640510 0.869910 -0.536026
O16   O     O_R   0.286170 0.359490 0.130090 -0.536026
C5    C     C_R   0.865332 0.477434 0.998284 0.694679
C6    C     C_R   0.134668 0.522566 0.001716 0.694679
C7    C     C_R   0.634657 0.977126 0.001751 0.692790
C8    C     C_R   0.365343 0.022874 0.998249 0.692790
O17   O     O_3   0.732630 0.472520 0.044740 -0.367513
O18   O     O_3   0.267370 0.527480 0.955260 -0.367513
O19   O     O_3   0.767370 0.972520 0.955260 -0.366942
O20   O     O_3   0.232630 0.027480 0.044740 -0.366942
V1    V     V_3+5 0.753220 0.196740 0.991700 1.448528
V2    V     V_3+5 0.246780 0.803260 0.008300 1.448528
V3    V     V_3+5 0.746780 0.696740 0.008300 1.448292
V4    V     V_3+5 0.253220 0.303260 0.991700 1.448292
H1    H     H_    0.609237 0.832510 0.316224 0.160715
H2    H     H_    0.390763 0.167490 0.683776 0.160715
H3    H     H_    0.885832 0.515070 0.674881 0.164489
H4    H     H_    0.114168 0.484930 0.325119 0.164489
C9    C     C_R   0.536494 0.070457 0.831889 -0.153594
C10   C     C_R   0.463506 0.929543 0.168111 -0.153594
C11   C     C_R   0.965953 0.476180 0.172585 -0.154923
C12   C     C_R   0.034047 0.523820 0.827415 -0.154923
C13   C     C_R   0.490464 0.116952 0.748973 -0.129955
C14   C     C_R   0.509536 0.883048 0.251027 -0.129955
C15   C     C_R   0.013291 0.475936 0.257841 -0.129587
C16   C     C_R   0.986708 0.524064 0.742159 -0.129586
C17   C     C_R   0.426336 0.131336 0.748406 -0.108483
C18   C     C_R   0.573664 0.868664 0.251594 -0.108483
C19   C     C_R   0.077589 0.486106 0.258702 -0.110325
C20   C     C_R   0.922411 0.513893 0.741298 -0.110325
C21   C     C_R   0.407727 0.098359 0.830696 -0.134798
C22   C     C_R   0.592273 0.901641 0.169304 -0.134798
C23   C     C_R   0.095010 0.497530 0.174291 -0.129728
C24   C     C_R   0.904990 0.502470 0.825708 -0.129728
C25   C     C_R   0.453298 0.050374 0.915938 0.068339
C26   C     C_R   0.546702 0.949626 0.084062 0.068339
C27   C     C_R   0.048089 0.499387 0.086726 0.067943
C28   C     C_R   0.951911 0.500613 0.913274 0.067943
C29   C     C_R   0.519091 0.036767 0.916666 0.065378
C30   C     C_R   0.480909 0.963233 0.083334 0.065378
C31   C     C_R   0.982206 0.487784 0.085790 0.063757
C32   C     C_R   0.017794 0.512216 0.914210 0.063757
C33   C     C_R   0.434151 0.013123 0.999195 -0.181838
C34   C     C_R   0.565849 0.986877 0.000805 -0.181838
C35   C     C_R   0.065908 0.512090 0.000980 -0.179629
C36   C     C_R   0.934091 0.487910 0.999020 -0.179629
H5    H     H_    0.585672 0.059722 0.828426 0.117340
H6    H     H_    0.414328 0.940278 0.171574 0.117339
H7    H     H_    0.916606 0.467132 0.175532 0.113108
H8    H     H_    0.083394 0.532868 0.824468 0.113109
H9    H     H_    0.504659 0.141423 0.684767 0.139910
H10   H     H_    0.495341 0.858577 0.315233 0.139910
H11   H     H_    0.000002 0.467087 0.323576 0.139574
H12   H     H_    0.999998 0.532913 0.676424 0.139574
H13   H     H_    0.357283 0.110009 0.826645 0.095763
H14   H     H_    0.642717 0.889991 0.173355 0.095763
H15   H     H_    0.145529 0.504658 0.178213 0.087858
H16   H     H_    0.854471 0.495342 0.821787 0.087858
C37   C     C_R   0.177213 0.017070 0.722390 -0.109430
C38   C     C_R   0.822787 0.982930 0.277610 -0.109430
C39   C     C_R   0.322823 0.517296 0.277624 -0.107952
C40   C     C_R   0.677176 0.482704 0.722376 -0.107952
C41   C     C_R   0.188781 0.056086 0.564651 0.478237
C42   C     C_R   0.811219 0.943913 0.435349 0.478237
C43   C     C_R   0.311389 0.558826 0.435282 0.478235
C44   C     C_R   0.688611 0.441174 0.564718 0.478235
C45   C     C_R   0.215714 0.048451 0.661616 -0.164435
C46   C     C_R   0.784286 0.951549 0.338384 -0.164435
C47   C     C_R   0.284411 0.549662 0.338387 -0.165720
C48   C     C_R   0.715589 0.450338 0.661613 -0.165720
C49   C     C_R   0.111082 0.994999 0.686570 -0.222013
C50   C     C_R   0.888918 0.005000 0.313430 -0.222013
C51   C     C_R   0.388897 0.494409 0.313484 -0.225426
C52   C     C_R   0.611103 0.505591 0.686516 -0.225426
C53   C     C_R   0.081478 0.007336 0.588585 0.034168
C54   C     C_R   0.918522 0.992664 0.411415 0.034168
C55   C     C_R   0.418507 0.506636 0.411483 0.033536
C56   C     C_R   0.581493 0.493364 0.588517 0.033536
C57   C     C_R   0.121723 0.036059 0.527362 0.044804
C58   C     C_R   0.878277 0.963940 0.472638 0.044804
C59   C     C_R   0.378466 0.540362 0.472508 0.047896
C60   C     C_R   0.621534 0.459638 0.527492 0.047896
C61   C     C_R   0.013405 0.993956 0.549822 0.084809
C62   C     C_R   0.986595 0.006044 0.450178 0.084809
C63   C     C_R   0.486459 0.489919 0.450368 0.085054
C64   C     C_R   0.513541 0.510081 0.549632 0.085054
C65   C     C_R   0.028773 0.029746 0.392502 -0.219444
C66   C     C_R   0.971226 0.970254 0.607498 -0.219444
C67   C     C_R   0.471768 0.545874 0.606804 -0.223216
C68   C     C_R   0.528232 0.454125 0.393196 -0.223216
C69   C     C_R   0.094411 0.045318 0.430244 -0.133459
C70   C     C_R   0.905589 0.954682 0.569756 -0.133459
C71   C     C_R   0.406069 0.558600 0.569234 -0.135599
C72   C     C_R   0.593930 0.441400 0.430766 -0.135599
H17   H     H_    0.123624 0.065118 0.381673 0.186178
H18   H     H_    0.876376 0.934882 0.618327 0.186178
H19   H     H_    0.377109 0.585563 0.617502 0.186585
H20   H     H_    0.622891 0.414437 0.382497 0.186585
H21   H     H_    0.915576 0.027765 0.262209 0.114362
H22   H     H_    0.084424 0.972235 0.737791 0.114362
H23   H     H_    0.584389 0.526432 0.737791 0.115065
H24   H     H_    0.415611 0.473567 0.262209 0.115065
H25   H     H_    0.733115 0.932320 0.310334 0.130955
H26   H     H_    0.266885 0.067680 0.689666 0.130955
H27   H     H_    0.766682 0.430330 0.689596 0.130716
H28   H     H_    0.233318 0.569670 0.310404 0.130716
H29   H     H_    0.012922 0.037383 0.316951 0.137326
H30   H     H_    0.987078 0.962617 0.683048 0.137326
H31   H     H_    0.488006 0.565553 0.681810 0.136878
H32   H     H_    0.511993 0.434447 0.318190 0.136878
Cl1   Cl    Cl    0.241315 0.095027 0.493024 -0.624471
Cl2   Cl    Cl    0.758685 0.904973 0.506976 -0.624471
Cl3   Cl    Cl    0.258836 0.596706 0.506909 -0.624794
Cl4   Cl    Cl    0.741164 0.403294 0.493091 -0.624794

loop_
_geom_bond_atom_site_label_1
_geom_bond_atom_site_label_2
_ccdc_geom_bond_type
O17   V3    S    
C43   C47   A    
O1    C5    A    
C61   C62   A    
C12   C32   A    
C27   C31   A    
O19   V1    S    
O13   V1    S    
O3    C7    A    
C52   C56   A    
O15   V3    S    
C39   C47   A    
C29   C34   A    
C38   C50   A    
O7    C3    A    
C37   C49   A    
C31   C36   A    
C8    C33   S    
C62   C65   A    
C32   C35   A    
C58   C70   A    
O9    V1    S    
C52   H23   S    
C23   H15   S    
C10   C14   A    
C22   H14   S    
C26   C30   A    
C47   H28   S    
O4    C8    A    
C55   C59   A    
C54   C58   A    
O1    V3    S    
H4    C19   S    
O2    V4    S    
C14   C18   A    
O3    V1    S    
C5    C36   S    
C6    C35   S    
C10   C30   A    
C25   C33   A    
C1    O15   A    
C7    C34   S    
C10   H6    S    
C2    O16   A    
C27   C35   A    
O2    C6    A    
C28   C36   A    
C63   C68   A    
O14   V2    S    
C42   Cl2   S    
C70   H18   S    
C12   C16   A    
C39   C51   A    
C69   H17   S    
C38   C46   A    
C30   C33   A    
O11   C7    A    
C11   C31   A    
O12   C8    A    
C43   C59   A    
C9    C13   A    
H1    C18   S    
C42   C58   A    
C67   C71   A    
O10   V2    S    
C48   H27   S    
H3    C20   S    
C55   C63   A    
C18   C22   A    
C50   C54   A    
O5    V1    S    
O17   V1    S    
O7    V3    S    
O19   V3    S    
O8    V4    S    
C50   H21   S    
O20   V4    S    
C53   C61   A    
C25   C29   A    
O18   V4    S    
C19   C23   A    
C26   C34   A    
C42   C46   A    
C51   C55   A    
C44   Cl4   S    
O4    V2    S    
C68   C72   A    
C9    H5    S    
C1    C40   S    
C44   C60   A    
C40   C52   A    
C14   H10   S    
C43   Cl3   S    
C3    C38   S    
C57   C69   A    
C41   Cl1   S    
C17   C21   A    
O8    C4    A    
C59   C71   A    
C4    C37   S    
C46   H25   S    
O9    C5    A    
C45   H26   S    
H2    C17   S    
C22   C26   A    
C68   H32   S    
O6    V2    S    
C60   C72   A    
C56   C64   A    
C21   H13   S    
C53   C57   A    
C72   H20   S    
C13   H9    S    
O16   V4    S    
C61   C66   A    
C65   C69   A    
C3    O13   A    
C15   H11   S    
C11   H7    S    
C44   C48   A    
O5    C1    A    
C24   H16   S    
O6    C2    A    
C11   C15   A    
C2    C39   S    
O11   V3    S    
O12   V4    S    
C66   H30   S    
C65   H29   S    
O10   C6    A    
O20   V2    S    
C67   H31   S    
C40   C48   A    
C16   C20   A    
C41   C57   A    
C21   C25   A    
C56   C60   A    
C16   H12   S    
C23   C27   A    
C49   C53   A    
C9    C29   A    
C37   C45   A    
C28   C32   A    
C20   C24   A    
C49   H22   S    
C54   C62   A    
C66   C70   A    
C12   H8    S    
C4    O14   A    
C63   C64   A    
C13   C17   A    
C51   H24   S    
C71   H19   S    
C15   C19   A    
C64   C67   A    
C41   C45   A    
C24   C28   A    
O18   V2    S    
