data_mof_unit_6637.cif
_audit_creation_date              2012-12-11T15:12:40-0500
_audit_creation_method            fapswitch 2.2
_symmetry_space_group_name_H-M    P1
_symmetry_Int_Tables_number       1
_space_group_crystal_system       triclinic
_cell_length_a                    22.728443
_cell_length_b                    6.974534
_cell_length_c                    19.036956
_cell_angle_alpha                 90.220888
_cell_angle_beta                  99.069225
_cell_angle_gamma                 89.787343
_cell_volume                      2979.98110187

loop_
_atom_site_label
_atom_site_type_symbol
_atom_type_description
_atom_site_fract_x
_atom_site_fract_y
_atom_site_fract_z
_atom_type_partial_charge
O1    O     O_R   0.448420 0.506120 0.415750 -0.539684
O2    O     O_R   0.551580 0.006120 0.584250 -0.548887
O3    O     O_R   0.436490 0.174470 0.555610 -0.528659
O4    O     O_R   0.563510 0.674470 0.444390 -0.533335
C1    C     C_R   0.422634 0.344928 0.577414 0.775080
C2    C     C_R   0.577840 0.844045 0.423007 0.763646
O5    O     O_R   0.441310 0.176330 0.414520 -0.527551
O6    O     O_R   0.558690 0.676330 0.585480 -0.531594
O7    O     O_R   0.556430 0.007110 0.442150 -0.543428
O8    O     O_R   0.443570 0.507110 0.557850 -0.535931
C3    C     C_R   0.426913 0.345262 0.388091 0.796622
C4    C     C_R   0.572936 0.844763 0.611887 0.750536
O9    O     O_3   0.537770 0.339560 0.509230 -0.379331
O10   O     O_3   0.462230 0.839560 0.490770 -0.368198
V1    V     V_3+5 0.492990 0.064280 0.498290 1.436160
V2    V     V_3+5 0.507010 0.564280 0.501710 1.442534
C5    C     C_R   0.866559 0.931016 0.692556 0.291942
C6    C     C_R   0.133963 0.454966 0.307852 0.300218
H1    H     H_    0.783695 0.920790 0.576244 0.153354
H2    H     H_    0.214826 0.386800 0.424344 0.128198
C7    C     C_R   0.882732 0.941710 0.821519 -0.308726
C8    C     C_R   0.117153 0.442768 0.178806 -0.306861
C9    C     C_R   0.592121 0.809488 0.740850 -0.176409
C10   C     C_R   0.408567 0.380636 0.258703 -0.194045
C11   C     C_R   0.629251 0.781371 0.804995 -0.153537
C12   C     C_R   0.372447 0.414910 0.194198 -0.145205
C13   C     C_R   0.690564 0.800926 0.809775 -0.088574
C14   C     C_R   0.310870 0.421784 0.189732 -0.099461
C15   C     C_R   0.717179 0.856661 0.750599 0.086255
C16   C     C_R   0.282777 0.386159 0.249624 0.076893
C17   C     C_R   0.678980 0.869111 0.682811 -0.003336
C18   C     C_R   0.320286 0.359058 0.317175 0.035444
C19   C     C_R   0.780605 0.889336 0.755734 0.002601
C20   C     C_R   0.218881 0.394151 0.245245 -0.000017
C21   C     C_R   0.804800 0.902540 0.691232 -0.139765
C22   C     C_R   0.194870 0.407488 0.309624 -0.104223
C23   C     C_R   0.766777 0.901336 0.625738 -0.185370
C24   C     C_R   0.232218 0.378978 0.374797 -0.246357
C25   C     C_R   0.705502 0.892097 0.621048 0.268981
C26   C     C_R   0.293340 0.344394 0.378946 0.291001
C27   C     C_R   0.820506 0.916066 0.821801 0.243666
C28   C     C_R   0.177911 0.389573 0.179598 0.243267
C29   C     C_R   0.903617 0.967324 0.756739 0.353159
C30   C     C_R   0.097879 0.493832 0.242935 0.340293
C31   C     C_R   0.615761 0.849284 0.679088 -0.088395
C32   C     C_R   0.383900 0.355980 0.320818 -0.085876
H3    H     H_    0.544546 0.790207 0.738635 0.106998
H4    H     H_    0.456504 0.380763 0.260680 0.106444
H5    H     H_    0.715807 0.759492 0.859842 0.173245
H6    H     H_    0.286715 0.467549 0.139335 0.161227
H7    H     H_    0.610493 0.738360 0.851347 0.120409
H8    H     H_    0.392382 0.443066 0.147328 0.119752
C33   C     C_3   0.812235 0.771407 0.272175 0.237155
C34   C     C_3   0.192261 0.265343 0.732234 0.251242
C35   C     C_3   0.778521 0.110492 0.239783 0.072826
C36   C     C_3   0.220129 0.613415 0.760439 0.079500
C37   C     C_3   0.733648 0.093520 0.295444 0.615615
C38   C     C_3   0.266688 0.599950 0.706431 0.650044
H9    H     H_    0.779555 0.784373 0.374537 0.146217
H10   H     H_    0.221496 0.291822 0.628453 0.130426
H11   H     H_    0.821921 0.168277 0.267620 0.175650
H12   H     H_    0.176265 0.659534 0.729906 0.167077
C39   C     C_1   0.622797 0.853028 0.376717 -0.188484
C40   C     C_1   0.378591 0.356566 0.624633 -0.226034
C41   C     C_3   0.792055 0.911077 0.208804 -0.063255
C42   C     C_3   0.210396 0.413395 0.793789 -0.107231
C43   C     C_3   0.761436 0.747362 0.318226 0.092566
C44   C     C_3   0.241565 0.251672 0.683756 0.108442
C45   C     C_3   0.707513 0.882695 0.291373 -0.097754
C46   C     C_3   0.294365 0.390162 0.710361 -0.122259
C47   C     C_3   0.681472 0.823721 0.211604 0.632204
C48   C     C_3   0.321357 0.334452 0.789898 0.630049
C49   C     C_3   0.733001 0.832567 0.164048 0.169490
C50   C     C_3   0.270659 0.345856 0.838229 0.192122
C51   C     C_1   0.660494 0.864496 0.338104 0.003683
C52   C     C_1   0.341372 0.370785 0.663717 0.001224
C53   C     C_1   0.839919 0.930757 0.163264 0.049825
C54   C     C_1   0.162867 0.426729 0.840206 0.035451
C55   C     C_1   0.877535 0.942275 0.124370 -0.220807
C56   C     C_1   0.124582 0.437821 0.878296 -0.213857
H13   H     H_    0.717723 0.934254 0.119762 0.129438
H14   H     H_    0.283928 0.457870 0.879918 0.100673
H15   H     H_    0.821524 0.629931 0.248512 0.126453
H16   H     H_    0.188283 0.122926 0.757764 0.170076
O11   O     O_R   0.056480 0.288780 0.942210 -0.537071
O12   O     O_R   0.943520 0.788780 0.057790 -0.538978
O13   O     O_R   0.058700 0.616820 0.085490 -0.545527
O14   O     O_R   0.941300 0.116820 0.914510 -0.548315
C57   C     C_R   0.073107 0.448771 0.112051 0.762702
C58   C     C_R   0.926726 0.948655 0.888174 0.760737
O15   O     O_R   0.063520 0.618570 0.944410 -0.533000
O16   O     O_R   0.936480 0.118570 0.055590 -0.532316
O17   O     O_R   0.948420 0.787670 0.915740 -0.532694
O18   O     O_R   0.051580 0.287670 0.084260 -0.534713
C59   C     C_R   0.078753 0.449254 0.923793 0.699942
C60   C     C_R   0.921983 0.950516 0.077124 0.696227
O19   O     O_3   0.962260 0.453430 0.990800 -0.370107
O20   O     O_3   0.037740 0.953430 0.009200 -0.367882
V3    V     V_3+5 0.007000 0.728750 0.001710 1.422009
V4    V     V_3+5 0.993000 0.228750 0.998290 1.418225
O21   O     O_3   0.962149 0.019125 0.755298 -0.564419
C61   C     C_3   0.967486 0.221530 0.761119 0.097179
H17   H     H_    0.015486 0.254128 0.777139 0.133215
H18   H     H_    0.944614 0.283095 0.803562 0.116034
C62   C     C_3   0.944019 0.323178 0.690717 -0.346023
H19   H     H_    0.956519 0.242019 0.645081 0.237153
H20   H     H_    0.894567 0.330770 0.683402 0.195729
C63   C     C_3   0.968468 0.526331 0.690420 -0.808209
H21   H     H_    0.953383 0.611832 0.733499 0.250783
H22   H     H_    0.952332 0.594235 0.638345 0.250786
H23   H     H_    0.017916 0.524774 0.698771 0.239220
O22   O     O_3   0.039839 0.553692 0.243326 -0.565871
C64   C     C_3   0.036201 0.755295 0.234778 0.103991
H24   H     H_    0.988711 0.790695 0.215885 0.131748
H25   H     H_    0.061417 0.809396 0.193367 0.115108
C65   C     C_3   0.057496 0.861402 0.304878 -0.341524
H26   H     H_    0.044369 0.782194 0.350281 0.238451
H27   H     H_    0.106936 0.870744 0.313676 0.195013
C66   C     C_3   0.031519 0.063274 0.303258 -0.817460
H28   H     H_    0.045611 0.145481 0.259092 0.251248
H29   H     H_    0.047463 0.136026 0.354520 0.245382
H30   H     H_    0.982083 0.058822 0.295437 0.240131
O23   O     O_3   0.863214 0.847595 0.316181 -0.577203
C67   C     C_3   0.908791 0.709383 0.333805 0.071168
H31   H     H_    0.948331 0.788404 0.360001 0.168632
H32   H     H_    0.920891 0.638875 0.285487 0.136085
C68   C     C_3   0.893313 0.560237 0.386940 -0.360834
H33   H     H_    0.877335 0.634278 0.432214 0.200320
H34   H     H_    0.857768 0.464313 0.360222 0.225651
C69   C     C_3   0.947368 0.437151 0.415522 -0.765577
H35   H     H_    0.964352 0.363371 0.370979 0.256411
H36   H     H_    0.934440 0.327368 0.452305 0.231437
H37   H     H_    0.983323 0.527262 0.445017 0.236239
O24   O     O_3   0.137983 0.323696 0.689984 -0.584176
C70   C     C_3   0.097574 0.169737 0.674141 0.061228
H38   H     H_    0.054530 0.234100 0.651070 0.174120
H39   H     H_    0.090477 0.091140 0.722903 0.127269
C71   C     C_3   0.115683 0.031876 0.618307 -0.362469
H40   H     H_    0.126704 0.114900 0.572415 0.198021
H41   H     H_    0.155211 0.947833 0.642139 0.244227
C72   C     C_3   0.065737 0.891241 0.591848 -0.758877
H42   H     H_    0.054183 0.806740 0.637014 0.251005
H43   H     H_    0.080617 0.791068 0.552636 0.233010
H44   H     H_    0.025527 0.969272 0.565684 0.236909
O25   O     O_3   0.757877 0.235780 0.183880 -0.662242
H45   H     H_    0.764005 0.365934 0.204215 0.367436
O26   O     O_3   0.237027 0.750844 0.814145 -0.636675
H46   H     H_    0.200085 0.799245 0.829923 0.300818
O27   O     O_3   0.769494 0.130600 0.363194 -0.571195
C73   C     C_3   0.738246 0.167567 0.420845 0.130206
H47   H     H_    0.731454 0.030593 0.447860 0.127693
H48   H     H_    0.694147 0.236973 0.404882 0.168075
C74   C     C_3   0.776865 0.297386 0.474613 -0.337025
H49   H     H_    0.815828 0.214822 0.501692 0.207740
H50   H     H_    0.793982 0.418272 0.446325 0.211141
C75   C     C_3   0.742430 0.381749 0.530168 -0.817331
H51   H     H_    0.703400 0.465586 0.504100 0.245213
H52   H     H_    0.771979 0.479090 0.566041 0.236466
H53   H     H_    0.727164 0.266801 0.562796 0.234819
O28   O     O_3   0.232348 0.639132 0.637917 -0.576248
C76   C     C_3   0.265614 0.665266 0.581556 0.138382
H54   H     H_    0.272433 0.524302 0.557062 0.092899
H55   H     H_    0.309600 0.733971 0.598658 0.171549
C77   C     C_3   0.229681 0.788530 0.523550 -0.350035
H56   H     H_    0.189501 0.708467 0.498607 0.214140
H57   H     H_    0.214683 0.922129 0.547037 0.199169
C78   C     C_3   0.266742 0.843158 0.466450 -0.805505
H58   H     H_    0.305599 0.930794 0.490102 0.242256
H59   H     H_    0.239036 0.928110 0.424289 0.236516
H60   H     H_    0.283224 0.713183 0.442029 0.248570
O29   O     O_3   0.687161 0.230924 0.283073 -0.627092
H61   H     H_    0.670569 0.237425 0.232129 0.349479
O30   O     O_3   0.312438 0.738319 0.721229 -0.606724
H62   H     H_    0.326272 0.749138 0.772827 0.364284
O31   O     O_3   0.742117 0.646641 0.136574 -0.579035
C79   C     C_3   0.765531 0.645796 0.071806 0.074604
H63   H     H_    0.813421 0.606138 0.084286 0.159481
H64   H     H_    0.761915 0.785624 0.043322 0.109293
C80   C     C_3   0.733609 0.493246 0.021824 -0.315992
H65   H     H_    0.726115 0.362516 0.052310 0.241263
H66   H     H_    0.689464 0.549604 0.996817 0.168589
C81   C     C_3   0.770013 0.436681 0.963966 -0.790647
H67   H     H_    0.782757 0.565388 0.935884 0.238611
H68   H     H_    0.743344 0.340136 0.924809 0.244082
H69   H     H_    0.811180 0.359636 0.987848 0.237453
O32   O     O_3   0.262281 0.163066 0.868383 -0.548435
C82   C     C_3   0.271526 0.169147 0.943638 0.082413
H70   H     H_    0.236917 0.259926 0.962840 0.127209
H71   H     H_    0.316302 0.228202 0.964621 0.097462
C83   C     C_3   0.267432 0.965226 0.971912 -0.274239
H72   H     H_    0.220771 0.913685 0.958598 0.194996
H73   H     H_    0.296441 0.867892 0.946077 0.215914
C84   C     C_3   0.286953 0.955187 0.052258 -0.830971
H74   H     H_    0.333699 0.004755 0.066795 0.230043
H75   H     H_    0.284160 0.804715 0.070276 0.224499
H76   H     H_    0.257506 0.045117 0.079983 0.279949
O33   O     O_3   0.657481 0.634399 0.212655 -0.529911
C85   C     C_3   0.623608 0.575133 0.146980 0.191502
H77   H     H_    0.646154 0.448476 0.127592 0.165258
H78   H     H_    0.619742 0.684721 0.104034 0.125431
C86   C     C_3   0.561486 0.513729 0.158889 -0.346352
H79   H     H_    0.565507 0.404886 0.201913 0.214934
H80   H     H_    0.536937 0.639663 0.175627 0.189814
C87   C     C_3   0.526371 0.427764 0.091171 -0.851555
H81   H     H_    0.519819 0.536319 0.048063 0.232319
H82   H     H_    0.482120 0.379714 0.101563 0.230750
H83   H     H_    0.550309 0.301673 0.073486 0.242162
O34   O     O_3   0.345010 0.144041 0.788902 -0.516178
C88   C     C_3   0.385486 0.093244 0.850742 0.206527
H84   H     H_    0.368723 0.961068 0.872998 0.146145
H85   H     H_    0.390151 0.202729 0.893880 0.114054
C89   C     C_3   0.446581 0.049045 0.830456 -0.338172
H86   H     H_    0.442354 0.930511 0.790768 0.209474
H87   H     H_    0.463710 0.177379 0.805963 0.189882
C90   C     C_3   0.491135 0.990842 0.895497 -0.851330
H88   H     H_    0.495676 0.106743 0.936183 0.236037
H89   H     H_    0.535369 0.965329 0.879551 0.237976
H90   H     H_    0.476406 0.857111 0.918969 0.235514
O35   O     O_3   0.743955 0.555307 0.317262 -0.613238
H91   H     H_    0.719476 0.540242 0.355626 0.330030
O36   O     O_3   0.261196 0.061772 0.681700 -0.585133
H92   H     H_    0.282978 0.050494 0.640648 0.317547
O37   O     O_3   0.635675 0.952420 0.183583 -0.700724
H93   H     H_    0.601518 0.932541 0.209383 0.285944
O38   O     O_3   0.366999 0.464642 0.816876 -0.706023
H94   H     H_    0.399962 0.449801 0.788799 0.284268
O39   O     O_3   0.892297 0.932075 0.631533 -0.646259
H95   H     H_    0.874116 0.828069 0.599878 0.276797
O40   O     O_3   0.108424 0.473178 0.368680 -0.647131
H96   H     H_    0.121596 0.363594 0.400160 0.277346
O41   O     O_3   0.797403 0.937570 0.884401 -0.668210
H97   H     H_    0.828767 0.971168 0.924603 0.272892
O42   O     O_3   0.197239 0.320591 0.118949 -0.669169
H98   H     H_    0.166107 0.335258 0.076805 0.273760
O43   O     O_3   0.672875 0.901393 0.554181 -0.669658
H99   H     H_    0.653887 0.029799 0.551096 0.277794
O44   O     O_3   0.327404 0.304758 0.443940 -0.664487
H100  H     H_    0.301229 0.287237 0.480395 0.263618

loop_
_geom_bond_atom_site_label_1
_geom_bond_atom_site_label_2
_ccdc_geom_bond_type
C70   C71   S    
C25   O43   S    
O29   H61   S    
O4    V2    S    
O21   C61   S    
C9    C31   A    
C13   C15   A    
O11   C59   A    
C86   H79   S    
C44   O36   S    
O1    C3    A    
O2    C4    A    
O19   V4    S    
C2    O7    A    
C34   H16   S    
O25   H45   S    
C87   H82   S    
C70   H38   S    
C48   O34   S    
O30   H62   S    
C63   H21   S    
O5    C3    A    
C62   H20   S    
C34   C42   S    
C83   H72   S    
C50   O32   S    
C75   H51   S    
C21   C23   A    
C10   C12   A    
C12   H8    S    
C90   H89   S    
O10   V1    S    
C19   C21   A    
C28   O42   S    
C54   C56   T    
C35   O25   S    
C34   C44   S    
C1    O8    A    
C69   H37   S    
C34   O24   S    
C15   C19   A    
O16   C60   A    
C88   C89   S    
C41   C49   S    
C65   H26   S    
C61   C62   S    
C57   O18   A    
C45   C47   S    
C81   H67   S    
C82   C83   S    
H1    C23   S    
C83   C84   S    
H9    C43   S    
C7    C29   A    
C14   H6    S    
C75   H52   S    
C79   C80   S    
C8    C30   A    
C74   H49   S    
O26   H46   S    
C63   H22   S    
O34   C88   S    
C84   H75   S    
C73   C74   S    
C37   O27   S    
O43   H99   S    
C89   C90   S    
C85   H77   S    
O10   V2    S    
C36   C38   S    
C74   H50   S    
C33   C41   S    
O42   H98   S    
O17   V3    S    
C64   C65   S    
C44   C46   S    
O5    V1    S    
O6    V2    S    
C24   C26   A    
O44   H100  S    
C76   H54   S    
C77   H57   S    
C86   H80   S    
C61   H17   S    
C18   C32   A    
C68   H34   S    
C50   H14   S    
C77   C78   S    
C49   H13   S    
O22   C64   S    
C76   H55   S    
O40   H96   S    
C47   O33   S    
C78   H60   S    
O13   V3    S    
C7    C58   S    
C53   C55   T    
C79   H64   S    
C42   C54   S    
C62   C63   S    
C20   C28   A    
C9    H3    S    
C16   C20   A    
C10   H4    S    
C27   O41   S    
O23   C67   S    
C47   O37   S    
O37   H93   S    
C78   H59   S    
O19   V3    S    
C90   H90   S    
C78   H58   S    
C47   C49   S    
C38   C46   S    
C6    O40   S    
C1    C40   S    
C64   H25   S    
C43   C45   S    
C81   H69   S    
C2    C39   S    
C49   O31   S    
C69   H36   S    
C90   H88   S    
C29   O21   S    
C26   O44   S    
O12   V3    S    
C73   H48   S    
C6    C30   A    
O36   H92   S    
H2    C24   S    
C72   H43   S    
O39   H95   S    
C17   C25   A    
C87   H83   S    
O18   V4    S    
O6    C4    A    
C84   H76   S    
C85   C86   S    
C5    C29   A    
C88   H84   S    
C40   C52   T    
O1    V2    S    
C87   H81   S    
C74   C75   S    
C61   H18   S    
O2    V1    S    
O14   V4    S    
C66   H29   S    
O12   C60   A    
C67   C68   S    
C7    C27   A    
C30   O22   S    
C48   C50   S    
C79   H63   S    
O14   C58   A    
O20   V3    S    
O20   V4    S    
C48   O38   S    
C35   C37   S    
O9    V1    S    
C33   O23   S    
C86   C87   S    
C36   H12   S    
C72   H44   S    
O4    C2    A    
C46   C52   S    
C68   H33   S    
O35   H91   S    
C76   C77   S    
O3    V1    S    
O16   V4    S    
C58   O17   A    
C67   H32   S    
C64   H24   S    
C66   H30   S    
C70   H39   S    
C77   H56   S    
C83   H73   S    
C41   C53   S    
O38   H94   S    
C35   C41   S    
C37   O29   S    
C75   H53   S    
C89   H87   S    
C4    C31   S    
O3    C1    A    
C71   C72   S    
C85   H78   S    
C66   H28   S    
C65   C66   S    
O24   C70   S    
C71   H41   S    
C56   C59   S    
C11   C13   A    
C62   H19   S    
C12   C14   A    
C11   H7    S    
C63   H23   S    
C33   H15   S    
C37   C45   S    
O28   C76   S    
C80   C81   S    
C36   O26   S    
C43   O35   S    
C69   H35   S    
O7    V1    S    
C68   C69   S    
C19   C27   A    
C82   H70   S    
C15   C17   A    
O31   C79   S    
C38   O28   S    
O27   C73   S    
C22   C24   A    
C16   C18   A    
C5    O39   S    
C8    C28   A    
O8    V2    S    
C39   C51   T    
C36   C42   S    
C35   H11   S    
C14   C16   A    
C88   H85   S    
C8    C57   S    
C65   H27   S    
C45   C51   S    
C20   C22   A    
C18   C26   A    
O33   C85   S    
C33   C43   S    
C81   H68   S    
C82   H71   S    
C71   H40   S    
O15   C59   A    
C80   H65   S    
C38   O30   S    
C55   C60   S    
C9    C11   A    
C89   H86   S    
H10   C44   S    
C23   C25   A    
C84   H74   S    
C17   C31   A    
O9    V2    S    
O41   H97   S    
O11   V4    S    
O13   C57   A    
C73   H47   S    
C67   H31   S    
C3    C32   S    
C46   C48   S    
C5    C21   A    
O15   V3    S    
O32   C82   S    
C72   H42   S    
C6    C22   A    
C13   H5    S    
C10   C32   A    
C80   H66   S    
C42   C50   S    
