data_mof_unit_64470.cif
_audit_creation_date              2012-12-10T21:37:23-0500
_audit_creation_method            fapswitch 2.2
_symmetry_space_group_name_H-M    P1
_symmetry_Int_Tables_number       1
_space_group_crystal_system       triclinic
_cell_length_a                    16.173777
_cell_length_b                    15.735192
_cell_length_c                    16.812597
_cell_angle_alpha                 90.814409
_cell_angle_beta                  86.826501
_cell_angle_gamma                 92.930763
_cell_volume                      4266.33625107

loop_
_atom_site_label
_atom_site_type_symbol
_atom_type_description
_atom_site_fract_x
_atom_site_fract_y
_atom_site_fract_z
_atom_type_partial_charge
C1    C     C_R   0.511812 0.499124 0.347475 1.001674
C2    C     C_R   0.427920 0.568147 0.861130 0.431889
C3    C     C_R   0.564705 0.433401 0.221916 0.064281
C4    C     C_R   0.435298 0.566604 0.778083 0.064276
C5    C     C_R   0.237182 0.542681 0.537936 -0.025410
C6    C     C_R   0.762818 0.457318 0.462064 -0.025410
C7    C     C_R   0.149952 0.540618 0.536170 -0.243912
C8    C     C_R   0.850048 0.459382 0.463830 -0.243911
C9    C     C_R   0.108807 0.483070 0.484477 0.293224
C10   C     C_R   0.891193 0.516930 0.515523 0.293224
C11   C     C_R   0.157263 0.429882 0.436541 -0.292688
C12   C     C_R   0.488188 0.500876 0.652524 1.001678
C13   C     C_R   0.842736 0.570118 0.563458 -0.292688
C14   C     C_R   0.243733 0.433515 0.439739 0.303882
C15   C     C_R   0.756267 0.566485 0.560261 0.303880
C16   C     C_R   0.499770 0.337913 0.500158 0.926884
C17   C     C_R   0.500230 0.662087 0.499841 0.926884
C18   C     C_3   0.499712 0.971072 0.423407 -0.348987
C19   C     C_3   0.500287 0.028928 0.576592 -0.348979
C20   C     C_3   0.433314 0.024053 0.467035 0.452679
C21   C     C_3   0.566686 0.975947 0.532964 0.452680
C22   C     C_1   0.499387 0.249126 0.500489 -0.098665
C23   C     C_R   0.487528 0.563102 0.220111 0.406379
C24   C     C_1   0.500613 0.750874 0.499510 -0.098664
C25   C     C_3   0.568176 0.031172 0.458296 0.120632
C26   C     C_3   0.431824 0.968828 0.541703 0.120639
C27   C     C_3   0.500548 0.083267 0.500849 -0.015336
C28   C     C_3   0.499452 0.916733 0.499150 -0.015337
C29   C     C_1   0.499624 0.173952 0.500759 0.102978
C30   C     C_1   0.500376 0.826048 0.499240 0.102979
C31   C     C_R   0.521513 0.498248 0.261845 -0.227020
C32   C     C_R   0.478486 0.501753 0.738155 -0.227016
C33   C     C_R   0.512467 0.436897 0.779890 0.406376
C34   C     C_R   0.494498 0.561112 0.137298 -0.301384
C35   C     C_R   0.505496 0.438888 0.862703 -0.301385
C36   C     C_R   0.533724 0.494285 0.096481 0.120441
C37   C     C_R   0.466274 0.505718 0.903518 0.120441
C38   C     C_R   0.572082 0.431858 0.138869 0.431884
H1    H     H_    0.127495 0.385121 0.396301 0.180243
H2    H     H_    0.115608 0.583515 0.574773 0.179400
H3    H     H_    0.332394 0.000629 0.414496 0.349424
H4    H     H_    0.667610 0.999372 0.585497 0.349425
H5    H     H_    0.572141 0.332283 0.776917 0.344496
H6    H     H_    0.427841 0.667709 0.223084 0.344496
H7    H     H_    0.618258 0.375114 0.043225 0.348283
H8    H     H_    0.381749 0.624897 0.956773 0.348280
H9    H     H_    0.872505 0.614880 0.603699 0.180243
H10   H     H_    0.498070 0.946293 0.361334 0.201208
H11   H     H_    0.501930 0.053707 0.638665 0.201208
H12   H     H_    0.531998 0.389203 0.895619 0.178174
H13   H     H_    0.467991 0.610795 0.104382 0.178171
H14   H     H_    0.731791 0.413112 0.422395 0.173887
H15   H     H_    0.268209 0.586887 0.577606 0.173886
H16   H     H_    0.884392 0.416484 0.425228 0.179400
I1    I     I_    0.306789 0.347782 0.362555 -0.222039
I2    I     I_    0.693211 0.652219 0.637444 -0.222037
I3    I     I_    0.323087 0.918064 0.605763 -0.228825
I4    I     I_    0.676913 0.081937 0.394236 -0.228831
I5    I     I_    0.613883 0.331994 0.284594 -0.211918
I6    I     I_    0.386126 0.668012 0.715403 -0.211918
N1    N     N_2   0.532307 0.487093 0.013068 -0.156454
N2    N     N_2   0.467690 0.512910 0.986931 -0.156456
N3    N     N_R   0.283080 0.489710 0.490280 -0.118297
N4    N     N_R   0.716920 0.510290 0.509720 -0.118297
N5    N     N_2   0.020483 0.475599 0.477907 -0.157951
N6    N     N_2   0.979517 0.524401 0.522093 -0.157951
O1    O     O_R   0.577460 0.503680 0.387340 -0.628615
O2    O     O_3   0.636789 0.947273 0.567281 -0.697935
O3    O     O_3   0.551917 0.372595 0.738464 -0.744399
O4    O     O_3   0.448072 0.627401 0.261537 -0.744395
O5    O     O_3   0.613742 0.366462 0.101504 -0.703400
O6    O     O_3   0.386265 0.633547 0.898494 -0.703399
O7    O     O_R   0.422540 0.496320 0.612660 -0.628615
O8    O     O_R   0.438150 0.497080 0.381100 -0.568909
O9    O     O_R   0.561850 0.502920 0.618900 -0.568912
O10   O     O_R   0.569640 0.380080 0.503110 -0.609400
O11   O     O_R   0.430360 0.619920 0.496890 -0.609399
O12   O     O_R   0.430330 0.373470 0.496870 -0.600698
O13   O     O_R   0.569670 0.626530 0.503130 -0.600699
O14   O     O_3   0.363211 0.052727 0.432719 -0.697935
Zn1   Zn    Zn3+2 0.593020 0.504410 0.504170 1.022185
Zn2   Zn    Zn3+2 0.406980 0.495590 0.495830 1.022186

loop_
_geom_bond_atom_site_label_1
_geom_bond_atom_site_label_2
_ccdc_geom_bond_type
C22   C29   T    
H7    O5    S    
C1    C31   S    
H3    O14   S    
C37   N2    S    
C34   H13   S    
C1    O8    A    
C5    H15   S    
C35   C37   A    
C11   H1    S    
C11   C14   A    
C27   C29   S    
C17   O13   A    
C5    N3    A    
C6    N4    A    
C19   C26   S    
O12   Zn2   S    
C1    O1    A    
C13   H9    S    
C3    C38   A    
C7    H2    S    
H6    O4    S    
C19   C27   S    
C18   C20   S    
C33   O3    S    
C14   I1    S    
H5    O3    S    
C12   O7    A    
C12   C32   S    
H4    O2    S    
C23   O4    S    
C18   C25   S    
O8    Zn2   S    
C2    O6    S    
C9    N5    S    
C10   N6    S    
C17   C24   S    
C20   O14   S    
N3    Zn2   S    
C18   C28   S    
C8    H16   S    
C5    C7    A    
O9    Zn1   S    
C6    C8    A    
C23   C31   A    
C2    C4    A    
C19   H11   S    
C15   N4    A    
C23   C34   A    
C4    I6    S    
C35   H12   S    
C17   O11   A    
C3    C31   A    
C9    C11   A    
C4    C32   A    
C21   C28   S    
O1    Zn1   S    
C13   C15   A    
C21   O2    S    
C25   I4    S    
C36   N1    S    
O7    Zn2   S    
O13   Zn1   S    
C7    C9    A    
C21   C25   S    
C38   O5    S    
C16   C22   S    
C19   C21   S    
C16   O10   A    
H8    O6    S    
C10   C13   A    
C18   H10   S    
O10   Zn1   S    
C20   C27   S    
C25   C27   S    
C26   C28   S    
C32   C33   A    
C36   C38   A    
C15   I2    S    
C2    C37   A    
C20   C26   S    
O11   Zn2   S    
C14   N3    A    
C28   C30   S    
C33   C35   A    
C34   C36   A    
C16   O12   A    
N1    N2    D    
C26   I3    S    
C24   C30   T    
N4    Zn1   S    
C8    C10   A    
N5    N6    D    
C12   O9    A    
C6    H14   S    
C3    I5    S    
