data_mof_unit_42582.cif
_audit_creation_date              2012-12-10T17:18:14-0500
_audit_creation_method            fapswitch 2.2
_symmetry_space_group_name_H-M    P1
_symmetry_Int_Tables_number       1
_space_group_crystal_system       triclinic
_cell_length_a                    10.194633
_cell_length_b                    10.790917
_cell_length_c                    14.925676
_cell_angle_alpha                 89.712645
_cell_angle_beta                  81.120355
_cell_angle_gamma                 94.804896
_cell_volume                      1616.31616388

loop_
_atom_site_label
_atom_site_type_symbol
_atom_type_description
_atom_site_fract_x
_atom_site_fract_y
_atom_site_fract_z
_atom_type_partial_charge
C1    C     C_R   0.555574 0.732491 0.491675 0.930404
C2    C     C_2   0.070587 0.483560 0.499766 -0.095172
C3    C     C_R   0.500119 0.499104 0.672613 0.881059
C4    C     C_R   0.499865 0.500809 0.327360 0.873883
C5    C     C_R   0.462234 0.395097 0.191956 -0.221795
C6    C     C_R   0.536094 0.604564 0.808262 -0.224796
C7    C     C_R   0.499463 0.505021 0.232018 -0.074552
C8    C     C_R   0.500358 0.494480 0.767938 -0.078711
C9    C     C_R   0.536008 0.616308 0.182249 -0.063860
C10   C     C_R   0.464816 0.382767 0.817378 -0.064656
C11   C     C_R   0.525334 0.618580 0.089007 0.006910
C12   C     C_R   0.444380 0.267572 0.503201 0.937906
C13   C     C_R   0.473852 0.380626 0.910948 0.006317
C14   C     C_R   0.497320 0.502592 0.047069 0.055010
C15   C     C_R   0.501134 0.496742 0.953002 0.056204
C16   C     C_R   0.465828 0.391856 0.099303 0.109880
C17   C     C_R   0.532326 0.607628 0.900876 0.112347
C18   C     C_R   0.545611 0.729893 0.035098 -0.039354
C19   C     C_R   0.452898 0.269435 0.965068 -0.038897
C20   C     C_1   0.596933 0.720985 0.226253 0.215076
C21   C     C_1   0.407722 0.277207 0.772129 0.219415
C22   C     C_2   0.543768 0.856909 0.072313 0.927308
C23   C     C_R   0.554520 0.721787 0.941493 -0.243666
C24   C     C_2   0.454547 0.142261 0.928202 0.926478
C25   C     C_2   0.116800 0.639584 0.604041 1.025878
C26   C     C_2   0.887466 0.378776 0.385095 1.025307
C27   C     C_R   0.443294 0.277724 0.058738 -0.243299
C28   C     C_2   0.586744 0.864426 0.478433 -0.326331
C29   C     C_2   0.412986 0.135847 0.496062 -0.335745
C30   C     C_2   0.487747 0.934061 0.469398 -0.105894
C31   C     C_2   0.512072 0.066298 0.466756 -0.133016
C32   C     C_2   0.925817 0.506498 0.508880 -0.121981
H1    H     H_    0.436183 0.310643 0.233037 0.146186
H2    H     H_    0.885004 0.571283 0.558534 0.193420
H3    H     H_    0.627071 0.033632 0.064719 0.349023
H4    H     H_    0.369773 0.966064 0.935421 0.348555
H5    H     H_    0.000959 0.675594 0.721744 0.348418
H6    H     H_    0.018906 0.365036 0.270324 0.348706
H7    H     H_    0.561562 0.689214 0.767334 0.145826
H8    H     H_    0.571865 0.806353 0.900093 0.190084
H9    H     H_    0.425478 0.193245 0.100232 0.189264
H10   H     H_    0.614326 0.105929 0.447516 0.226412
H11   H     H_    0.385672 0.894372 0.470980 0.217537
H12   H     H_    0.311077 0.095582 0.515646 0.175711
H13   H     H_    0.688529 0.904678 0.476872 0.167460
H14   H     H_    0.107607 0.409163 0.457187 0.184987
N1    N     N_2   0.842700 0.448880 0.462930 -0.172320
N2    N     N_2   0.157300 0.551120 0.537070 -0.168766
N3    N     N_1   0.646149 0.803925 0.261458 -0.161987
N4    N     N_1   0.361851 0.193739 0.735596 -0.161560
O1    O     O_R   0.431060 0.692470 0.507460 -0.589176
O2    O     O_R   0.639964 0.950489 0.034743 -0.765665
O3    O     O_2   0.545000 0.117037 0.869087 -0.598618
O4    O     O_R   0.356740 0.049514 0.964893 -0.766764
O5    O     O_2   0.174944 0.743616 0.599750 -0.623110
O6    O     O_R   0.018382 0.605000 0.678110 -0.820630
O7    O     O_2   0.820962 0.284513 0.368771 -0.625305
O8    O     O_R   0.000058 0.422260 0.323591 -0.819525
O9    O     O_R   0.568940 0.307530 0.492540 -0.590909
O10   O     O_R   0.651120 0.659650 0.483670 -0.624162
O11   O     O_R   0.348880 0.340350 0.516330 -0.626321
O12   O     O_R   0.389960 0.516440 0.644050 -0.608021
O13   O     O_R   0.610040 0.483560 0.355950 -0.604864
O14   O     O_R   0.610030 0.483620 0.620260 -0.610311
O15   O     O_R   0.389970 0.516380 0.379740 -0.607382
O16   O     O_2   0.454635 0.881173 0.132712 -0.600550
Zn1   Zn    Zn3+2 0.353060 0.521920 0.515880 1.010039
Zn2   Zn    Zn3+2 0.646940 0.478080 0.484120 1.006661

loop_
_geom_bond_atom_site_label_1
_geom_bond_atom_site_label_2
_ccdc_geom_bond_type
C26   O7    D    
C1    C28   S    
C11   C18   A    
C20   N3    T    
C31   H10   S    
C12   C29   S    
C18   C22   S    
C19   C27   A    
O11   Zn1   S    
C9    C20   S    
C5    C16   A    
C18   C23   A    
C25   N2    S    
C25   O6    S    
C16   C27   A    
C28   C30   D    
C19   C24   S    
C24   O3    D    
H5    O6    S    
N2    Zn1   S    
O1    Zn1   S    
C3    O14   A    
C2    H14   S    
C12   O11   A    
C9    C11   A    
C4    O13   A    
C17   C23   A    
O12   Zn1   S    
C4    C7    S    
O14   Zn2   S    
C4    O15   A    
C2    C32   S    
C21   N4    T    
C11   C14   A    
C22   O2    S    
C5    C7    A    
C29   H12   S    
C13   C15   A    
C10   C21   S    
C30   C31   S    
C30   H11   S    
C32   N1    D    
C14   C16   A    
C28   H13   S    
C1    O10   A    
H4    O4    S    
C13   C19   A    
C24   O4    S    
C23   H8    S    
C7    C9    A    
N1    Zn2   S    
O10   Zn2   S    
C29   C31   D    
C3    C8    S    
C3    O12   A    
H3    O2    S    
C15   C17   A    
C6    C17   A    
C26   N1    S    
C6    H7    S    
C22   O16   D    
O9    Zn2   S    
C6    C8    A    
C1    O1    A    
C2    N2    D    
O13   Zn2   S    
C14   C15   A    
C12   O9    A    
H6    O8    S    
C26   O8    S    
C8    C10   A    
C25   O5    D    
C5    H1    S    
C27   H9    S    
O15   Zn1   S    
C10   C13   A    
C32   H2    S    
