data_mof_unit_58594.cif
_audit_creation_date              2012-12-10T17:51:59-0500
_audit_creation_method            fapswitch 2.2
_symmetry_space_group_name_H-M    P1
_symmetry_Int_Tables_number       1
_space_group_crystal_system       triclinic
_cell_length_a                    14.691992
_cell_length_b                    14.808694
_cell_length_c                    19.374015
_cell_angle_alpha                 76.483967
_cell_angle_beta                  103.168654
_cell_angle_gamma                 115.097579
_cell_volume                      3671.64837153

loop_
_atom_site_label
_atom_site_type_symbol
_atom_type_description
_atom_site_fract_x
_atom_site_fract_y
_atom_site_fract_z
_atom_type_partial_charge
C1    C     C_R   0.880250 0.312445 0.512040 0.791255
C2    C     C_R   0.119792 0.687412 0.487187 0.785098
C3    C     C_R   0.813292 0.204936 0.520201 -0.047836
C4    C     C_R   0.187698 0.793626 0.471738 -0.045147
C5    C     C_R   0.784374 0.030754 0.569632 -0.211746
C6    C     C_R   0.222768 0.959135 0.400903 -0.212719
C7    C     C_R   0.850710 0.131396 0.557040 -0.191354
C8    C     C_R   0.153406 0.863069 0.423653 -0.216854
C9    C     C_R   0.710109 0.176131 0.492728 -0.258060
C10   C     C_R   0.290769 0.822251 0.499169 -0.227788
C11   C     C_R   0.642392 0.074457 0.502169 0.087631
C12   C     C_R   0.362987 0.916479 0.474031 0.076004
C13   C     C_R   0.680294 0.002277 0.544230 0.164428
C14   C     C_R   0.327145 0.985703 0.424649 0.168847
C15   C     C_R   0.537489 0.043385 0.473614 0.072889
C16   C     C_R   0.469375 0.943689 0.496252 0.065438
C17   C     C_R   0.510224 0.874322 0.539088 -0.219239
C18   C     C_R   0.499088 0.108087 0.421882 -0.249218
C19   C     C_R   0.613895 0.902689 0.561071 -0.229897
C20   C     C_R   0.395830 0.079854 0.398140 -0.247150
C21   C     C_R   0.720061 0.673564 0.381105 -0.115638
C22   C     C_R   0.252316 0.296821 0.580336 -0.129682
C23   C     C_R   0.003026 0.504491 0.632622 0.823011
C24   C     C_R   0.997812 0.496598 0.367510 0.834148
C25   C     C_R   0.797782 0.637558 0.398860 -0.041085
C26   C     C_R   0.183828 0.341164 0.575482 -0.046116
C27   C     C_R   0.715313 0.511913 0.490568 0.536160
C28   C     C_R   0.297944 0.500491 0.527432 0.590382
C29   C     C_R   0.627190 0.536092 0.469591 -0.148784
C30   C     C_R   0.368473 0.458558 0.523742 -0.144414
C31   C     C_R   0.635748 0.626400 0.420273 0.016987
C32   C     C_R   0.348218 0.356423 0.556427 0.017462
C33   C     C_R   0.533134 0.475535 0.497456 0.068729
C34   C     C_R   0.457543 0.514698 0.488788 0.074639
C35   C     C_R   0.470696 0.606525 0.442359 -0.264112
C36   C     C_R   0.510456 0.374720 0.530186 -0.275529
C37   C     C_R   0.559714 0.665251 0.412200 -0.008912
C38   C     C_R   0.423976 0.317787 0.563214 0.006413
C39   C     C_R   0.093510 0.505274 0.761686 -0.161489
C40   C     C_R   0.897560 0.463410 0.243619 -0.131369
C41   C     C_R   0.090312 0.495739 0.835929 0.389821
C42   C     C_R   0.892150 0.444462 0.174624 0.382788
C43   C     C_R   0.002233 0.488610 0.857842 -0.072763
C44   C     C_R   0.980908 0.455902 0.150928 -0.092671
C45   C     C_R   0.922166 0.499262 0.806438 -0.254080
C46   C     C_R   0.071733 0.475974 0.198427 -0.314674
C47   C     C_R   0.926045 0.514043 0.733559 0.397158
C48   C     C_R   0.077629 0.489381 0.268811 0.411504
C49   C     C_R   0.008386 0.509905 0.709709 -0.234712
C50   C     C_R   0.990587 0.483984 0.292205 -0.198719
C51   C     C_R   0.982990 0.459168 0.074849 0.404176
C52   C     C_R   0.994921 0.476816 0.934456 0.470062
Cu1   Cu    Cu3+1 0.081740 0.475680 0.518680 1.008687
Cu2   Cu    Cu3+1 0.918260 0.524320 0.481320 0.975176
H1    H     H_    0.110734 0.294598 0.592394 0.153768
H2    H     H_    0.861914 0.671810 0.369504 0.149543
H3    H     H_    0.411015 0.634446 0.427661 0.205174
H4    H     H_    0.559897 0.337602 0.530412 0.186061
H5    H     H_    0.855883 0.498158 0.822840 0.193919
H6    H     H_    0.139756 0.485199 0.179728 0.165223
H7    H     H_    0.641988 0.846613 0.592896 0.139574
H8    H     H_    0.369640 0.132244 0.358736 0.148853
H9    H     H_    0.312316 0.768741 0.539833 0.169238
H10   H     H_    0.683351 0.234843 0.466790 0.150223
H11   H     H_    0.073687 0.842142 0.401917 0.147546
H12   H     H_    0.930496 0.152003 0.578382 0.152257
H13   H     H_    0.814155 0.975432 0.600391 0.138207
H14   H     H_    0.195083 0.011725 0.363104 0.134882
H15   H     H_    0.464525 0.796517 0.555315 0.141698
H16   H     H_    0.547803 0.179913 0.396789 0.140001
N1    N     N_R   0.934539 0.511840 0.954188 -0.258374
N2    N     N_R   0.043405 0.423986 0.055349 -0.237807
N3    N     N_R   0.929041 0.503582 0.023031 -0.210890
N4    N     N_R   0.048821 0.432236 0.986383 -0.153067
N5    N     N_R   0.795420 0.560800 0.453240 -0.188554
N6    N     N_R   0.204580 0.439200 0.546760 -0.178751
O1    O     O_R   0.977910 0.338110 0.524620 -0.616386
O2    O     O_R   0.022090 0.661890 0.475380 -0.612672
O3    O     O_R   0.839850 0.379180 0.493080 -0.539027
O4    O     O_R   0.160150 0.620820 0.506920 -0.507736
O5    O     O_R   0.069040 0.479450 0.615630 -0.572327
O6    O     O_R   0.930960 0.520550 0.384370 -0.605093
O7    O     O_R   0.930990 0.520520 0.584090 -0.518878
O8    O     O_R   0.069010 0.479480 0.415910 -0.506030
C53   C     C_R   0.187252 0.513023 0.739697 0.145436
C54   C     C_R   0.210744 0.427545 0.751283 -0.113796
C55   C     C_R   0.300683 0.435820 0.732445 -0.148076
C56   C     C_R   0.367663 0.529282 0.702301 -0.110742
C57   C     C_R   0.344595 0.614560 0.690593 -0.105694
C58   C     C_R   0.254554 0.606600 0.709013 -0.125455
H17   H     H_    0.159499 0.354899 0.774870 0.129229
H18   H     H_    0.318424 0.369801 0.741122 0.121094
H19   H     H_    0.437130 0.535497 0.687601 0.120235
H20   H     H_    0.396531 0.686856 0.667301 0.111256
H21   H     H_    0.237511 0.673165 0.699869 0.103004
C59   C     C_R   0.804518 0.464796 0.260748 0.195789
C60   C     C_R   0.751146 0.393536 0.314702 -0.082660
C61   C     C_R   0.664002 0.397633 0.329253 -0.126085
C62   C     C_R   0.625825 0.467842 0.287262 -0.125185
C63   C     C_R   0.676038 0.535877 0.231587 -0.153133
C64   C     C_R   0.765952 0.535853 0.219280 -0.068730
H22   H     H_    0.778519 0.337024 0.346464 0.098325
H23   H     H_    0.626061 0.347168 0.373253 0.111263
H24   H     H_    0.557616 0.469772 0.298079 0.132167
H25   H     H_    0.645658 0.588943 0.197916 0.139289
H26   H     H_    0.804900 0.590328 0.176618 0.142835
C65   C     C_R   0.575332 0.772264 0.382709 0.126333
C66   C     C_R   0.501880 0.795994 0.330055 -0.148513
C67   C     C_R   0.515803 0.896690 0.304187 -0.107815
C68   C     C_R   0.602863 0.974495 0.330520 -0.095604
C69   C     C_R   0.675752 0.951762 0.383223 -0.119072
C70   C     C_R   0.661384 0.851221 0.410175 -0.109942
H27   H     H_    0.434487 0.736587 0.308515 0.129390
H28   H     H_    0.459190 0.914403 0.263528 0.132807
H29   H     H_    0.613631 0.052410 0.310361 0.128523
H30   H     H_    0.743006 0.012126 0.403738 0.135098
H31   H     H_    0.717712 0.834861 0.452006 0.118271
C71   C     C_R   0.424557 0.224950 0.612746 0.127692
C72   C     C_R   0.425511 0.144360 0.586875 -0.144808
C73   C     C_R   0.426797 0.057502 0.634118 -0.107821
C74   C     C_R   0.428982 0.051249 0.707512 -0.103545
C75   C     C_R   0.430555 0.132106 0.733893 -0.123710
C76   C     C_R   0.429034 0.218998 0.686827 -0.116730
H32   H     H_    0.423240 0.148343 0.530141 0.140418
H33   H     H_    0.425838 0.994872 0.613985 0.132931
H34   H     H_    0.429793 0.983873 0.743964 0.122505
H35   H     H_    0.432782 0.127407 0.790801 0.127892
H36   H     H_    0.430340 0.281237 0.707879 0.115792
O9    O     O_3   0.325918 0.602592 0.520891 -0.735320
H37   H     H_    0.397782 0.631103 0.543424 0.279613
O10   O     O_3   0.727608 0.447117 0.552174 -0.688013
H38   H     H_    0.695366 0.455392 0.588688 0.335734
C77   C     C_R   0.726826 0.753505 0.317375 0.138009
C78   C     C_R   0.814515 0.843370 0.313543 -0.168304
C79   C     C_R   0.821100 0.918667 0.253653 -0.123927
C80   C     C_R   0.740925 0.904539 0.196803 -0.094985
C81   C     C_R   0.654206 0.814890 0.199597 -0.137978
C82   C     C_R   0.647239 0.739451 0.259418 -0.136163
H39   H     H_    0.876985 0.855721 0.357425 0.111700
H40   H     H_    0.888325 0.988074 0.251386 0.127696
H41   H     H_    0.746071 0.962993 0.150534 0.126344
H42   H     H_    0.592205 0.803919 0.155488 0.129926
H43   H     H_    0.579321 0.670583 0.261016 0.117329
C83   C     C_R   0.211687 0.185325 0.599147 0.129950
C84   C     C_R   0.183648 0.138643 0.667371 -0.164644
C85   C     C_R   0.143319 0.033382 0.684455 -0.121679
C86   C     C_R   0.129056 0.974122 0.633266 -0.109954
C87   C     C_R   0.154324 0.020003 0.564714 -0.141462
C88   C     C_R   0.194818 0.125228 0.547395 -0.124941
H44   H     H_    0.194271 0.183829 0.707421 0.114382
H45   H     H_    0.123049 0.997745 0.737371 0.128776
H46   H     H_    0.097911 0.892651 0.646582 0.118139
H47   H     H_    0.142415 0.974008 0.525016 0.142697
H48   H     H_    0.213863 0.159926 0.494015 0.125560
O11   O     O_3   0.172043 0.495335 0.888362 -0.716859
H49   H     H_    0.235050 0.520476 0.867079 0.330404
O12   O     O_3   0.798382 0.414414 0.131837 -0.722015
H50   H     H_    0.797872 0.373191 0.098084 0.330248
O13   O     O_3   0.847223 0.531838 0.687389 -0.715051
H51   H     H_    0.878183 0.594535 0.653995 0.327071
O14   O     O_3   0.169197 0.512617 0.314324 -0.713090
H52   H     H_    0.221926 0.513445 0.289775 0.312639

loop_
_geom_bond_atom_site_label_1
_geom_bond_atom_site_label_2
_ccdc_geom_bond_type
C18   H16   S    
C15   C18   A    
C81   H42   S    
C17   H15   S    
O12   H50   S    
C27   C29   A    
C9    H10   S    
C1    O1    A    
C65   C70   A    
Cu1   O1    S    
C69   C70   A    
C25   H2    S    
C5    H13   S    
C26   H1    S    
C10   H9    S    
C60   C61   A    
C79   C80   A    
C39   C41   A    
C47   O13   S    
Cu1   Cu2   S    
C21   C31   A    
C51   N2    A    
C63   H25   S    
C80   H41   S    
C22   C32   A    
Cu1   O8    S    
C2    O2    A    
C35   C37   A    
C37   C65   S    
C3    C7    A    
C36   H4    S    
C82   H43   S    
C53   C54   A    
C70   H31   S    
C34   C35   A    
C43   C52   S    
C23   C49   S    
C61   H23   S    
C29   C33   A    
C75   H35   S    
C33   C36   A    
C27   O10   S    
C66   C67   A    
Cu1   O5    S    
C28   O9    S    
C57   H20   S    
C24   O6    A    
C68   C69   A    
C86   C87   A    
C51   N3    A    
C71   C72   A    
C11   C15   A    
C12   C16   A    
C16   C17   A    
C26   N6    A    
C65   C66   A    
C69   H30   S    
C32   C38   A    
C5    C13   A    
C84   H44   S    
C4    C8    A    
C6    H14   S    
C62   H24   S    
C77   C82   A    
C8    H11   S    
C55   H18   S    
C41   C43   A    
C42   C44   A    
C40   C59   S    
C27   N5    A    
C10   C12   A    
C21   C77   S    
Cu2   O7    S    
C44   C46   A    
C84   C85   A    
C45   C47   A    
C24   C50   S    
C79   H40   S    
C46   C48   A    
C30   C34   A    
C14   C20   A    
C58   H21   S    
Cu1   O4    S    
C87   C88   A    
N2    N4    A    
C57   C58   A    
C78   H39   S    
C5    C7    A    
C13   C19   A    
C73   H33   S    
C83   C84   A    
C6    C8    A    
C48   O14   S    
C72   H32   S    
C31   C37   A    
C25   N5    A    
C38   C71   S    
C66   H27   S    
C2    C4    S    
C88   H48   S    
C83   C88   A    
C3    C9    A    
C6    C14   A    
C43   C45   A    
O13   H51   S    
C72   C73   A    
C59   C60   A    
C33   C34   A    
C48   C50   A    
C9    C11   A    
C74   C75   A    
C85   C86   A    
C23   O7    A    
C67   H28   S    
C44   C51   S    
C39   C49   A    
C12   C14   A    
C77   C78   A    
C1    O3    A    
Cu2   O2    S    
C42   O12   S    
C87   H47   S    
C39   C53   S    
C4    C10   A    
O10   H38   S    
C28   N6    A    
Cu2   O6    S    
C73   C74   A    
N1    N3    A    
O9    H37   S    
C64   H26   S    
C21   C25   A    
C56   H19   S    
C45   H5    S    
C23   O5    A    
C46   H6    S    
C54   C55   A    
C60   H22   S    
C80   C81   A    
C53   C58   A    
C78   C79   A    
C47   C49   A    
C81   C82   A    
C52   N4    A    
C62   C63   A    
C35   H3    S    
C54   H17   S    
C36   C38   A    
C86   H46   S    
C24   O8    A    
C28   C30   A    
C29   C31   A    
C52   N1    A    
O14   H52   S    
C67   C68   A    
C7    H12   S    
C30   C32   A    
C11   C13   A    
C76   H36   S    
C19   H7    S    
C40   C50   A    
C40   C42   A    
C63   C64   A    
C17   C19   A    
C18   C20   A    
C71   C76   A    
C20   H8    S    
C2    O4    A    
Cu2   O3    S    
C85   H45   S    
Cu1   N6    S    
C74   H34   S    
C56   C57   A    
C55   C56   A    
C61   C62   A    
C22   C26   A    
C22   C83   S    
O11   H49   S    
C1    C3    S    
C75   C76   A    
C59   C64   A    
C68   H29   S    
C15   C16   A    
Cu2   N5    S    
C41   O11   S    
