data_mof_unit_62992.cif
_audit_creation_date              2013-03-05T16:26:19-0500
_audit_creation_method            fapswitch 2.2
_symmetry_space_group_name_H-M    P1
_symmetry_Int_Tables_number       1
_space_group_crystal_system       triclinic
_cell_length_a                    19.131036
_cell_length_b                    18.39661
_cell_length_c                    23.392263
_cell_angle_alpha                 90.07532
_cell_angle_beta                  91.716918
_cell_angle_gamma                 90.011606
_cell_volume                      8229.11484487

loop_
_atom_site_label
_atom_site_type_symbol
_atom_site_description
_atom_site_fract_x
_atom_site_fract_y
_atom_site_fract_z
_atom_type_partial_charge
O1    O     O_R   0.398130 0.560830 0.500010 -0.592073
O2    O     O_R   0.601870 0.439170 0.499990 -0.590261
O3    O     O_R   0.601870 0.560830 0.499990 -0.594148
O4    O     O_R   0.398130 0.439170 0.500010 -0.587401
C1    C     C_R   0.365259 0.499955 0.505030 0.883952
C2    C     C_R   0.634108 0.499938 0.492771 0.902908
O5    O     O_R   0.499970 0.560830 0.416150 -0.581317
O6    O     O_R   0.500030 0.439170 0.583850 -0.581531
O7    O     O_R   0.500030 0.560830 0.583850 -0.579601
O8    O     O_R   0.499970 0.439170 0.416150 -0.586054
C3    C     C_R   0.499788 0.499975 0.389507 0.917664
C4    C     C_R   0.499992 0.500069 0.610550 0.929348
Zn1   Zn    Zn3+2 0.500000 0.581210 0.500000 1.014630
Zn2   Zn    Zn3+2 0.500000 0.418790 0.500000 1.014274
C5    C     C_R   0.490045 0.561930 0.880279 0.579383
C6    C     C_R   0.477337 0.433722 0.119799 0.577518
N1    N     N_R   0.488901 0.497244 0.852198 -0.341185
N2    N     N_R   0.478007 0.498497 0.147761 -0.343208
C7    C     C_R   0.481353 0.432623 0.879487 0.602136
C8    C     C_R   0.473684 0.563288 0.119984 0.602260
C9    C     C_R   0.477414 0.430445 0.939513 -0.126863
C10   C     C_R   0.474112 0.565609 0.059804 -0.133016
C11   C     C_R   0.475698 0.497762 0.969487 -0.081449
C12   C     C_R   0.472716 0.498374 0.029650 -0.080446
C13   C     C_R   0.478311 0.564522 0.939322 -0.063317
C14   C     C_R   0.469844 0.431620 0.059807 -0.050366
C15   C     C_R   0.472749 0.364055 0.970094 0.314836
C16   C     C_R   0.474813 0.632111 0.029031 0.318988
C17   C     C_R   0.462367 0.365198 0.029323 0.075387
C18   C     C_R   0.470413 0.631283 0.968938 0.085092
O9    O     O_2   0.504166 0.622817 0.850686 -0.523672
O10   O     O_2   0.486780 0.372254 0.150458 -0.532242
O11   O     O_2   0.476257 0.371681 0.847673 -0.462993
O12   O     O_2   0.468690 0.624373 0.151387 -0.454804
C19   C     C_R   0.551373 0.501767 0.235721 0.179920
C20   C     C_R   0.428461 0.503936 0.758516 0.179027
C21   C     C_R   0.556828 0.502557 0.295898 0.107402
C22   C     C_R   0.431241 0.505364 0.698503 0.115112
C23   C     C_R   0.495017 0.499957 0.327610 -0.080945
C24   C     C_R   0.497014 0.500263 0.672460 -0.089432
C25   C     C_R   0.428207 0.497293 0.300107 0.038128
C26   C     C_R   0.559727 0.494790 0.705686 0.021986
C27   C     C_R   0.423637 0.496322 0.240353 0.298760
C28   C     C_R   0.556121 0.493195 0.765374 0.310758
C29   C     C_R   0.484555 0.498601 0.208685 0.165337
C30   C     C_R   0.491164 0.497737 0.791280 0.162051
C31   C     C_R   0.249911 0.564834 0.514186 0.138126
C32   C     C_R   0.742447 0.432131 0.464240 0.136908
C33   C     C_R   0.746729 0.565008 0.470059 0.127979
C34   C     C_R   0.253185 0.432140 0.519967 0.143038
C35   C     C_R   0.177804 0.562299 0.500620 0.151005
C36   C     C_R   0.815959 0.429144 0.466326 0.153492
C37   C     C_R   0.820363 0.562593 0.471681 0.158466
C38   C     C_R   0.181227 0.428875 0.506278 0.147978
C39   C     C_R   0.144539 0.494049 0.495337 0.005123
C40   C     C_R   0.854012 0.494376 0.472399 0.005991
C41   C     C_R   0.288900 0.499250 0.514236 -0.170130
C42   C     C_R   0.708604 0.499179 0.476162 -0.174119
N3    N     N_R   0.029842 0.489705 0.535726 -0.147059
N4    N     N_R   0.968711 0.492970 0.430534 -0.147062
N5    N     N_R   0.960669 0.489707 0.530327 -0.146233
N6    N     N_R   0.038002 0.492942 0.435943 -0.149149
C43   C     C_R   0.929411 0.491518 0.477720 0.286981
C44   C     C_R   0.069204 0.491552 0.488656 0.289125
C45   C     C_R   0.456431 0.272581 0.462806 0.293688
C46   C     C_R   0.542395 0.727399 0.538146 0.290502
C47   C     C_R   0.543631 0.272749 0.537170 0.292335
C48   C     C_R   0.457578 0.727310 0.461918 0.294991
C49   C     C_R   0.455700 0.195493 0.462187 0.155078
C50   C     C_R   0.543178 0.804490 0.538738 0.155718
C51   C     C_R   0.544312 0.195664 0.537858 0.156049
C52   C     C_R   0.456847 0.804393 0.461346 0.155069
C53   C     C_R   0.499991 0.156125 0.500044 -0.175288
C54   C     C_R   0.500028 0.843858 0.500044 -0.175347
N7    N     N_R   0.500000 0.310560 0.500000 -0.178530
N8    N     N_R   0.500000 0.689440 0.500000 -0.178945
N9    N     N_R   0.559948 0.036313 0.492161 -0.106040
N10   N     N_R   0.440075 0.963618 0.507950 -0.106363
N11   N     N_R   0.440069 0.036298 0.507960 -0.105007
N12   N     N_R   0.559966 0.963632 0.492179 -0.105328
C55   C     C_R   0.500026 0.925564 0.500066 0.430286
C56   C     C_R   0.500002 0.074384 0.500057 0.430118
Br1   Br    Br    0.488278 0.269770 0.934916 -0.333747
Br2   Br    Br    0.490207 0.725801 0.066027 -0.341170
Br3   Br    Br    0.396425 0.144067 0.407414 -0.329835
Br4   Br    Br    0.600951 0.856027 0.594495 -0.325897
Br5   Br    Br    0.603580 0.144483 0.592658 -0.319672
Br6   Br    Br    0.399064 0.855776 0.405624 -0.322676
C57   C     C_3   0.439037 0.296082 0.058563 -0.634307
H1    H     H_    0.410590 0.258937 0.028637 0.241679
H2    H     H_    0.484880 0.267098 0.077775 0.275330
H3    H     H_    0.400336 0.308523 0.091624 0.259409
C58   C     C_3   0.452653 0.701219 0.937317 -0.650386
H4    H     H_    0.423887 0.740180 0.964077 0.245474
H5    H     H_    0.501073 0.727652 0.922591 0.282472
H6    H     H_    0.415993 0.690307 0.900613 0.242309
C59   C     C_3   0.616784 0.504323 0.200698 -0.765189
H7    H     H_    0.650575 0.456895 0.211270 0.246093
H8    H     H_    0.605971 0.502847 0.153936 0.229940
H9    H     H_    0.646066 0.555239 0.210102 0.247841
C60   C     C_3   0.358538 0.509071 0.787297 -0.792637
H10   H     H_    0.324374 0.463313 0.773147 0.251627
H11   H     H_    0.362643 0.506639 0.834564 0.223963
H12   H     H_    0.332748 0.561356 0.776008 0.243294
C61   C     C_3   0.628659 0.506218 0.325240 -0.861197
H13   H     H_    0.627130 0.507580 0.372356 0.204835
H14   H     H_    0.659901 0.457877 0.313597 0.251791
H15   H     H_    0.656218 0.556258 0.312016 0.256436
C62   C     C_3   0.363581 0.512209 0.663375 -0.862087
H16   H     H_    0.371396 0.514205 0.617042 0.206531
H17   H     H_    0.329204 0.464948 0.671437 0.249846
H18   H     H_    0.336163 0.563141 0.674722 0.252914
C63   C     C_3   0.361196 0.496018 0.333121 -0.657456
H19   H     H_    0.331386 0.445743 0.322557 0.270187
H20   H     H_    0.369520 0.497425 0.380114 0.224695
H21   H     H_    0.328725 0.544006 0.321268 0.268666
C64   C     C_3   0.630781 0.491352 0.678827 -0.656836
H22   H     H_    0.628652 0.494056 0.631504 0.226135
H23   H     H_    0.663335 0.537767 0.694257 0.265818
H24   H     H_    0.657206 0.439697 0.691048 0.274240
Br7   Br    Br    0.333828 0.492183 0.200437 -0.416118
Br8   Br    Br    0.639923 0.485153 0.813024 -0.387332
C65   C     C_3   0.282559 0.636292 0.533563 -0.773701
H25   H     H_    0.328724 0.628016 0.562593 0.242847
H26   H     H_    0.296528 0.669384 0.496103 0.279085
H27   H     H_    0.245926 0.667934 0.559728 0.232478
C66   C     C_3   0.701209 0.365131 0.445505 -0.776090
H28   H     H_    0.653703 0.380429 0.419894 0.240760
H29   H     H_    0.730907 0.330064 0.416326 0.233693
H30   H     H_    0.687116 0.332507 0.483257 0.277575
C67   C     C_3   0.709723 0.636740 0.458326 -0.770163
H31   H     H_    0.663451 0.628581 0.429246 0.241421
H32   H     H_    0.694422 0.662089 0.498996 0.281695
H33   H     H_    0.742473 0.676088 0.435399 0.235310
C68   C     C_3   0.289384 0.365690 0.545453 -0.773150
H34   H     H_    0.335150 0.380769 0.573226 0.241349
H35   H     H_    0.254321 0.336175 0.574362 0.233280
H36   H     H_    0.305368 0.328219 0.511090 0.275927
C69   C     C_3   0.136962 0.632656 0.492628 -0.816955
H37   H     H_    0.085630 0.625143 0.470226 0.243304
H38   H     H_    0.127551 0.657705 0.534888 0.242639
H39   H     H_    0.166667 0.671167 0.466065 0.263658
C70   C     C_3   0.852962 0.356077 0.463345 -0.815306
H40   H     H_    0.908694 0.357990 0.477540 0.242124
H41   H     H_    0.827506 0.316335 0.491744 0.262172
H42   H     H_    0.850807 0.335533 0.418700 0.243210
C71   C     C_3   0.862271 0.632941 0.474209 -0.819965
H43   H     H_    0.918153 0.625484 0.486511 0.241362
H44   H     H_    0.860217 0.659670 0.431688 0.243670
H45   H     H_    0.840527 0.670049 0.506677 0.261287
C72   C     C_3   0.144250 0.355741 0.503694 -0.810713
H46   H     H_    0.093274 0.357617 0.479933 0.242459
H47   H     H_    0.176574 0.315467 0.480955 0.263609
H48   H     H_    0.134954 0.336111 0.547659 0.244174
Br9   Br    Br    0.395178 0.323053 0.409796 -0.410295
Br10  Br    Br    0.601865 0.677009 0.592650 -0.399576
Br11  Br    Br    0.605268 0.323452 0.589891 -0.400227
Br12  Br    Br    0.397879 0.676805 0.407583 -0.401910

loop_
_geom_bond_atom_site_label_1
_geom_bond_atom_site_label_2
_geom_bond_distance
_ccdc_geom_bond_type
C68   H36   1.108247 S    
C46   Br10  1.922472 S    
C58   H4    1.108176 S    
C70   H42   1.109764 S    
C2    C42   1.488453 S    
C71   H43   1.107394 S    
C67   H33   1.106876 S    
C17   C57   1.517941 S    
C59   H7    1.109744 S    
C68   H34   1.109483 S    
C23   C25   1.414425 A    
O5    C3    1.280554 A    
C61   H14   1.109792 S    
N3    C44   1.352913 A    
C60   H10   1.109709 S    
N4    C43   1.354295 A    
O1    C1    1.291477 A    
C19   C21   1.408464 A    
C12   C14   1.418910 A    
C18   C58   1.518401 S    
C34   C68   1.518855 S    
C64   H23   1.110294 S    
C69   H39   1.110470 S    
C33   C37   1.408782 A    
N9    N12   1.337083 A    
C16   Br2   1.946026 S    
C70   H40   1.107703 S    
C70   H41   1.110650 S    
C37   C71   1.522381 S    
C15   C17   1.405676 A    
N2    C8    1.359641 A    
N4    N6    1.327855 A    
C72   H48   1.109799 S    
N5    C43   1.352447 A    
O7    Zn1   1.997418 S    
C6    O10   1.349127 S    
N6    C44   1.354040 A    
C65   H26   1.106912 S    
C59   H8    1.107444 S    
C50   C54   1.407979 A    
C11   C12   1.410249 A    
C49   C53   1.408432 A    
C57   H2    1.110238 S    
C27   Br7   1.932156 S    
C47   C51   1.418264 A    
O3    Zn1   1.984696 S    
O6    C4    1.281957 A    
C63   H21   1.110266 S    
C8    O12   1.346713 S    
O3    C2    1.292190 A    
C24   C26   1.413529 A    
C9    C15   1.420380 A    
C72   H46   1.108497 S    
C60   H11   1.107086 S    
C10   C16   1.420550 A    
C25   C27   1.397989 A    
O2    C2    1.290399 A    
C26   C28   1.400344 A    
C48   Br12  1.921629 S    
C52   Br6   1.931819 S    
C28   C30   1.401278 A    
C6    C14   1.406844 A    
C58   H5    1.110213 S    
C21   C23   1.415467 A    
C61   H15   1.109699 S    
N3    N5    1.325586 A    
C36   C70   1.521816 S    
C65   H25   1.108460 S    
C71   H45   1.110678 S    
N1    C30   1.426992 S    
C52   C54   1.407906 A    
C7    O11   1.346734 S    
C64   H24   1.110206 S    
C51   C53   1.408408 A    
N10   N11   1.337076 A    
N12   C55   1.360931 A    
C65   H27   1.108839 S    
C31   C35   1.406973 A    
C33   C42   1.423137 A    
C20   C60   1.518383 S    
C57   H3    1.110213 S    
C4    C24   1.451039 S    
C32   C42   1.424286 A    
C66   H29   1.107746 S    
C21   C61   1.519002 S    
C31   C41   1.418581 A    
C33   C67   1.519079 S    
C31   C65   1.518182 S    
Zn1   N8    1.991063 S    
C32   C36   1.406834 A    
C48   C52   1.418218 A    
C46   N8    1.377132 A    
C39   C44   1.445744 S    
C40   C43   1.445062 S    
C47   Br11  1.921164 S    
C34   C38   1.405265 A    
C22   C62   1.517618 S    
C3    C23   1.448055 S    
C27   C29   1.400200 A    
C51   Br5   1.931834 S    
C8    C10   1.408713 A    
C58   H6    1.110287 S    
O8    C3    1.281172 A    
C9    C11   1.423192 A    
O8    Zn2   1.997420 S    
C68   H35   1.109105 S    
C10   C12   1.422935 A    
C62   H18   1.109689 S    
C47   N7    1.376560 A    
C54   C55   1.503117 S    
C66   H28   1.109968 S    
C50   Br4   1.931733 S    
N2    C29   1.426882 S    
C53   C56   1.503765 S    
C59   H9    1.109713 S    
C49   Br3   1.931814 S    
C63   H19   1.110155 S    
C37   C40   1.410436 A    
C13   C18   1.419617 A    
C5    N1    1.358357 A    
C38   C39   1.409282 A    
O6    Zn2   1.996450 S    
C7    C9    1.409046 A    
C34   C41   1.419375 A    
C25   C63   1.516511 S    
O4    C1    1.289986 A    
C67   H32   1.106261 S    
N11   C56   1.361055 A    
C69   H37   1.107723 S    
C26   C64   1.515813 S    
C5    O9    1.349059 S    
C38   C72   1.520214 S    
C48   N8    1.376997 A    
C71   H44   1.109797 S    
C61   H13   1.103642 S    
C45   N7    1.376458 A    
C1    C41   1.483036 S    
Zn2   N7    1.991063 S    
C62   H17   1.109791 S    
C66   H30   1.108308 S    
C16   C18   1.405781 A    
C45   Br9   1.920764 S    
C19   C59   1.516868 S    
C64   H22   1.107686 S    
C32   C66   1.520268 S    
C22   C24   1.417444 A    
C20   C30   1.408757 A    
C69   H38   1.109747 S    
N10   C55   1.360950 A    
C46   C50   1.418336 A    
N9    C56   1.361080 A    
C45   C49   1.418267 A    
C28   Br8   1.930812 S    
N1    C7    1.359802 A    
C35   C39   1.411125 A    
C72   H47   1.110469 S    
O4    Zn2   1.984698 S    
C67   H31   1.110171 S    
O2    Zn2   1.984547 S    
O7    C4    1.281179 A    
C5    C13   1.406658 A    
C20   C22   1.406701 A    
C15   Br1   1.945524 S    
O5    Zn1   1.996452 S    
C11   C13   1.418836 A    
O1    Zn1   1.984549 S    
C14   C17   1.419024 A    
C6    N2    1.358483 A    
C60   H12   1.109693 S    
C57   H1    1.108569 S    
C62   H16   1.099175 S    
C36   C40   1.408291 A    
C35   C69   1.520847 S    
C63   H20   1.106284 S    
C19   C29   1.410275 A    
