data_mof_unit_23757.cif
_audit_creation_date              2012-10-26T21:10:50-0400
_audit_creation_method            fapswitch 2.2
_symmetry_space_group_name_H-M    P1
_symmetry_Int_Tables_number       1
_space_group_crystal_system       triclinic
_cell_length_a                    10.783456
_cell_length_b                    14.832208
_cell_length_c                    14.933707
_cell_angle_alpha                 63.41669
_cell_angle_beta                  105.293032
_cell_angle_gamma                 102.566043
_cell_volume                      2046.62922166

loop_
_atom_site_label
_atom_site_type_symbol
_atom_type_description
_atom_site_fract_x
_atom_site_fract_y
_atom_site_fract_z
_atom_type_partial_charge
C1    C     C_R   0.476367 0.120107 0.312506 0.526901
C2    C     C_R   0.684587 0.773004 0.965062 0.048216
C3    C     C_R   0.368597 0.158294 0.131767 -0.156776
C4    C     C_R   0.640429 0.843689 0.866304 -0.166522
C5    C     C_R   0.508816 0.289416 0.174336 -0.055521
C6    C     C_R   0.497574 0.711258 0.827655 -0.142662
C7    C     C_R   0.475877 0.361523 0.074302 0.054720
C8    C     C_R   0.534835 0.640109 0.927584 -0.020448
C9    C     C_R   0.368394 0.335152 0.008205 0.023069
C10   C     C_R   0.645281 0.667456 0.990349 0.084259
C11   C     C_R   0.539784 0.461847 0.042414 0.049433
C12   C     C_R   0.524722 0.880011 0.687511 0.560381
C13   C     C_R   0.471982 0.539841 0.961259 -0.032903
C14   C     C_R   0.341562 0.516061 0.917996 -0.002825
C15   C     C_R   0.669662 0.486372 0.087453 -0.018604
C16   C     C_R   0.263204 0.999387 0.501343 0.535307
C17   C     C_R   0.736823 0.000396 0.498877 0.564974
C18   C     C_R   0.297894 0.414581 0.929647 0.029910
C19   C     C_R   0.718535 0.589131 0.067090 0.011648
C20   C     C_R   0.746722 0.290077 0.647585 0.000911
C21   C     C_R   0.284878 0.722565 0.326209 -0.050721
C22   C     C_R   0.692124 0.202844 0.632148 0.007231
C23   C     C_R   0.870539 0.000315 0.497607 0.018485
C24   C     C_R   0.325012 0.803963 0.354344 0.018031
C25   C     C_R   0.520405 0.289219 0.506584 0.129177
C26   C     C_R   0.480586 0.710865 0.494064 0.148746
C27   C     C_R   0.554842 0.372875 0.534552 -0.009692
C28   C     C_R   0.453677 0.630078 0.462450 -0.049812
C29   C     C_R   0.674322 0.374876 0.603837 0.068340
C30   C     C_R   0.339478 0.629777 0.389062 0.003009
C31   C     C_R   0.477946 0.456207 0.492532 0.019309
C32   C     C_R   0.529956 0.546420 0.505932 -0.002674
C33   C     C_R   0.656681 0.550458 0.561817 -0.126555
C34   C     C_R   0.129455 0.998555 0.503307 0.004964
C35   C     C_R   0.347700 0.450012 0.442953 -0.026467
C36   C     C_R   0.719260 0.463767 0.621720 0.042937
C37   C     C_R   0.279545 0.535038 0.388465 0.076659
C38   C     C_R   0.369957 0.994102 0.798983 -0.105410
C39   C     C_R   0.632595 0.998493 0.201696 -0.065512
C40   C     C_R   0.267683 0.972322 0.729179 -0.070160
C41   C     C_R   0.731035 0.021466 0.272982 -0.095540
C42   C     C_R   0.194813 0.048979 0.652324 0.008089
C43   C     C_R   0.805754 0.946389 0.350421 0.004288
C44   C     C_R   0.222080 0.148167 0.648879 -0.002316
C45   C     C_R   0.903994 0.972860 0.428490 -0.038444
C46   C     C_R   0.783594 0.847306 0.353585 0.047423
C47   C     C_R   0.328461 0.169729 0.717449 -0.013135
C48   C     C_R   0.682253 0.824881 0.282380 -0.070314
C49   C     C_R   0.403337 0.093297 0.792052 0.034959
C50   C     C_R   0.605994 0.899616 0.206956 0.009066
C51   C     C_R   0.966120 0.025326 0.569416 -0.138897
C52   C     C_R   0.033906 0.973012 0.431927 -0.149725
C53   C     C_2   0.517200 0.115940 0.862674 0.263633
C54   C     C_2   0.498631 0.872831 0.134745 0.216894
C55   C     C_2   0.254400 0.188584 0.957311 0.228890
C56   C     C_R   0.095986 0.024682 0.573275 -0.042067
C57   C     C_2   0.762844 0.813910 0.039432 0.246343
C58   C     C_2   0.248133 0.593138 0.880565 0.254765
C59   C     C_2   0.762019 0.408111 0.141651 0.223253
C60   C     C_2   0.822777 0.469609 0.707517 0.329547
C61   C     C_2   0.139436 0.518347 0.346904 0.328225
C62   C     C_2   0.555474 0.693033 0.597524 0.267473
C63   C     C_2   0.433048 0.299521 0.408832 0.265419
C64   C     C_2   0.886178 0.293294 0.692794 0.298195
C65   C     C_2   0.198541 0.742614 0.225552 0.220980
C66   C     C_2   0.142377 0.230017 0.573606 0.197301
C67   C     C_R   0.452116 0.189370 0.204355 -0.018871
C68   C     C_2   0.863257 0.766343 0.431373 0.217310
C69   C     C_2   0.171541 0.392144 0.869935 0.386904
C70   C     C_2   0.855913 0.612721 0.110628 0.307544
C71   C     C_R   0.553291 0.811523 0.795661 -0.007835
C72   C     C_R   0.328782 0.229628 0.032379 0.007510
Cu1   Cu    Cu3+1 0.466270 0.918260 0.475690 0.994138
Cu2   Cu    Cu3+1 0.533730 0.081740 0.524310 0.940217
H1    H     H_    0.707884 0.620489 0.563600 0.150706
H2    H     H_    0.574553 0.312193 0.231101 0.164070
H3    H     H_    0.574681 0.055892 0.918896 0.113380
H4    H     H_    0.483148 0.796967 0.137293 0.156279
H5    H     H_    0.196546 0.115152 0.982745 0.111128
H6    H     H_    0.813687 0.890073 0.012562 0.103546
H7    H     H_    0.279804 0.663647 0.889677 0.119057
H8    H     H_    0.836161 0.409736 0.206211 0.135156
H9    H     H_    0.886504 0.539660 0.697605 0.166856
H10   H     H_    0.074216 0.570299 0.335763 0.127926
H11   H     H_    0.522583 0.629428 0.662712 0.105860
H12   H     H_    0.295174 0.377619 0.449317 0.150415
H13   H     H_    0.351626 0.243214 0.405427 0.139739
H14   H     H_    0.283585 0.874842 0.308534 0.118380
H15   H     H_    0.744452 0.136954 0.667266 0.113642
H16   H     H_    0.923900 0.227604 0.758108 0.104349
H17   H     H_    0.134511 0.801354 0.193397 0.130467
H18   H     H_    0.246790 0.895721 0.733688 0.119243
H19   H     H_    0.748035 0.097908 0.268719 0.139579
H20   H     H_    0.076913 0.222109 0.507969 0.138910
H21   H     H_    0.924194 0.774812 0.498251 0.136171
H22   H     H_    0.101314 0.330866 0.906995 0.116315
H23   H     H_    0.424904 0.933718 0.857220 0.117752
H24   H     H_    0.892583 0.573631 0.191535 0.123806
H25   H     H_    0.676347 0.923442 0.843885 0.098181
H26   H     H_    0.332199 0.078728 0.153070 0.128720
H27   H     H_    0.576461 0.057877 0.143064 0.177246
H28   H     H_    0.354035 0.246640 0.711811 0.219054
H29   H     H_    0.661239 0.748408 0.286483 0.181482
H30   H     H_    0.939479 0.043945 0.623823 0.130323
H31   H     H_    0.060612 0.954396 0.377541 0.129436
H32   H     H_    0.427919 0.687665 0.772873 0.133620
N1    N     N_R   0.584450 0.204570 0.560790 -0.264448
N2    N     N_R   0.415550 0.795430 0.439210 -0.241707
O1    O     O_R   0.455540 0.022090 0.338120 -0.514810
O2    O     O_2   0.425426 0.934490 0.072365 -0.532732
O3    O     O_2   0.263180 0.233009 0.867606 -0.461050
O4    O     O_2   0.765946 0.765493 0.130834 -0.526898
O5    O     O_2   0.134247 0.578229 0.844316 -0.451968
O6    O     O_2   0.758123 0.342596 0.112284 -0.464322
O7    O     O_2   0.831788 0.399029 0.791845 -0.452899
O8    O     O_2   0.094863 0.445388 0.326211 -0.509466
O9    O     O_2   0.658259 0.743714 0.610869 -0.495503
O10   O     O_2   0.451273 0.373014 0.330044 -0.514764
O11   O     O_2   0.961359 0.366419 0.652306 -0.386091
O12   O     O_R   0.544460 0.977910 0.661880 -0.513885
O13   O     O_2   0.203357 0.698078 0.175002 -0.442803
O14   O     O_2   0.148041 0.307628 0.584668 -0.444940
O15   O     O_2   0.862542 0.688936 0.421255 -0.498805
O16   O     O_2   0.146795 0.441023 0.777744 -0.382442
O17   O     O_2   0.929726 0.673593 0.055673 -0.436129
O18   O     O_R   0.512510 0.160150 0.379180 -0.500880
O19   O     O_R   0.487490 0.839850 0.620820 -0.468695
O20   O     O_R   0.291160 0.930970 0.479480 -0.507116
O21   O     O_R   0.708840 0.069030 0.520520 -0.514694
O22   O     O_R   0.348130 0.069020 0.520540 -0.527269
O23   O     O_R   0.651870 0.930980 0.479460 -0.438572
O24   O     O_2   0.548737 0.201662 0.858763 -0.452481

loop_
_geom_bond_atom_site_label_1
_geom_bond_atom_site_label_2
_ccdc_geom_bond_type
Cu1   O23   S    
C34   C56   A    
C8    C13   A    
C23   C45   A    
C17   O23   A    
Cu1   Cu2   S    
C14   C18   A    
C44   C66   S    
C9    C72   A    
C64   H16   S    
C5    C67   A    
C69   H22   S    
C2    C57   S    
C47   C49   A    
C38   C49   A    
C15   C19   A    
C29   C36   A    
C50   C54   S    
C64   O11   D    
C35   C37   A    
C60   H9    S    
C57   O4    D    
C27   C29   A    
C22   N1    A    
C33   C36   A    
C54   O2    D    
C65   H17   S    
C51   C56   A    
C25   C63   S    
C62   O9    D    
C1    O1    A    
Cu2   N1    S    
C12   O12   A    
C11   C15   A    
C3    H26   S    
C33   H1    S    
C41   H19   S    
C58   O5    D    
C63   H13   S    
C66   O14   D    
C24   N2    A    
C65   O13   D    
C16   O22   A    
C55   C72   S    
C44   C47   A    
C66   H20   S    
C42   C56   S    
C18   C69   S    
C40   C42   A    
C47   H28   S    
C13   C14   A    
C59   H8    S    
C12   O19   A    
C41   C43   A    
C57   H6    S    
C42   C44   A    
C38   H23   S    
C68   O15   D    
C26   C28   A    
C39   H27   S    
C20   C29   A    
C6    C71   A    
C14   C58   S    
C62   H11   S    
C46   C48   A    
C68   H21   S    
C27   C31   A    
C28   C32   A    
C1    O18   A    
C39   C41   A    
C58   H7    S    
C26   N2    A    
C5    C7    A    
C63   O10   D    
Cu1   N2    S    
C6    C8    A    
C45   C52   A    
C51   H30   S    
Cu1   O19   S    
C48   H29   S    
C17   O21   A    
C30   C37   A    
C20   C64   S    
C7    C11   A    
C46   C68   S    
C55   H5    S    
C23   C51   A    
C31   C32   A    
C10   C19   A    
C16   C34   S    
C61   O8    D    
C6    H32   S    
C53   O24   D    
C17   C23   S    
C40   H18   S    
C24   H14   S    
C70   O17   D    
C12   C71   S    
C20   C22   A    
C52   H31   S    
Cu2   O22   S    
C53   H3    S    
C31   C35   A    
Cu2   O21   S    
C55   O3    D    
C21   C24   A    
C2    C10   A    
C25   N1    A    
C7    C9    A    
C21   C65   S    
C15   C59   S    
C3    C67   A    
C36   C60   S    
C61   H10   S    
C37   C61   S    
Cu1   O1    S    
C25   C27   A    
Cu1   O20   S    
Cu2   O12   S    
C21   C30   A    
C34   C52   A    
C69   O16   D    
C32   C33   A    
C5    H2    S    
C28   C30   A    
C3    C72   A    
C26   C62   S    
C43   C45   S    
C38   C40   A    
C11   C13   A    
Cu2   O18   S    
C59   O6    D    
C49   C53   S    
C2    C4    A    
C48   C50   A    
C1    C67   S    
C22   H15   S    
C16   O20   A    
C43   C46   A    
C9    C18   A    
C39   C50   A    
C8    C10   A    
C4    H25   S    
C60   O7    D    
C19   C70   S    
C35   H12   S    
C4    C71   A    
C70   H24   S    
C54   H4    S    
