data_mof_unit_50978.cif
_audit_creation_date              2012-12-11T14:33:56-0500
_audit_creation_method            fapswitch 2.2
_symmetry_space_group_name_H-M    P1
_symmetry_Int_Tables_number       1
_space_group_crystal_system       triclinic
_cell_length_a                    14.030144
_cell_length_b                    14.110879
_cell_length_c                    27.255867
_cell_angle_alpha                 89.954665
_cell_angle_beta                  90.17141
_cell_angle_gamma                 120.384018
_cell_volume                      4654.90839904

loop_
_atom_site_label
_atom_site_type_symbol
_atom_type_description
_atom_site_fract_x
_atom_site_fract_y
_atom_site_fract_z
_atom_type_partial_charge
C1    C     C_R   0.234308 0.787059 0.568970 0.535933
C2    C     C_R   0.211763 0.444905 0.568156 0.532458
C3    C     C_R   0.552120 0.765396 0.569158 0.534257
C4    C     C_3   0.656090 0.740092 0.790227 -0.211435
C5    C     C_3   0.198867 0.759486 0.794768 -0.224656
C6    C     C_3   0.083055 0.224695 0.780974 -0.208820
C7    C     C_3   0.634706 0.730383 0.734371 -0.233550
C8    C     C_3   0.208772 0.755969 0.738247 -0.243400
C9    C     C_3   0.081296 0.246761 0.725626 -0.249500
C10   C     C_1   0.697292 0.860416 0.862376 -0.012787
C11   C     C_1   0.136481 0.839811 0.860932 -0.005632
C12   C     C_1   0.163274 0.302681 0.861252 -0.002896
C13   C     C_1   0.626231 0.820329 0.659685 -0.071893
C14   C     C_1   0.180383 0.814688 0.658120 -0.071479
C15   C     C_1   0.189050 0.367980 0.657754 -0.062750
C16   C     C_1   0.599823 0.798134 0.617199 -0.030116
C17   C     C_1   0.201271 0.804867 0.616185 -0.031283
C18   C     C_1   0.194439 0.393276 0.615155 -0.023125
C19   C     C_R   0.107044 0.223150 0.087692 0.543866
C20   C     C_R   0.777270 0.883821 0.087646 0.543066
C21   C     C_R   0.086229 0.935047 0.095815 0.562684
C22   C     C_R   0.107275 0.220142 0.950730 0.566593
C23   C     C_R   0.778618 0.886227 0.951471 0.568125
C24   C     C_R   0.113206 0.892540 0.951045 0.583813
C25   C     C_R   0.631750 0.897953 0.361565 -0.131413
C26   C     C_R   0.089481 0.747173 0.366553 -0.132764
C27   C     C_R   0.271933 0.376991 0.361120 -0.130658
C28   C     C_R   0.655884 0.912826 0.311425 0.015319
C29   C     C_R   0.063906 0.771907 0.320157 0.018507
C30   C     C_R   0.263345 0.354890 0.310881 0.012720
C31   C     C_R   0.692173 0.934816 0.209772 0.012474
C32   C     C_R   0.024591 0.812827 0.223181 0.013717
C33   C     C_R   0.248755 0.320842 0.209067 0.013788
C34   C     C_R   0.232937 0.788467 0.431719 0.549941
C35   C     C_R   0.211620 0.445321 0.431601 0.548099
C36   C     C_R   0.554180 0.766208 0.431453 0.547308
C37   C     C_R   0.692999 0.019679 0.236877 -0.098329
C38   C     C_R   0.943837 0.720827 0.248736 -0.103962
C39   C     C_R   0.340763 0.333944 0.235136 -0.085966
C40   C     C_R   0.673547 0.008205 0.287345 -0.117838
C41   C     C_R   0.963530 0.700089 0.296794 -0.117010
C42   C     C_R   0.348456 0.351326 0.285730 -0.115620
C43   C     C_R   0.717673 0.947838 0.159861 -0.121764
C44   C     C_R   0.009435 0.829264 0.173738 -0.124850
C45   C     C_R   0.235868 0.294047 0.159192 -0.131078
C46   C     C_R   0.719141 0.862884 0.134006 -0.016849
C47   C     C_R   0.094016 0.918485 0.148273 -0.017729
C48   C     C_R   0.143035 0.281652 0.134226 -0.017707
C49   C     C_R   0.625879 0.722883 0.358289 -0.125649
C50   C     C_R   0.265672 0.918281 0.365037 -0.124865
C51   C     C_R   0.091963 0.363029 0.359799 -0.126047
C52   C     C_R   0.642256 0.733019 0.308174 -0.020064
C53   C     C_R   0.244225 0.940748 0.318313 -0.022058
C54   C     C_R   0.084833 0.346624 0.309561 -0.020738
C55   C     C_R   0.656795 0.827877 0.284383 0.055544
C56   C     C_R   0.143391 0.867486 0.295404 0.055079
C57   C     C_R   0.170918 0.343164 0.284785 0.054012
C58   C     C_R   0.637496 0.646284 0.281382 -0.107842
C59   C     C_R   0.326988 0.030574 0.292845 -0.100117
C60   C     C_R   0.996392 0.341495 0.283527 -0.100394
C61   C     C_R   0.646431 0.652306 0.230616 0.134521
C62   C     C_R   0.311917 0.047155 0.243950 0.147925
C63   C     C_R   0.992725 0.333743 0.232672 0.147884
C64   C     C_R   0.665219 0.748638 0.206471 0.020378
C65   C     C_R   0.209207 0.978009 0.221211 0.023883
C66   C     C_R   0.076120 0.325473 0.207649 0.020500
C67   C     C_3   0.558822 0.859904 0.739412 -0.085208
C68   C     C_3   0.039009 0.771042 0.725822 -0.078435
C69   C     C_3   0.185614 0.452361 0.738452 -0.070523
C70   C     C_R   0.670925 0.836948 0.233499 0.036172
C71   C     C_R   0.124822 0.887206 0.246863 0.035999
C72   C     C_R   0.165324 0.329938 0.233814 0.033715
C73   C     C_R   0.684418 0.761341 0.156367 -0.111602
C74   C     C_R   0.190751 0.994491 0.172761 -0.102909
C75   C     C_R   0.069813 0.307338 0.157464 -0.100139
C76   C     C_R   0.611961 0.800594 0.384527 0.002000
C77   C     C_R   0.192336 0.818806 0.388248 0.001162
C78   C     C_R   0.188683 0.386592 0.385044 0.001855
C79   C     C_3   0.763729 0.932167 0.725310 -0.186401
C80   C     C_3   0.231198 0.942118 0.729103 -0.181797
C81   C     C_3   0.287633 0.345876 0.730296 -0.184290
C82   C     C_3   0.777808 0.946893 0.781978 0.045478
C83   C     C_3   0.220156 0.947276 0.785548 0.078936
C84   C     C_3   0.290281 0.348354 0.787598 0.055039
C85   C     C_1   0.727677 0.870188 0.904348 0.027347
C86   C     C_1   0.127262 0.859052 0.903205 0.035968
C87   C     C_1   0.142302 0.271017 0.903239 0.029627
C88   C     C_3   0.645808 0.837652 0.713041 0.067286
C89   C     C_3   0.163402 0.821934 0.711076 0.058880
C90   C     C_3   0.187324 0.354399 0.711457 0.055346
C91   C     C_3   0.573953 0.860911 0.796409 -0.241438
C92   C     C_3   0.031170 0.773575 0.783067 -0.243719
C93   C     C_3   0.165614 0.426702 0.794761 -0.246173
C94   C     C_3   0.676506 0.852212 0.809163 0.072146
C95   C     C_3   0.147085 0.829977 0.807578 0.056487
C96   C     C_3   0.176610 0.325846 0.807865 0.051053
Cr1   Cr    Cr6+3 0.164410 0.584450 0.499910 1.017484
Cr2   Cr    Cr6+3 0.415550 0.579960 0.499910 1.016423
Cr3   Cr    Cr6+3 0.420040 0.835590 0.499910 1.013983
Cr4   Cr    Cr6+3 0.155170 0.075460 0.019960 1.077651
Cr5   Cr    Cr6+3 0.924540 0.079710 0.019960 1.050214
Cr6   Cr    Cr6+3 0.920290 0.844830 0.019960 1.058743
H1    H     H_    0.582899 0.936758 0.813415 0.144679
H2    H     H_    0.987026 0.815627 0.794887 0.184491
H3    H     H_    0.224448 0.498171 0.817528 0.107495
H4    H     H_    0.475619 0.790157 0.731506 0.131178
H5    H     H_    0.994328 0.683157 0.714337 0.135504
H6    H     H_    0.114327 0.458394 0.724216 0.128400
H7    H     H_    0.498970 0.790786 0.813056 0.106414
H8    H     H_    0.980852 0.687891 0.796911 0.110519
H9    H     H_    0.081355 0.409657 0.804485 0.112244
H10   H     H_    0.728549 0.730600 0.798460 0.167052
H11   H     H_    0.281557 0.792842 0.812112 0.160194
H12   H     H_    0.098324 0.155381 0.785565 0.214037
H13   H     H_    0.743210 0.025852 0.142084 0.148031
H14   H     H_    0.933822 0.771661 0.154861 0.148538
H15   H     H_    0.293813 0.276803 0.140740 0.145487
H16   H     H_    0.622309 0.958751 0.381850 0.121873
H17   H     H_    0.032024 0.670832 0.384585 0.121004
H18   H     H_    0.346533 0.394328 0.380621 0.123338
H19   H     H_    0.708126 0.094530 0.218994 0.185242
H20   H     H_    0.867093 0.662959 0.230970 0.176745
H21   H     H_    0.407194 0.332033 0.216211 0.212246
H22   H     H_    0.672695 0.073904 0.307527 0.126364
H23   H     H_    0.901442 0.626614 0.315217 0.124367
H24   H     H_    0.420944 0.362330 0.305100 0.128903
H25   H     H_    0.683242 0.695964 0.135178 0.187973
H26   H     H_    0.253186 0.065493 0.153151 0.176980
H27   H     H_    0.000974 0.301737 0.136999 0.188907
H28   H     H_    0.624176 0.572454 0.299820 0.134971
H29   H     H_    0.406481 0.083794 0.309971 0.139391
H30   H     H_    0.931541 0.346776 0.302615 0.140253
H31   H     H_    0.612885 0.648169 0.375738 0.134368
H32   H     H_    0.344793 0.975380 0.381515 0.137103
H33   H     H_    0.026505 0.368599 0.378183 0.133954
H34   H     H_    0.825298 0.913345 0.709665 0.146748
H35   H     H_    0.319285 0.976621 0.718745 0.155280
H36   H     H_    0.279854 0.267934 0.716664 0.155985
H37   H     H_    0.779959 0.010126 0.707869 0.099470
H38   H     H_    0.203881 0.994436 0.710495 0.107730
H39   H     H_    0.366790 0.413202 0.715442 0.109085
H40   H     H_    0.784699 0.026605 0.791977 0.134346
H41   H     H_    0.180895 0.997155 0.793504 0.189291
H42   H     H_    0.355798 0.431194 0.800014 0.129380
H43   H     H_    0.550961 0.659829 0.726664 0.111114
H44   H     H_    0.161651 0.669034 0.725807 0.120309
H45   H     H_    0.007114 0.252964 0.716783 0.119430
H46   H     H_    0.694118 0.711595 0.716128 0.120784
H47   H     H_    0.297274 0.790649 0.728840 0.123643
H48   H     H_    0.074348 0.176130 0.704371 0.129122
H49   H     H_    0.583656 0.671895 0.809224 0.111724
H50   H     H_    0.146524 0.674537 0.809107 0.105183
H51   H     H_    0.001169 0.200986 0.797114 0.150574
O1    O     O_R   0.137150 0.468200 0.553200 -0.512086
O2    O     O_R   0.531800 0.668950 0.553200 -0.508460
O3    O     O_R   0.331050 0.862850 0.553200 -0.512573
O4    O     O_R   0.179100 0.982980 0.967000 -0.469703
O5    O     O_R   0.017020 0.196120 0.967000 -0.505710
O6    O     O_R   0.803880 0.820900 0.967000 -0.500490
O7    O     O_R   0.173970 0.688730 0.549930 -0.501188
O8    O     O_R   0.311270 0.485240 0.549930 -0.500515
O9    O     O_R   0.514760 0.826030 0.549930 -0.503754
O10   O     O_R   0.140110 0.470540 0.446010 -0.521405
O11   O     O_R   0.529460 0.669570 0.446010 -0.523308
O12   O     O_R   0.330430 0.859890 0.446010 -0.522879
O13   O     O_R   0.176710 0.690910 0.450560 -0.499713
O14   O     O_R   0.309090 0.485800 0.450560 -0.502556
O15   O     O_R   0.514200 0.823290 0.450560 -0.500552
O16   O     O_3   0.333333 0.666667 0.499990 -0.267265
O17   O     O_R   0.176750 0.985260 0.074180 -0.496389
O18   O     O_R   0.014740 0.191490 0.074180 -0.514832
O19   O     O_R   0.808510 0.823250 0.074180 -0.530341
O20   O     O_R   0.146100 0.172630 0.068980 -0.522849
O21   O     O_R   0.827370 0.973470 0.068980 -0.499416
O22   O     O_R   0.026530 0.853900 0.068980 -0.481442
O23   O     O_3   0.000000 0.000000 0.020040 -0.262698
O24   O     O_R   0.148270 0.170520 0.969620 -0.475474
O25   O     O_R   0.829480 0.977750 0.969620 -0.486392
O26   O     O_R   0.022250 0.851730 0.969620 -0.492338
Br1   Br    Br    0.634672 0.527111 0.196844 -0.534957
Br2   Br    Br    0.440370 0.153449 0.208644 -0.517742
Br3   Br    Br    0.871505 0.334726 0.200008 -0.511037
C97   C     C_3   0.559425 0.966320 0.723685 -0.295635
C98   C     C_3   0.527397 0.969144 0.670291 -0.421944
H52   H     H_    0.598149 0.990508 0.645632 0.166212
H53   H     H_    0.454931 0.889554 0.659246 0.157824
H54   H     H_    0.505280 0.033942 0.665892 0.147838
H55   H     H_    0.497753 0.973063 0.746539 0.188804
H56   H     H_    0.640623 0.040481 0.731549 0.154486
C99   C     C_3   0.976824 0.824810 0.702262 -0.288145
C100  C     C_3   0.959529 0.808654 0.646834 -0.442971
H57   H     H_    0.035331 0.868335 0.627003 0.160901
H58   H     H_    0.935405 0.723424 0.636193 0.158144
H59   H     H_    0.892486 0.824085 0.635429 0.137886
H60   H     H_    0.893212 0.785575 0.718919 0.159556
H61   H     H_    0.017929 0.913677 0.711062 0.178385
C101  C     C_3   0.291663 0.566190 0.730301 -0.296496
C102  C     C_3   0.304940 0.609568 0.677567 -0.423963
H62   H     H_    0.351634 0.580975 0.655328 0.167232
H63   H     H_    0.352698 0.699931 0.676302 0.115933
H64   H     H_    0.223589 0.584358 0.660491 0.159793
H65   H     H_    0.289529 0.626505 0.755417 0.127076
H66   H     H_    0.366588 0.564463 0.741279 0.135474
Br4   Br    Br    0.915215 0.957678 0.803172 -0.717631
Br5   Br    Br    0.367189 0.022663 0.816033 -0.520034
Br6   Br    Br    0.334967 0.248247 0.813077 -0.502227

loop_
_geom_bond_atom_site_label_1
_geom_bond_atom_site_label_2
_ccdc_geom_bond_type
C15   C18   T    
C79   H37   S    
C10   C85   T    
C99   C100  S    
C82   C94   S    
C7    H43   S    
C26   C29   A    
C2    C18   S    
C33   C45   A    
C14   C17   T    
C82   H40   S    
C27   C78   A    
C92   H8    S    
C25   H16   S    
C60   H30   S    
C6    C9    S    
C19   O20   A    
C53   C59   A    
C39   H21   S    
C54   C60   A    
C27   H18   S    
C25   C28   A    
C79   H34   S    
C59   H29   S    
C67   C88   S    
C33   C39   A    
C5    H50   S    
C31   C43   A    
C60   C63   A    
C19   O18   A    
Cr3   O15   S    
C37   C40   A    
C69   C93   S    
C22   O24   A    
C34   C77   S    
C64   C70   A    
C45   C48   A    
C28   C40   A    
C11   C86   T    
Cr6   O23   S    
C80   H35   S    
C30   C57   A    
C36   O15   A    
Cr1   O16   S    
C98   H52   S    
C84   H42   S    
C84   C96   S    
C80   C89   S    
C6    H12   S    
C23   O25   A    
Cr5   O25   S    
C36   C76   S    
C33   C72   A    
C93   H3    S    
Cr2   O16   S    
C51   H33   S    
Cr4   O4    S    
C28   C55   A    
C31   C70   A    
C20   O21   A    
C66   C72   A    
C21   O22   A    
C23   O6    A    
Cr4   O23   S    
C35   O14   A    
C64   C73   A    
C101  H66   S    
C102  H62   S    
C68   H5    S    
C32   C38   A    
C39   C42   A    
C34   O12   A    
Cr2   O14   S    
C3    O9    A    
C44   C47   A    
C99   H61   S    
C1    O3    A    
C43   H13   S    
C56   C71   A    
C58   C61   A    
C81   H39   S    
C4    H10   S    
C63   C66   A    
C2    O1    A    
C63   Br3   S    
C27   C30   A    
C69   C101  S    
Cr6   O26   S    
C48   C75   A    
Cr5   O21   S    
C24   O26   A    
C80   C83   S    
Cr4   O24   S    
C97   H56   S    
C2    O8    A    
C3    O2    A    
C79   C88   S    
C5    C95   S    
C69   H6    S    
C32   C71   A    
Cr6   O19   S    
C81   H36   S    
C40   H22   S    
C74   H26   S    
C9    H48   S    
C50   C53   A    
Cr4   O17   S    
C100  H57   S    
C26   C77   A    
Cr1   O7    S    
C41   H23   S    
C26   H17   S    
C38   C41   A    
C21   O17   A    
C50   H32   S    
C42   H24   S    
C24   O4    A    
C22   O5    A    
C4    C7    S    
Cr6   O22   S    
C65   C71   A    
C75   H27   S    
C9    H45   S    
C92   C95   S    
C35   O10   A    
C65   C74   A    
C31   C37   A    
Cr6   O6    S    
C61   C64   A    
C97   C98   S    
C100  H58   S    
C14   C89   S    
C79   C82   S    
Cr3   O9    S    
Cr1   O10   S    
C7    C88   S    
C68   C99   S    
C49   C52   A    
C83   C95   S    
Cr3   O3    S    
C102  H64   S    
C67   C91   S    
C68   C89   S    
C32   C44   A    
C49   C76   A    
C101  H65   S    
C22   C87   S    
C52   C58   A    
C38   H20   S    
C67   C97   S    
C99   H60   S    
C93   H9    S    
C37   H19   S    
C81   C90   S    
Cr3   O12   S    
Cr2   O8    S    
C20   O19   A    
Cr5   O5    S    
C93   C96   S    
C6    C96   S    
C4    C94   S    
C82   Br4   S    
C69   C90   S    
C50   C77   A    
C81   C84   S    
C7    H46   S    
C53   C56   A    
C45   H15   S    
C4    H49   S    
C49   H31   S    
Cr2   O2    S    
C59   C62   A    
C62   C65   A    
C5    H11   S    
C19   C48   S    
C1    O7    A    
C8    H44   S    
C47   C74   A    
C91   H1    S    
Cr1   O1    S    
C9    C90   S    
C5    C8    S    
Cr2   O11   S    
C52   C55   A    
C67   H4    S    
C55   C70   A    
Cr3   O16   S    
C29   C56   A    
C35   C78   S    
C1    C17   S    
C98   H54   S    
C51   C54   A    
C25   C76   A    
C102  H63   S    
C8    H47   S    
C51   C78   A    
C12   C87   T    
C73   H25   S    
C97   H55   S    
C91   C94   S    
C83   H41   S    
C91   H7    S    
C58   H28   S    
C66   C75   A    
C13   C88   S    
C68   C92   S    
C98   H53   S    
Cr5   O18   S    
C30   C42   A    
C57   C72   A    
C101  C102  S    
C43   C46   A    
C100  H59   S    
C6    H51   S    
C92   H2    S    
C84   Br6   S    
C11   C95   S    
C44   H14   S    
C61   Br1   S    
C83   Br5   S    
C23   C85   S    
C13   C16   T    
Cr4   O20   S    
C36   O11   A    
C10   C94   S    
C29   C41   A    
C12   C96   S    
Cr5   O23   S    
C80   H38   S    
C8    C89   S    
C21   C47   S    
C34   O13   A    
C24   C86   S    
C46   C73   A    
C20   C46   S    
C3    C16   S    
Cr1   O13   S    
C15   C90   S    
C54   C57   A    
C62   Br2   S    
