data_mof_unit_23212.cif
_audit_creation_date              2012-12-11T17:10:39-0500
_audit_creation_method            fapswitch 2.2
_symmetry_space_group_name_H-M    P1
_symmetry_Int_Tables_number       1
_space_group_crystal_system       triclinic
_cell_length_a                    14.859918
_cell_length_b                    14.955847
_cell_length_c                    15.060984
_cell_angle_alpha                 110.266486
_cell_angle_beta                  109.651359
_cell_angle_gamma                 109.184761
_cell_volume                      2554.3561376

loop_
_atom_site_label
_atom_site_type_symbol
_atom_type_description
_atom_site_fract_x
_atom_site_fract_y
_atom_site_fract_z
_atom_type_partial_charge
C1    C     C_R   0.199479 0.290006 0.194848 -0.117668
C2    C     C_R   0.496479 0.494906 0.820132 0.079728
C3    C     C_R   0.445872 0.172376 0.493359 0.075669
C4    C     C_R   0.170883 0.442207 0.492891 0.121537
C5    C     C_R   0.409317 0.709495 0.407227 -0.199169
C6    C     C_R   0.802981 0.499029 0.588667 -0.149393
C7    C     C_R   0.496126 0.402915 0.197667 -0.151301
C8    C     C_R   0.724046 0.814620 0.746902 -0.154337
C9    C     C_R   0.815382 0.722343 0.747573 -0.104043
C10   C     C_R   0.406945 0.497019 0.197102 -0.115338
C11   C     C_R   0.495927 0.800946 0.589358 0.488095
C12   C     C_R   0.559724 0.467397 0.779829 -0.141845
C13   C     C_R   0.705969 0.403230 0.406527 -0.100224
C14   C     C_R   0.438049 0.803714 0.497337 -0.062168
C15   C     C_R   0.802935 0.435489 0.495311 0.086368
C16   C     C_R   0.436871 0.433575 0.134909 0.073562
C17   C     C_R   0.826968 0.825115 0.771611 0.022260
C18   C     C_R   0.870955 0.139020 0.087509 -0.161796
C19   C     C_R   0.895000 0.229842 0.180278 -0.112459
C20   C     C_R   0.945266 0.242643 0.285094 0.148317
C21   C     C_R   0.974557 0.164422 0.294471 -0.157674
C22   C     C_R   0.951412 0.074542 0.201597 -0.102210
C23   C     C_R   0.431429 0.185170 0.404346 -0.133298
C24   C     C_R   0.898180 0.060942 0.098068 -0.072959
C25   C     C_R   0.884913 0.359541 0.388682 0.585418
C26   C     C_R   0.882886 0.399015 0.488320 -0.129807
C27   C     C_R   0.963227 0.408680 0.581037 -0.018324
C28   C     C_R   0.059541 0.414183 0.582468 -0.250298
C29   C     C_R   0.064842 0.388607 0.486591 -0.009763
C30   C     C_R   0.966749 0.334344 0.386138 -0.147481
C31   C     C_R   0.032974 0.483085 0.783058 -0.180103
C32   C     C_R   0.017547 0.479259 0.868550 -0.113424
C33   C     C_R   0.916651 0.400873 0.845326 -0.099665
C34   C     C_R   0.272956 0.523426 0.587186 -0.166021
C35   C     C_R   0.830947 0.325898 0.736487 -0.144300
C36   C     C_R   0.846237 0.328704 0.650639 -0.169543
C37   C     C_R   0.947212 0.407984 0.673082 0.157302
C38   C     C_R   0.488684 0.382916 0.907641 0.156974
C39   C     C_R   0.451712 0.446542 0.874178 0.041865
C40   C     C_R   0.367756 0.458630 0.890716 -0.197112
C41   C     C_R   0.345524 0.434435 0.964995 -0.202570
C42   C     C_R   0.409199 0.400580 0.022802 0.034352
C43   C     C_R   0.468018 0.360220 0.981781 0.159167
C44   C     C_3   0.580610 0.374280 0.038973 -0.506969
C45   C     C_R   0.526958 0.273766 0.587535 -0.129329
C46   C     C_3   0.601975 0.397629 0.956465 -0.537999
C47   C     C_R   0.374052 0.886358 0.394054 -0.052588
C48   C     C_R   0.406170 0.884449 0.491517 0.172253
C49   C     C_R   0.425554 0.971870 0.585273 -0.177852
C50   C     C_R   0.423468 0.063495 0.583228 -0.265353
C51   C     C_R   0.399431 0.067451 0.486798 0.082482
C52   C     C_R   0.366901 0.974733 0.391337 -0.163680
C53   C     C_3   0.261905 0.900515 0.280178 0.319616
C54   C     C_3   0.273512 0.803458 0.282080 0.322654
C55   C     C_R   0.023744 0.121223 0.964453 0.067146
C56   C     C_R   0.184748 0.432175 0.404368 -0.131207
C57   C     C_R   0.119256 0.117440 0.014437 0.096244
C58   C     C_R   0.125007 0.023776 0.959894 -0.192917
C59   C     C_R   0.031153 0.930055 0.865519 -0.154536
C60   C     C_R   0.930199 0.928447 0.826021 0.146406
C61   C     C_R   0.929659 0.027326 0.870031 -0.071428
C62   C     C_3   0.912387 0.091497 0.814873 0.551576
C63   C     C_3   0.014280 0.193333 0.918068 -0.638222
C64   C     C_R   0.466842 0.557795 0.780791 -0.148775
C65   C     C_R   0.291440 0.199460 0.195447 -0.135809
C66   C     C_R   0.198426 0.197130 0.130893 0.064432
H1    H     H_    0.147645 0.321746 0.165563 0.100709
H2    H     H_    0.859950 0.528960 0.672896 0.119832
H3    H     H_    0.516274 0.339219 0.170097 0.108864
H4    H     H_    0.704772 0.879472 0.756569 0.155587
H5    H     H_    0.878749 0.700334 0.757747 0.090707
H6    H     H_    0.349030 0.523494 0.169430 0.080125
H7    H     H_    0.666026 0.337334 0.322901 0.160368
H8    H     H_    0.878846 0.990260 0.026180 0.113326
H9    H     H_    0.831521 0.129417 0.007288 0.116771
H10   H     H_    0.875832 0.290017 0.169048 0.157471
H11   H     H_    0.608478 0.431980 0.804141 0.099553
H12   H     H_    0.013864 0.171942 0.373717 0.122108
H13   H     H_    0.973873 0.014803 0.209751 0.124214
H14   H     H_    0.129923 0.438348 0.657332 0.132168
H15   H     H_    0.111374 0.545199 0.802858 0.104069
H16   H     H_    0.083962 0.537235 0.952818 0.084960
H17   H     H_    0.904896 0.397963 0.911550 0.097343
H18   H     H_    0.752980 0.264864 0.718537 0.117462
H19   H     H_    0.779454 0.268910 0.566656 0.121697
H20   H     H_    0.327529 0.496452 0.855781 0.120706
H21   H     H_    0.376920 0.122284 0.318578 0.106772
H22   H     H_    0.291070 0.457118 0.987530 0.122716
H23   H     H_    0.636044 0.447612 0.123538 0.202522
H24   H     H_    0.576414 0.296061 0.030996 0.201625
H25   H     H_    0.668946 0.483562 0.994205 0.203886
H26   H     H_    0.608563 0.331968 0.900045 0.190139
H27   H     H_    0.446422 0.973296 0.661592 0.188527
H28   H     H_    0.447369 0.133500 0.658614 0.135408
H29   H     H_    0.275957 0.913420 0.216550 0.018360
H30   H     H_    0.287972 0.558339 0.669543 0.091891
H31   H     H_    0.297212 0.764772 0.222647 -0.060927
H32   H     H_    0.198326 0.018483 0.994335 0.116793
H33   H     H_    0.035772 0.856217 0.831417 0.111423
H34   H     H_    0.833207 0.091246 0.798119 0.006811
H35   H     H_    0.085198 0.229685 0.906969 0.223137
H36   H     H_    0.995192 0.253999 0.963094 0.156200
H37   H     H_    0.565597 0.288608 0.669435 0.089241
H38   H     H_    0.123590 0.381464 0.318371 0.108518
H39   H     H_    0.431118 0.605582 0.808746 0.083799
H40   H     H_    0.325464 0.149228 0.167946 0.083557
H41   H     H_    0.352951 0.676909 0.321976 0.140587
N1    N     N_R   0.291070 0.347930 0.293870 -0.039915
N2    N     N_R   0.708930 0.502750 0.556810 -0.042536
N3    N     N_R   0.502760 0.445970 0.293860 -0.039118
N4    N     N_R   0.652110 0.708890 0.706130 -0.048633
N5    N     N_R   0.708930 0.652070 0.706130 -0.039222
N6    N     N_R   0.445950 0.502780 0.293850 -0.035594
N7    N     N_R   0.502760 0.708900 0.556790 -0.101130
N8    N     N_R   0.652110 0.445950 0.443190 -0.053407
N9    N     N_R   0.554050 0.497220 0.706150 -0.035980
N10   N     N_R   0.497240 0.291100 0.443210 -0.045714
N11   N     N_R   0.347890 0.554050 0.556810 -0.060998
N12   N     N_R   0.554050 0.347900 0.556830 -0.038368
N13   N     N_R   0.291070 0.497250 0.443190 -0.042640
N14   N     N_R   0.497240 0.554030 0.706140 -0.043139
N15   N     N_R   0.347890 0.291110 0.293870 -0.038279
N16   N     N_R   0.445950 0.652100 0.443170 -0.065129
Ni1   Ni    Ni4+2 0.369690 0.500010 0.369700 0.206217
Ni2   Ni    Ni4+2 0.630310 0.499990 0.630300 0.220135
Ni3   Ni    Ni4+2 0.500000 0.369720 0.369720 0.205737
Ni4   Ni    Ni4+2 0.500000 0.630280 0.630280 0.206245
O1    O     O_3   0.531115 0.874790 0.696433 -0.674564
C67   C     C_3   0.479958 0.819780 0.740090 0.220000
H42   H     H_    0.514280 0.768067 0.756618 0.119764
H43   H     H_    0.388497 0.768354 0.684026 0.103052
C68   C     C_3   0.503577 0.905051 0.849092 -0.915247
H44   H     H_    0.469430 0.958300 0.836457 0.252198
H45   H     H_    0.464504 0.862810 0.884925 0.211576
H46   H     H_    0.594264 0.957359 0.907452 0.264638
O2    O     O_3   0.811608 0.350006 0.295598 -0.643819
C69   C     C_3   0.858057 0.451292 0.299445 -0.350559
H47   H     H_    0.943312 0.478517 0.313403 0.155412
H48   H     H_    0.859217 0.517215 0.364196 0.170246
H49   H     H_    0.806425 0.440197 0.219275 0.189413
O3    O     O_3   0.160073 0.894435 0.268294 -0.615155
C70   C     C_3   0.151377 0.919938 0.363686 0.393764
H50   H     H_    0.187316 0.010480 0.413754 0.080024
H51   H     H_    0.192130 0.891042 0.414685 0.139120
C71   C     C_3   0.029791 0.864148 0.329556 -0.929910
H52   H     H_    0.991117 0.773255 0.279255 0.266088
H53   H     H_    0.021669 0.884787 0.403704 0.215126
H54   H     H_    0.985686 0.892650 0.280617 0.248709
O4    O     O_3   0.189041 0.729948 0.286995 -0.610433
C72   C     C_3   0.113333 0.634203 0.182177 0.350876
H55   H     H_    0.155705 0.593221 0.151287 0.049419
H56   H     H_    0.070262 0.654883 0.122876 0.109119
C73   C     C_3   0.027842 0.552616 0.190309 -0.972930
H57   H     H_    0.983214 0.589954 0.220732 0.258499
H58   H     H_    0.967149 0.476883 0.108358 0.206960
H59   H     H_    0.069501 0.529621 0.247684 0.254313
O5    O     O_3   0.927912 0.059338 0.723670 -0.590692
C74   C     C_3   0.902741 0.115677 0.669756 -0.203260
H60   H     H_    0.957827 0.206564 0.725224 0.154270
H61   H     H_    0.814365 0.093106 0.636413 0.128215
H62   H     H_    0.916701 0.091042 0.599365 0.165751

loop_
_geom_bond_atom_site_label_1
_geom_bond_atom_site_label_2
_ccdc_geom_bond_type
C34   N11   A    
C18   H9    S    
C53   H29   S    
C59   H33   S    
C41   C42   A    
C3    C23   A    
C35   C36   A    
C58   H32   S    
C57   C66   S    
C63   H35   S    
C2    C12   A    
O1    C67   S    
C71   H52   S    
N16   Ni1   S    
C20   C30   S    
C53   C54   S    
C67   H43   S    
C69   H48   S    
C28   C29   A    
C26   C27   A    
O5    C74   S    
N8    Ni3   S    
C18   C24   A    
C19   H10   S    
C34   H30   S    
C22   H13   S    
N14   Ni4   S    
N10   N12   A    
C38   C39   A    
C11   C14   A    
C46   H26   S    
C64   N14   A    
C18   C19   A    
C40   H20   S    
C25   O2    S    
C11   N7    A    
C45   H37   S    
C74   H62   S    
C1    H1    S    
C6    C15   A    
C2    C39   S    
C47   C48   A    
C2    C64   A    
C68   H44   S    
C72   C73   S    
C55   C63   S    
C21   H12   S    
C54   H31   S    
C73   H58   S    
N10   Ni3   S    
C53   O3    S    
C4    C29   S    
C67   C68   S    
C45   N12   A    
C9    N5    A    
C6    H2    S    
C59   C60   A    
C23   H21   S    
C21   C22   A    
C4    C56   A    
C74   H61   S    
C56   N13   A    
C70   C71   S    
N1    Ni1   S    
C63   H36   S    
C71   H53   S    
C44   C46   S    
C1    C66   A    
C54   O4    S    
C69   H49   S    
C4    C34   A    
N9    N14   A    
C51   C52   A    
C64   H39   S    
C56   H38   S    
C8    N4    A    
C39   C40   A    
C3    C51   S    
C50   H28   S    
C15   C26   S    
C14   C48   S    
C46   H25   S    
C17   C60   S    
C58   C59   A    
C3    C45   A    
C31   C37   A    
C60   C61   A    
N15   Ni3   S    
C43   C44   S    
C23   N10   A    
C29   C30   A    
C31   C32   A    
C12   H11   S    
C62   C63   S    
C50   C51   A    
C5    C14   A    
C62   O5    S    
C65   N15   A    
C73   H59   S    
C33   H17   S    
N3    N6    A    
N5    Ni2   S    
C13   N8    A    
C10   N6    A    
N3    Ni3   S    
C47   C54   S    
C62   H34   S    
N7    N16   A    
N12   Ni2   S    
C9    C17   A    
C40   C41   A    
C13   H7    S    
C65   C66   A    
N9    Ni2   S    
C13   C15   A    
N4    Ni4   S    
C74   H60   S    
C6    N2    A    
C72   H56   S    
N11   Ni4   S    
C16   C42   S    
C65   H40   S    
C71   H54   S    
C44   H24   S    
C52   C53   S    
C67   H42   S    
C5    H41   S    
N2    Ni2   S    
C25   C30   A    
C41   H22   S    
C36   C37   A    
N4    N5    A    
C72   H55   S    
C7    C16   A    
C9    H5    S    
N1    N15   A    
O2    C69   S    
C7    H3    S    
C35   H18   S    
C47   C52   A    
C36   H19   S    
C32   H16   S    
C69   H47   S    
C5    N16   A    
C8    H4    S    
C8    C17   A    
C31   H15   S    
C7    N3    A    
C32   C33   A    
C19   C20   A    
C55   C57   A    
C11   O1    S    
C25   C26   A    
C38   C43   A    
C10   C16   A    
O3    C70   S    
N7    Ni4   S    
C24   H8    S    
C57   C58   A    
N6    Ni1   S    
C27   C37   S    
C68   H46   S    
C48   C49   A    
C55   C61   A    
C33   C35   A    
C22   C24   A    
C61   C62   S    
C28   H14   S    
N11   N13   A    
C38   C46   S    
N2    N8    A    
C1    N1    A    
C20   C21   A    
C68   H45   S    
C49   C50   A    
C42   C43   A    
C27   C28   A    
C70   H50   S    
C49   H27   S    
C73   H57   S    
O4    C72   S    
C70   H51   S    
C44   H23   S    
N13   Ni1   S    
C12   N9    A    
C10   H6    S    
