data_mof_unit_60395.cif
_audit_creation_date              2012-12-10T19:16:33-0500
_audit_creation_method            fapswitch 2.2
_symmetry_space_group_name_H-M    P1
_symmetry_Int_Tables_number       1
_space_group_crystal_system       triclinic
_cell_length_a                    13.893809
_cell_length_b                    14.776458
_cell_length_c                    16.002383
_cell_angle_alpha                 89.641055
_cell_angle_beta                  89.836468
_cell_angle_gamma                 84.615191
_cell_volume                      3270.7386724

loop_
_atom_site_label
_atom_site_type_symbol
_atom_type_description
_atom_site_fract_x
_atom_site_fract_y
_atom_site_fract_z
_atom_type_partial_charge
C1    C     C_R   0.499853 0.499749 0.659088 0.812882
C2    C     C_R   0.500147 0.500251 0.340912 0.812883
C3    C     C_1   0.499302 0.499079 0.748067 -0.122924
C4    C     C_1   0.500699 0.500920 0.251933 -0.122923
C5    C     C_R   0.428093 0.054798 0.456609 0.221382
C6    C     C_R   0.571907 0.945201 0.543391 0.221382
C7    C     C_R   0.500090 0.097118 0.499925 -0.197797
C8    C     C_R   0.499910 0.902882 0.500075 -0.197797
C9    C     C_R   0.572027 0.041432 0.543272 0.227580
C10   C     C_R   0.427973 0.958568 0.456728 0.227580
C11   C     C_1   0.500077 0.197393 0.499951 0.338016
C12   C     C_1   0.499922 0.802606 0.500049 0.338015
C13   C     C_R   0.683479 0.485264 0.499799 0.830531
C14   C     C_R   0.316521 0.514736 0.500201 0.830531
C15   C     C_1   0.213477 0.524149 0.501517 -0.130284
C16   C     C_1   0.786523 0.475851 0.498482 -0.130284
C17   C     C_2   0.021737 0.538512 0.504826 0.393135
C18   C     C_2   0.978263 0.461487 0.495174 0.393135
C19   C     C_1   0.873307 0.468423 0.497022 -0.059517
C20   C     C_1   0.126693 0.531577 0.502978 -0.059517
C21   C     C_R   0.451801 0.435714 0.045236 0.370572
C22   C     C_R   0.548200 0.564284 0.954764 0.370573
C23   C     C_R   0.501603 0.500359 0.087339 -0.162182
C24   C     C_R   0.498399 0.499640 0.912661 -0.162182
C25   C     C_R   0.551222 0.563502 0.042353 0.166830
C26   C     C_R   0.448780 0.436497 0.957647 0.166832
C27   C     C_1   0.501235 0.501194 0.176967 0.127736
C28   C     C_1   0.498766 0.498805 0.823033 0.127742
Cu1   Cu    Cu3+1 0.499970 0.410780 0.500000 1.038214
Cu2   Cu    Cu3+1 0.500030 0.589220 0.500000 1.038213
N1    N     N_1   0.499970 0.723290 0.500020 -0.139434
N2    N     N_1   0.500030 0.276710 0.499980 -0.139434
O1    O     O_R   0.499950 0.424680 0.619690 -0.551544
O2    O     O_R   0.500050 0.575320 0.380310 -0.551544
O3    O     O_R   0.500000 0.575360 0.619690 -0.577742
O4    O     O_R   0.500000 0.424640 0.380310 -0.577740
O5    O     O_R   0.637820 0.414010 0.499980 -0.575464
O6    O     O_R   0.362180 0.585990 0.500020 -0.575465
O7    O     O_R   0.637870 0.564690 0.499980 -0.549406
O8    O     O_R   0.362130 0.435310 0.500020 -0.549406
O9    O     O_3   0.035799 0.379389 0.483616 -0.590448
C29   C     C_3   0.981425 0.303944 0.474582 0.045728
H1    H     H_    0.933598 0.312742 0.418825 0.158221
H2    H     H_    0.937532 0.294273 0.531733 0.169864
C30   C     C_3   0.050215 0.218741 0.462208 -0.624247
H3    H     H_    0.098940 0.207719 0.516976 0.262258
H4    H     H_    0.008343 0.158809 0.455299 0.205807
H5    H     H_    0.094482 0.225841 0.405043 0.271321
O10   O     O_3   0.964201 0.620610 0.516384 -0.590448
C31   C     C_3   0.018575 0.696056 0.525419 0.045728
H6    H     H_    0.062468 0.705728 0.468268 0.169864
H7    H     H_    0.066402 0.687258 0.581176 0.158221
C32   C     C_3   0.949785 0.781258 0.537793 -0.624246
H8    H     H_    0.905518 0.774158 0.594957 0.271321
H9    H     H_    0.991657 0.841191 0.544703 0.205807
H10   H     H_    0.901060 0.792281 0.483024 0.262258
Br1   Br    Br    0.375944 0.351110 0.900633 -0.424710
Br2   Br    Br    0.624058 0.648887 0.099367 -0.424713
O11   O     O_3   0.400586 0.375522 0.089849 -0.529664
C33   C     C_3   0.463097 0.297135 0.108763 0.065739
H11   H     H_    0.528488 0.314495 0.143131 0.133385
H12   H     H_    0.486155 0.260113 0.050599 0.182543
C34   C     C_3   0.409897 0.234084 0.164096 -0.635862
H13   H     H_    0.344901 0.214038 0.131298 0.267654
H14   H     H_    0.458172 0.171967 0.179188 0.208592
H15   H     H_    0.387247 0.268962 0.223236 0.259576
O12   O     O_3   0.599414 0.624477 0.910151 -0.529666
C35   C     C_3   0.536903 0.702863 0.891238 0.065740
H16   H     H_    0.513862 0.739892 0.949403 0.182556
H17   H     H_    0.471502 0.685505 0.856884 0.133379
C36   C     C_3   0.590095 0.765905 0.835888 -0.635872
H18   H     H_    0.612731 0.731020 0.776748 0.259571
H19   H     H_    0.541821 0.828022 0.820797 0.208594
H20   H     H_    0.655100 0.785952 0.868673 0.267657
Br3   Br    Br    0.328801 0.902580 0.397387 -0.419702
Br4   Br    Br    0.671198 0.097420 0.602613 -0.419702
Br5   Br    Br    0.329340 0.129198 0.396803 -0.466642
Br6   Br    Br    0.670660 0.870802 0.603197 -0.466642

loop_
_geom_bond_atom_site_label_1
_geom_bond_atom_site_label_2
_ccdc_geom_bond_type
C21   C26   A    
C34   H14   S    
O9    C29   S    
C6    C9    A    
C1    O1    A    
C32   H8    S    
C7    C11   S    
Cu1   O4    S    
Cu2   O3    S    
C33   C34   S    
C3    C28   T    
C24   C26   A    
C21   O11   S    
Cu1   N2    S    
C16   C19   T    
Cu2   N1    S    
C6    Br6   S    
Cu1   O1    S    
C17   C20   S    
Cu2   O6    S    
C33   H12   S    
C18   C19   S    
C35   H16   S    
C22   C25   A    
C31   H7    S    
C9    Br4   S    
C23   C27   S    
C13   O5    A    
C2    O2    A    
C30   H4    S    
C34   H15   S    
O11   C33   S    
C29   H2    S    
C31   H6    S    
C32   H9    S    
C15   C20   T    
C31   C32   S    
Cu2   O2    S    
O12   C35   S    
C18   O9    S    
C17   O10   S    
C5    C7    A    
C6    C8    A    
C30   H5    S    
C30   H3    S    
C33   H11   S    
C1    C3    S    
C29   C30   S    
C2    C4    S    
Cu1   Cu2   S    
C14   O6    A    
C10   Br3   S    
C8    C12   S    
C17   C18   D    
C35   H17   S    
C11   N2    T    
C21   C23   A    
C12   N1    T    
C22   C24   A    
C25   Br2   S    
C5    Br5   S    
C4    C27   T    
C1    O3    A    
C36   H19   S    
C32   H10   S    
C2    O4    A    
C7    C9    A    
C24   C28   S    
C36   H20   S    
C36   H18   S    
C35   C36   S    
Cu1   O8    S    
Cu2   O7    S    
C23   C25   A    
C26   Br1   S    
C22   O12   S    
C13   O7    A    
C14   O8    A    
C34   H13   S    
C5    C10   A    
C8    C10   A    
O10   C31   S    
C29   H1    S    
C13   C16   S    
Cu1   O5    S    
C14   C15   S    
