data_mof_unit_13856.cif
_audit_creation_date              2012-12-10T17:50:35-0500
_audit_creation_method            fapswitch 2.2
_symmetry_space_group_name_H-M    P1
_symmetry_Int_Tables_number       1
_space_group_crystal_system       triclinic
_cell_length_a                    15.685937
_cell_length_b                    10.735746
_cell_length_c                    10.002014
_cell_angle_alpha                 91.362734
_cell_angle_beta                  89.113104
_cell_angle_gamma                 94.034075
_cell_volume                      1679.53219993

loop_
_atom_site_label
_atom_site_type_symbol
_atom_type_description
_atom_site_fract_x
_atom_site_fract_y
_atom_site_fract_z
_atom_type_partial_charge
C1    C     C_R   0.508892 0.262162 0.498539 0.873987
C2    C     C_3   0.082884 0.499242 0.502208 0.166290
C3    C     C_3   0.976278 0.602343 0.560981 0.025578
C4    C     C_3   0.917127 0.498844 0.498560 0.155012
C5    C     C_3   0.034427 0.599827 0.435705 -0.265450
C6    C     C_3   0.974017 0.494722 0.372720 -0.155294
C7    C     C_1   0.173805 0.499437 0.503124 -0.031375
C8    C     C_1   0.826138 0.498877 0.497067 -0.021274
C9    C     C_R   0.588604 0.135418 0.719648 -0.249610
C10   C     C_R   0.590515 0.083839 0.846576 -0.011555
C11   C     C_R   0.541681 0.970363 0.869537 0.047840
C12   C     C_R   0.338255 0.500223 0.500879 0.903791
C13   C     C_R   0.508026 0.900918 0.759016 -0.201488
C14   C     C_R   0.517234 0.946241 0.627541 0.059575
C15   C     C_R   0.544121 0.071898 0.614020 0.090706
C16   C     C_R   0.522808 0.131091 0.496160 -0.104615
C17   C     C_R   0.499436 0.061492 0.381804 -0.143319
C18   C     C_R   0.488976 0.934117 0.387146 -0.190475
C19   C     C_R   0.497066 0.874891 0.508765 -0.115433
C20   C     C_R   0.417412 0.294604 0.133155 0.033633
C21   C     C_R   0.411355 0.181134 0.061374 -0.237296
C22   C     C_R   0.408881 0.182771 0.923416 -0.298912
C23   C     C_R   0.497092 0.740187 0.502627 0.893182
C24   C     C_R   0.415382 0.297087 0.860110 0.026199
C25   C     C_R   0.456846 0.402378 0.926770 0.146072
C26   C     C_R   0.457064 0.401934 0.070587 0.005461
C27   C     C_R   0.545867 0.589883 0.069689 0.078519
C28   C     C_R   0.543048 0.590331 0.927853 -0.146354
C29   C     C_R   0.661786 0.500340 0.499140 0.913501
C30   C     C_3   0.965932 0.398526 0.564985 -0.171349
C31   C     C_3   0.024426 0.394277 0.439034 -0.139813
C32   C     C_1   0.249225 0.499844 0.502712 -0.117474
C33   C     C_1   0.750761 0.499484 0.497264 -0.132441
C34   C     C_3   0.026381 0.503396 0.628456 -0.139045
H1    H     H_    0.046589 0.308710 0.389032 0.153207
H2    H     H_    0.468249 0.817362 0.779214 0.220233
H3    H     H_    0.472174 0.882190 0.296161 0.200246
H4    H     H_    0.383070 0.099297 0.870844 0.175707
H5    H     H_    0.950599 0.490869 0.268425 0.161985
H6    H     H_    0.064412 0.682393 0.383731 0.155226
H7    H     H_    0.049791 0.507671 0.732776 0.165992
H8    H     H_    0.487112 0.105472 0.288946 0.181283
N1    N     N_R   0.499210 0.498800 0.142780 -0.126577
N2    N     N_R   0.499180 0.498720 0.857170 -0.123850
O1    O     O_R   0.500000 0.316780 0.614690 -0.663655
O2    O     O_R   0.499990 0.316750 0.385360 -0.608635
O3    O     O_R   0.376780 0.500000 0.614650 -0.585352
O4    O     O_R   0.376770 0.499980 0.385310 -0.647455
O5    O     O_R   0.500010 0.683250 0.614640 -0.640904
O6    O     O_R   0.500000 0.683220 0.385310 -0.568683
O7    O     O_R   0.623230 0.500020 0.614690 -0.628709
O8    O     O_R   0.623220 0.500000 0.385350 -0.552330
Zn1   Zn    Zn3+2 0.500010 0.500020 0.653130 0.965640
Zn2   Zn    Zn3+2 0.499990 0.499980 0.346870 1.014183
C35   C     C_2   0.516654 0.930286 0.006564 0.298683
H9    H     H_    0.544222 0.977421 0.093903 0.136398
O9    O     O_2   0.461403 0.846091 0.024147 -0.615978
C36   C     C_2   0.605642 0.688726 0.129011 0.467386
H10   H     H_    0.629432 0.766344 0.068300 0.052590
O10   O     O_2   0.634836 0.683045 0.240027 -0.530939
C37   C     C_2   0.346117 0.305442 0.228538 0.500761
H11   H     H_    0.303829 0.380206 0.217668 0.073152
O11   O     O_2   0.329774 0.226713 0.313145 -0.612645
H12   H     H_    0.386817 0.096074 0.109083 0.202822
C38   C     C_2   0.344445 0.309118 0.768907 0.514229
H13   H     H_    0.337683 0.249227 0.680139 0.056021
O12   O     O_2   0.288166 0.378159 0.799098 -0.577046
H14   H     H_    0.578965 0.662643 0.872736 0.145724
H15   H     H_    0.935877 0.316230 0.617313 0.154099
C39   C     C_2   0.948057 0.718544 0.628543 0.399266
H16   H     H_    0.967965 0.809186 0.588575 0.064437
O13   O     O_2   0.902387 0.711701 0.728319 -0.548823
H17   H     H_    0.621833 0.225888 0.703490 0.155183
C40   C     C_2   0.638230 0.157214 0.952231 0.370574
H18   H     H_    0.649024 0.257754 0.943655 0.080120
O14   O     O_2   0.669863 0.106583 0.045538 -0.580343

loop_
_geom_bond_atom_site_label_1
_geom_bond_atom_site_label_2
_ccdc_geom_bond_type
C35   H9    S    
C11   C13   A    
C2    C7    S    
C12   O4    A    
O4    Zn2   S    
O6    Zn2   S    
C40   O14   D    
C28   H14   S    
C18   H3    S    
C5    C6    S    
C1    O2    A    
C23   O5    A    
C36   O10   D    
C15   C16   A    
C22   H4    S    
C29   C33   S    
C18   C19   A    
C20   C37   S    
C37   O11   D    
C17   H8    S    
C21   H12   S    
N2    Zn1   S    
C16   C17   A    
C38   O12   D    
C39   H16   S    
C9    C10   A    
C4    C8    S    
O3    Zn1   S    
C2    C34   S    
C6    C31   S    
O1    Zn1   S    
C13   C14   A    
C12   C32   S    
C34   H7    S    
C9    H17   S    
C12   O3    A    
C25   N2    A    
O8    Zn2   S    
C26   N1    A    
C40   H18   S    
C30   C34   S    
C3    C39   S    
C24   C25   A    
C13   H2    S    
C4    C6    S    
C23   O6    A    
C3    C34   S    
C36   H10   S    
C28   N2    A    
C2    C31   S    
O7    Zn1   S    
C19   C23   S    
N1    Zn2   S    
O2    Zn2   S    
C17   C18   A    
C1    C16   S    
C24   C38   S    
C35   O9    D    
C22   C24   A    
C2    C5    S    
C3    C4    S    
C30   H15   S    
C11   C35   S    
C29   O7    A    
C7    C32   T    
C14   C15   A    
C14   C19   A    
C3    C5    S    
C27   C36   S    
C25   C26   A    
C10   C40   S    
C1    O1    A    
C30   C31   S    
C20   C26   A    
O5    Zn1   S    
C31   H1    S    
C8    C33   T    
C9    C15   A    
C37   H11   S    
C10   C11   A    
C27   N1    A    
C20   C21   A    
C38   H13   S    
C5    H6    S    
C27   C28   A    
C6    H5    S    
C39   O13   D    
C21   C22   A    
C4    C30   S    
C29   O8    A    
