data_mof_unit_64874.cif
_audit_creation_date              2012-12-10T17:51:39-0500
_audit_creation_method            fapswitch 2.2
_symmetry_space_group_name_H-M    P1
_symmetry_Int_Tables_number       1
_space_group_crystal_system       triclinic
_cell_length_a                    18.646873
_cell_length_b                    18.734319
_cell_length_c                    18.724843
_cell_angle_alpha                 109.135097
_cell_angle_beta                  109.271646
_cell_angle_gamma                 109.34647
_cell_volume                      5076.08740173

loop_
_atom_site_label
_atom_site_type_symbol
_atom_type_description
_atom_site_fract_x
_atom_site_fract_y
_atom_site_fract_z
_atom_type_partial_charge
C1    C     C_R   0.620136 0.119075 0.998763 0.970823
C2    C     C_R   0.505343 0.766237 0.680862 0.079221
C3    C     C_R   0.510645 0.830993 0.749404 0.358165
C4    C     C_R   0.495128 0.114997 0.119052 0.923017
C5    C     C_R   0.499893 0.815249 0.814694 -0.188563
C6    C     C_R   0.322250 0.819411 0.076214 -0.238562
C7    C     C_R   0.259551 0.757496 0.079150 0.390186
C8    C     C_R   0.188464 0.685216 0.000891 -0.142744
C9    C     C_R   0.181408 0.674015 0.920910 -0.226884
C10   C     C_R   0.244275 0.735839 0.917296 0.160834
C11   C     C_R   0.314330 0.809606 0.996290 -0.109668
C12   C     C_R   0.822958 0.246024 0.001788 -0.238436
C13   C     C_R   0.620089 0.500532 0.620886 0.957909
C14   C     C_R   0.503029 0.384187 0.385484 0.843906
C15   C     C_R   0.380208 0.503585 0.383456 0.906886
C16   C     C_R   0.380000 0.877916 0.998078 0.846060
C17   C     C_R   0.497155 0.622584 0.619803 0.916383
C18   C     C_R   0.879620 0.500634 0.880695 0.990417
C19   C     C_R   0.878203 0.380170 0.998620 0.887886
C20   C     C_R   0.120260 0.499035 0.119588 0.905842
C21   C     C_R   0.121343 0.619934 0.000822 0.947420
C22   C     C_R   0.762417 0.576099 0.748785 -0.263593
C23   C     C_R   0.810560 0.314289 0.997240 -0.095970
C24   C     C_R   0.826340 0.577488 0.813578 0.360904
C25   C     C_R   0.812646 0.499883 0.815000 -0.288112
C26   C     C_R   0.735878 0.420763 0.751527 0.281610
C27   C     C_R   0.672465 0.419385 0.685164 0.361455
C28   C     C_R   0.500159 0.880805 0.880815 0.929776
C29   C     C_R   0.685784 0.497992 0.685336 -0.260270
C30   C     C_R   0.301619 0.463223 0.230186 0.096671
C31   C     C_R   0.236327 0.462415 0.165607 -0.150244
C32   C     C_R   0.186422 0.498589 0.186130 -0.140696
C33   C     C_R   0.199977 0.535243 0.270677 -0.173259
C34   C     C_R   0.734200 0.317462 0.990381 0.183203
C35   C     C_R   0.263693 0.536522 0.335452 0.355678
C36   C     C_R   0.314538 0.501427 0.315316 -0.155641
C37   C     C_2   0.497545 0.245284 0.322373 -0.220386
C38   C     C_2   0.515254 0.322703 0.326760 0.223508
C39   C     C_2   0.509784 0.183231 0.262677 -0.094311
C40   C     C_2   0.480337 0.168907 0.181270 -0.251910
C41   C     C_R   0.760793 0.180782 0.001845 0.416060
C42   C     C_3   0.506268 0.778823 0.604668 -0.306782
C43   C     C_3   0.599099 0.833077 0.623927 -0.724617
C44   C     C_3   0.235816 0.718842 0.829186 -0.419264
C45   C     C_R   0.672354 0.251999 0.991319 -0.229868
C46   C     C_3   0.166554 0.736640 0.780016 -0.732218
C47   C     C_3   0.357277 0.423666 0.211092 -0.367247
C48   C     C_3   0.334371 0.378763 0.115990 -0.833930
C49   C     C_3   0.714444 0.386070 0.977852 -0.370960
C50   C     C_3   0.730809 0.454215 0.062414 -0.798229
C51   C     C_3   0.469886 0.719921 0.884481 -0.354702
C52   C     C_3   0.430792 0.625378 0.864706 -0.863539
C53   C     C_R   0.685861 0.184785 0.997761 -0.145510
C54   C     C_R   0.484391 0.736054 0.814157 0.094267
C55   C     C_R   0.483623 0.673933 0.748009 -0.185414
C56   C     C_R   0.494239 0.688605 0.682852 -0.135517
Cl1   Cl    Cl    0.532519 0.933148 0.754871 -0.568627
Cl2   Cl    Cl    0.274723 0.771094 0.181808 -0.566066
Cl3   Cl    Cl    0.923955 0.676916 0.889701 -0.577351
Cl4   Cl    Cl    0.717593 0.323750 0.756283 -0.521490
Cl5   Cl    Cl    0.571813 0.363160 0.276369 -0.600708
Cl6   Cl    Cl    0.579713 0.318439 0.600362 -0.507735
Cl7   Cl    Cl    0.279026 0.583708 0.441533 -0.629398
Cl8   Cl    Cl    0.777347 0.093531 0.002513 -0.548092
H1    H     H_    0.475708 0.228069 0.364408 0.188045
H2    H     H_    0.881409 0.243740 0.005586 0.186273
H3    H     H_    0.613375 0.253363 0.986923 0.173430
H4    H     H_    0.630316 0.900341 0.677240 0.295511
H5    H     H_    0.640277 0.804173 0.642829 0.261882
H6    H     H_    0.596853 0.836031 0.565015 0.242771
H7    H     H_    0.472964 0.715805 0.544475 0.226876
H8    H     H_    0.467456 0.810689 0.588300 0.254326
H9    H     H_    0.183814 0.805241 0.817501 0.271546
H10   H     H_    0.162425 0.724674 0.716283 0.249964
H11   H     H_    0.101638 0.693119 0.768429 0.258497
H12   H     H_    0.476243 0.613845 0.747089 0.180387
H13   H     H_    0.298456 0.758439 0.834353 0.206419
H14   H     H_    0.217497 0.650023 0.790474 0.209589
H15   H     H_    0.265729 0.324877 0.075275 0.260353
H16   H     H_    0.344608 0.426143 0.091940 0.258023
H17   H     H_    0.377695 0.350992 0.110284 0.272560
H18   H     H_    0.426776 0.475614 0.249249 0.238373
H19   H     H_    0.351393 0.374821 0.233325 0.199400
H20   H     H_    0.799961 0.486572 0.113515 0.276039
H21   H     H_    0.716790 0.504101 0.051658 0.252739
H22   H     H_    0.687605 0.423702 0.085032 0.264158
H23   H     H_    0.376970 0.875935 0.136473 0.189982
H24   H     H_    0.753572 0.418557 0.953119 0.223633
H25   H     H_    0.645016 0.354841 0.927635 0.224891
H26   H     H_    0.369899 0.583243 0.800803 0.267832
H27   H     H_    0.478579 0.602253 0.865540 0.261253
H28   H     H_    0.414448 0.620527 0.915457 0.258103
H29   H     H_    0.533065 0.759206 0.946177 0.235758
H30   H     H_    0.424258 0.742169 0.895323 0.181929
H31   H     H_    0.126510 0.617018 0.861102 0.175307
H32   H     H_    0.772382 0.636268 0.748218 0.212133
H33   H     H_    0.224238 0.434875 0.099540 0.177232
H34   H     H_    0.160839 0.562618 0.286499 0.200630
H35   H     H_    0.541279 0.149360 0.284898 0.182948
H36   H     H_    0.440836 0.196481 0.158186 0.184933
O1    O     O_R   0.539900 0.091920 0.948590 -0.602185
O2    O     O_R   0.908310 0.551980 0.960300 -0.595879
O3    O     O_R   0.908280 0.357000 0.948510 -0.593905
O4    O     O_R   0.643340 0.091290 0.051390 -0.574607
O5    O     O_R   0.908310 0.459790 0.051330 -0.637231
O6    O     O_R   0.091510 0.448020 0.039520 -0.639039
O7    O     O_R   0.091540 0.550800 0.142340 -0.605433
O8    O     O_R   0.091520 0.540220 0.948490 -0.646836
O9    O     O_R   0.091540 0.643000 0.051310 -0.547548
O10   O     O_R   0.448270 0.091350 0.039630 -0.626567
O11   O     O_R   0.551710 0.090720 0.142430 -0.612671
O12   O     O_R   0.643360 0.554400 0.594170 -0.623851
O13   O     O_R   0.356660 0.908710 0.948610 -0.620367
O14   O     O_R   0.460100 0.908080 0.051410 -0.634022
O15   O     O_R   0.448290 0.909280 0.857570 -0.584137
O16   O     O_R   0.551730 0.908650 0.960370 -0.616638
O17   O     O_R   0.539910 0.450960 0.594180 -0.577033
O18   O     O_R   0.448310 0.360490 0.412110 -0.628584
O19   O     O_R   0.551750 0.463920 0.412090 -0.571556
O20   O     O_R   0.356690 0.452080 0.412090 -0.586739
O21   O     O_R   0.460130 0.555510 0.412070 -0.634155
O22   O     O_R   0.448290 0.542560 0.594160 -0.609904
O23   O     O_R   0.551730 0.645990 0.594150 -0.634498
O24   O     O_R   0.908290 0.449200 0.857490 -0.585213
Zn1   Zn    Zn3+2 0.430930 0.000420 0.931360 1.029054
Zn2   Zn    Zn3+2 0.569070 0.999580 0.068640 1.035229
Zn3   Zn    Zn3+2 0.430950 0.434180 0.503140 1.056998
Zn4   Zn    Zn3+2 0.569090 0.572300 0.503120 1.008784
Zn5   Zn    Zn3+2 0.999890 0.431370 0.931260 1.027099
Zn6   Zn    Zn3+2 0.999930 0.568630 0.068560 1.066134

loop_
_geom_bond_atom_site_label_1
_geom_bond_atom_site_label_2
_ccdc_geom_bond_type
O6    Zn5   S    
C55   C56   A    
C22   C29   A    
C1    O1    A    
C27   C29   A    
C52   H26   S    
C35   C36   A    
C16   O13   A    
O20   Zn3   S    
C50   H20   S    
C7    C8    A    
C15   O20   A    
C12   C23   A    
C26   C27   A    
C12   C41   A    
C48   H15   S    
C13   C29   S    
C44   H13   S    
C27   Cl6   S    
C13   O12   A    
C30   C31   A    
O14   Zn2   S    
O13   Zn1   S    
C48   H17   S    
C33   H34   S    
C18   O2    A    
C47   H18   S    
O22   Zn3   S    
C1    C53   S    
C28   O16   A    
C50   H21   S    
C19   O3    A    
C17   O23   A    
C4    C40   S    
C8    C9    A    
C14   O18   A    
C37   H1    S    
C45   H3    S    
O1    Zn1   S    
C47   H19   S    
C9    C10   A    
C9    H31   S    
C7    Cl2   S    
C20   O7    A    
O19   Zn4   S    
C45   C53   A    
C43   H5    S    
O16   Zn2   S    
C49   H24   S    
C18   C25   S    
O7    Zn6   S    
C46   H11   S    
C44   C46   S    
C20   O6    A    
C10   C44   S    
C51   C52   S    
C30   C47   S    
C24   C25   A    
O21   Zn4   S    
C6    C11   A    
C43   H4    S    
O10   Zn1   S    
C25   C26   A    
C12   H2    S    
C6    H23   S    
C19   C23   S    
C37   C38   D    
C28   O15   A    
C14   C38   S    
C5    C28   S    
O3    Zn5   S    
C11   C16   S    
C5    C54   A    
C39   H35   S    
C47   C48   S    
C1    O4    A    
C23   C34   A    
O11   Zn2   S    
C42   H8    S    
C8    C21   S    
C34   C45   A    
O17   Zn3   S    
C17   C56   S    
C41   C53   A    
O8    Zn5   S    
C6    C7    A    
C51   H29   S    
C55   H12   S    
C3    Cl1   S    
C4    O11   A    
C14   O19   A    
C43   H6    S    
C22   C24   A    
C52   H28   S    
O18   Zn3   S    
C19   O5    A    
C15   C36   S    
C46   H10   S    
C20   C32   S    
C4    O10   A    
C54   C55   A    
C34   C49   S    
C15   O21   A    
C22   H32   S    
C31   C32   A    
O2    Zn6   S    
C49   H25   S    
C3    C5    A    
C16   O14   A    
C40   H36   S    
C13   O17   A    
O5    Zn6   S    
O15   Zn1   S    
C30   C36   A    
C51   C54   S    
C32   C33   A    
C38   Cl5   S    
C44   H14   S    
C2    C3    A    
C37   C39   S    
C2    C56   A    
C48   H16   S    
O23   Zn4   S    
C2    C42   S    
C24   Cl3   S    
C42   H7    S    
C33   C35   A    
O24   Zn5   S    
C31   H33   S    
O12   Zn4   S    
C21   O8    A    
C10   C11   A    
C50   H22   S    
C51   H30   S    
C39   C40   D    
C17   O22   A    
O4    Zn2   S    
C49   C50   S    
C42   C43   S    
O9    Zn6   S    
C52   H27   S    
C35   Cl7   S    
C41   Cl8   S    
C26   Cl4   S    
C46   H9    S    
C18   O24   A    
C21   O9    A    
