data_mof_unit_66106.cif
_audit_creation_date              2012-12-10T17:42:07-0500
_audit_creation_method            fapswitch 2.2
_symmetry_space_group_name_H-M    P1
_symmetry_Int_Tables_number       1
_space_group_crystal_system       triclinic
_cell_length_a                    24.355575
_cell_length_b                    24.355573
_cell_length_c                    42.975354
_cell_angle_alpha                 89.999932
_cell_angle_beta                  89.999969
_cell_angle_gamma                 89.999757
_cell_volume                      25492.7214902

loop_
_atom_site_label
_atom_site_type_symbol
_atom_type_description
_atom_site_fract_x
_atom_site_fract_y
_atom_site_fract_z
_atom_type_partial_charge
C1    C     C_R   0.500000 1.000000 0.934013 0.083939
C2    C     C_R   0.500000 0.000000 0.065987 0.083936
C3    C     C_R   1.000000 0.500000 0.934013 0.083939
C4    C     C_R   1.000000 0.500000 0.065987 0.083935
C5    C     C_R   0.000000 0.500000 0.434013 0.083936
C6    C     C_R   1.000000 0.500000 0.565987 0.083939
C7    C     C_R   0.500000 0.000000 0.434013 0.083935
C8    C     C_R   0.500000 1.000000 0.565987 0.083939
C9    C     C_R   0.183957 0.734594 0.729998 0.112081
C10   C     C_R   0.816150 0.265300 0.269916 0.112082
C11   C     C_R   0.265049 0.183600 0.730288 0.112091
C12   C     C_R   0.734956 0.816406 0.269704 0.112092
C13   C     C_R   0.816078 0.265371 0.730023 0.112096
C14   C     C_R   0.183856 0.734695 0.269920 0.112095
C15   C     C_R   0.734651 0.816101 0.730044 0.112082
C16   C     C_R   0.265372 0.183923 0.269977 0.112089
C17   C     C_R   0.816406 0.734956 0.269704 0.112092
C18   C     C_R   0.183600 0.265050 0.730288 0.112094
C19   C     C_R   0.734700 0.183851 0.269916 0.112096
C20   C     C_R   0.265406 0.816043 0.729998 0.112094
C21   C     C_R   0.183922 0.265372 0.269977 0.112089
C22   C     C_R   0.816102 0.734652 0.730044 0.112079
C23   C     C_R   0.265305 0.816145 0.269919 0.112082
C24   C     C_R   0.734629 0.183922 0.730024 0.112084
C25   C     C_R   0.683850 0.234700 0.230084 0.112082
C26   C     C_R   0.316043 0.765406 0.770002 0.112081
C27   C     C_R   0.765044 0.683594 0.230296 0.112092
C28   C     C_R   0.234951 0.316400 0.769712 0.112091
C29   C     C_R   0.316144 0.765305 0.230080 0.112095
C30   C     C_R   0.683922 0.234628 0.769977 0.112096
C31   C     C_R   0.234627 0.316077 0.230023 0.112089
C32   C     C_R   0.765349 0.683899 0.769956 0.112082
C33   C     C_R   0.316400 0.234950 0.769712 0.112094
C34   C     C_R   0.683594 0.765044 0.230295 0.112092
C35   C     C_R   0.234594 0.683957 0.770002 0.112094
C36   C     C_R   0.765300 0.316149 0.230084 0.112096
C37   C     C_R   0.683898 0.765348 0.769956 0.112079
C38   C     C_R   0.316078 0.234628 0.230023 0.112089
C39   C     C_R   0.765371 0.316078 0.769976 0.112084
C40   C     C_R   0.234695 0.683855 0.230081 0.112082
C41   C     C_R   0.229626 0.729626 0.750000 0.062625
C42   C     C_R   0.770374 0.270374 0.250000 0.062623
C43   C     C_R   0.270374 0.229626 0.750000 0.062586
C44   C     C_R   0.729626 0.770374 0.250000 0.062610
C45   C     C_R   0.770374 0.270374 0.750000 0.062606
C46   C     C_R   0.229626 0.729626 0.250000 0.062627
C47   C     C_R   0.729626 0.770374 0.750000 0.062625
C48   C     C_R   0.270374 0.229626 0.250000 0.062599
C49   C     C_R   0.770374 0.729626 0.250000 0.062610
C50   C     C_R   0.229626 0.270374 0.750000 0.062586
C51   C     C_R   0.729626 0.229626 0.250000 0.062623
C52   C     C_R   0.270374 0.770374 0.750000 0.062625
C53   C     C_R   0.229626 0.270374 0.250000 0.062599
C54   C     C_R   0.770374 0.729626 0.750000 0.062625
C55   C     C_R   0.270374 0.770374 0.250000 0.062627
C56   C     C_R   0.729626 0.229626 0.750000 0.062606
C57   C     C_R   0.179380 0.780122 0.710208 -0.214587
C58   C     C_R   0.820834 0.219664 0.289618 -0.214586
C59   C     C_R   0.219163 0.178665 0.710790 -0.214545
C60   C     C_R   0.780848 0.821347 0.289195 -0.214574
C61   C     C_R   0.820692 0.219807 0.710261 -0.214598
C62   C     C_R   0.179176 0.780325 0.289626 -0.214612
C63   C     C_R   0.780240 0.820738 0.710303 -0.214585
C64   C     C_R   0.219810 0.179312 0.289742 -0.214571
C65   C     C_R   0.821347 0.780848 0.289195 -0.214573
C66   C     C_R   0.178665 0.219163 0.710790 -0.214548
C67   C     C_R   0.780336 0.179166 0.289618 -0.214610
C68   C     C_R   0.219879 0.820620 0.710207 -0.214608
C69   C     C_R   0.179311 0.219810 0.289742 -0.214572
C70   C     C_R   0.820739 0.780240 0.710304 -0.214583
C71   C     C_R   0.219675 0.820823 0.289626 -0.214589
C72   C     C_R   0.780193 0.179308 0.710262 -0.214578
C73   C     C_R   0.679166 0.280336 0.210382 -0.214586
C74   C     C_R   0.320620 0.719878 0.789792 -0.214587
C75   C     C_R   0.719152 0.678653 0.210805 -0.214574
C76   C     C_R   0.280837 0.321335 0.789210 -0.214545
C77   C     C_R   0.320823 0.719675 0.210374 -0.214612
C78   C     C_R   0.679308 0.280193 0.789739 -0.214598
C79   C     C_R   0.280190 0.320688 0.210258 -0.214571
C80   C     C_R   0.719760 0.679262 0.789696 -0.214585
C81   C     C_R   0.321335 0.280837 0.789210 -0.214548
C82   C     C_R   0.678653 0.719152 0.210805 -0.214573
C83   C     C_R   0.280121 0.679380 0.789792 -0.214608
C84   C     C_R   0.719664 0.320834 0.210382 -0.214610
C85   C     C_R   0.679261 0.719760 0.789696 -0.214583
C86   C     C_R   0.320688 0.280190 0.210258 -0.214572
C87   C     C_R   0.719807 0.320692 0.789738 -0.214578
C88   C     C_R   0.280325 0.679176 0.210374 -0.214589
C89   C     C_R   0.499999 0.950274 0.917424 -0.166729
C90   C     C_R   0.500000 0.049726 0.082576 -0.166727
C91   C     C_R   0.049726 0.500002 0.917424 -0.166722
C92   C     C_R   0.950274 0.499999 0.082576 -0.166718
C93   C     C_R   0.500002 0.049726 0.917424 -0.166721
C94   C     C_R   0.499998 0.950274 0.082576 -0.166719
C95   C     C_R   0.950274 0.499999 0.917424 -0.166727
C96   C     C_R   0.049726 0.500001 0.082576 -0.166727
C97   C     C_R   0.999999 0.450273 0.417424 -0.166727
C98   C     C_R   0.000001 0.549726 0.582576 -0.166729
C99   C     C_R   0.549726 0.000001 0.417424 -0.166718
C100  C     C_R   0.450274 0.999998 0.582576 -0.166722
C101  C     C_R   0.000001 0.549726 0.417424 -0.166719
C102  C     C_R   0.999998 0.450274 0.582576 -0.166721
C103  C     C_R   0.450273 0.999999 0.417424 -0.166727
C104  C     C_R   0.549726 0.000001 0.582576 -0.166727
C105  C     C_R   0.499999 0.950280 0.884963 -0.190396
C106  C     C_R   0.500001 0.049720 0.115037 -0.190387
C107  C     C_R   0.049720 0.500002 0.884963 -0.190356
C108  C     C_R   0.950280 0.499999 0.115037 -0.190341
C109  C     C_R   0.500002 0.049720 0.884963 -0.190351
C110  C     C_R   0.499999 0.950280 0.115037 -0.190342
C111  C     C_R   0.950280 0.499999 0.884963 -0.190392
C112  C     C_R   0.049720 0.500001 0.115037 -0.190387
C113  C     C_R   0.999999 0.450280 0.384963 -0.190387
C114  C     C_R   0.000001 0.549720 0.615037 -0.190396
C115  C     C_R   0.549720 0.000001 0.384963 -0.190341
C116  C     C_R   0.450280 0.999998 0.615037 -0.190356
C117  C     C_R   0.000001 0.549720 0.384963 -0.190342
C118  C     C_R   0.999998 0.450280 0.615037 -0.190351
C119  C     C_R   0.450280 0.999999 0.384963 -0.190387
C120  C     C_R   0.549720 0.000001 0.615037 -0.190392
C121  C     C_R   0.500000 1.000000 0.665901 0.782461
C122  C     C_R   0.500000 0.000000 0.334099 0.782469
C123  C     C_R   1.000000 0.500000 0.665901 0.782461
C124  C     C_R   0.000000 0.500000 0.334099 0.782469
C125  C     C_R   1.000000 0.500000 0.165901 0.782469
C126  C     C_R   1.000000 0.500000 0.834099 0.782461
C127  C     C_R   0.500000 0.000000 0.165901 0.782469
C128  C     C_R   0.500000 1.000000 0.834099 0.782461
C129  C     C_R   0.605910 0.894090 0.750000 0.821098
C130  C     C_R   0.394090 0.105910 0.250000 0.821088
C131  C     C_R   0.105910 0.605910 0.750000 0.821078
C132  C     C_R   0.894090 0.394090 0.250000 0.821078
C133  C     C_R   0.394090 0.105910 0.750000 0.821092
C134  C     C_R   0.605910 0.894090 0.250000 0.821084
C135  C     C_R   0.894090 0.394090 0.750000 0.821077
C136  C     C_R   0.105910 0.605910 0.250000 0.821078
C137  C     C_R   0.394090 0.894090 0.250000 0.821078
C138  C     C_R   0.605910 0.105910 0.750000 0.821077
C139  C     C_R   0.894090 0.605910 0.250000 0.821084
C140  C     C_R   0.105910 0.394090 0.750000 0.821092
C141  C     C_R   0.605910 0.105910 0.250000 0.821078
C142  C     C_R   0.394090 0.894090 0.750000 0.821079
C143  C     C_R   0.105910 0.394090 0.250000 0.821088
C144  C     C_R   0.894090 0.605910 0.750000 0.821098
C145  C     C_R   0.500000 1.000000 0.868417 -0.003088
C146  C     C_R   0.500000 0.000000 0.131582 -0.003094
C147  C     C_R   1.000000 0.500000 0.868417 -0.003087
C148  C     C_R   1.000000 0.500000 0.131582 -0.003094
C149  C     C_R   0.000000 0.500000 0.368418 -0.003095
C150  C     C_R   1.000000 0.500000 0.631582 -0.003087
C151  C     C_R   0.500000 0.000000 0.368418 -0.003094
C152  C     C_R   0.500000 1.000000 0.631582 -0.003087
C153  C     C_R   1.000000 0.500000 0.531605 0.289504
C154  C     C_R   0.000000 0.500000 0.468395 0.289506
C155  C     C_R   0.500000 1.000000 0.531605 0.289504
C156  C     C_R   0.500000 0.000000 0.468395 0.289506
C157  C     C_R   0.500000 0.000000 0.031605 0.289506
C158  C     C_R   0.500000 1.000000 0.968395 0.289504
C159  C     C_R   1.000000 0.500000 0.031605 0.289506
C160  C     C_R   0.000000 0.500000 0.968395 0.289504
C161  C     C_R   0.193922 0.643637 0.769864 -0.254380
C162  C     C_R   0.805974 0.356467 0.230219 -0.254377
C163  C     C_R   0.356714 0.194272 0.769579 -0.254318
C164  C     C_R   0.643281 0.805722 0.230428 -0.254338
C165  C     C_R   0.806044 0.356397 0.769840 -0.254331
C166  C     C_R   0.194022 0.643538 0.230216 -0.254339
C167  C     C_R   0.643580 0.806021 0.769820 -0.254330
C168  C     C_R   0.356397 0.193956 0.230160 -0.254340
C169  C     C_R   0.805722 0.643281 0.230428 -0.254339
C170  C     C_R   0.194273 0.356714 0.769579 -0.254314
C171  C     C_R   0.643533 0.194026 0.230220 -0.254337
C172  C     C_R   0.356363 0.806077 0.769864 -0.254342
C173  C     C_R   0.193955 0.356396 0.230160 -0.254340
C174  C     C_R   0.806022 0.643581 0.769821 -0.254334
C175  C     C_R   0.356462 0.805979 0.230216 -0.254379
C176  C     C_R   0.643603 0.193956 0.769841 -0.254366
C177  C     C_R   0.694026 0.143533 0.269781 -0.254377
C178  C     C_R   0.306078 0.856363 0.730136 -0.254380
C179  C     C_R   0.856719 0.694278 0.269572 -0.254338
C180  C     C_R   0.143286 0.305727 0.730421 -0.254318
C181  C     C_R   0.305978 0.856462 0.269784 -0.254339
C182  C     C_R   0.693956 0.143603 0.730160 -0.254331
C183  C     C_R   0.143603 0.306044 0.269840 -0.254340
C184  C     C_R   0.856420 0.693979 0.730180 -0.254330
C185  C     C_R   0.305727 0.143286 0.730421 -0.254314
C186  C     C_R   0.694278 0.856719 0.269572 -0.254339
C187  C     C_R   0.143637 0.693922 0.730136 -0.254342
C188  C     C_R   0.856467 0.305974 0.269780 -0.254337
C189  C     C_R   0.693978 0.856419 0.730179 -0.254334
C190  C     C_R   0.306045 0.143604 0.269840 -0.254340
C191  C     C_R   0.856396 0.306044 0.730159 -0.254366
C192  C     C_R   0.143538 0.694021 0.269784 -0.254379
C193  C     C_R   0.148424 0.648424 0.750000 -0.046492
C194  C     C_R   0.851576 0.351575 0.250000 -0.046488
C195  C     C_R   0.351576 0.148424 0.750000 -0.046486
C196  C     C_R   0.648424 0.851576 0.250000 -0.046485
C197  C     C_R   0.851575 0.351576 0.750000 -0.046483
C198  C     C_R   0.148424 0.648424 0.250000 -0.046490
C199  C     C_R   0.648424 0.851575 0.750000 -0.046497
C200  C     C_R   0.351576 0.148424 0.250000 -0.046491
C201  C     C_R   0.851576 0.648424 0.250000 -0.046485
C202  C     C_R   0.148424 0.351576 0.750000 -0.046486
C203  C     C_R   0.648424 0.148424 0.250000 -0.046488
C204  C     C_R   0.351576 0.851576 0.750000 -0.046492
C205  C     C_R   0.148424 0.351575 0.250000 -0.046491
C206  C     C_R   0.851576 0.648425 0.750000 -0.046497
C207  C     C_R   0.351575 0.851576 0.250000 -0.046489
C208  C     C_R   0.648425 0.148424 0.750000 -0.046483
H1    H     H_    0.144498 0.784392 0.694744 0.146902
H2    H     H_    0.855801 0.215308 0.305012 0.146898
H3    H     H_    0.214613 0.143503 0.695553 0.146880
H4    H     H_    0.785403 0.856513 0.304425 0.146884
H5    H     H_    0.855603 0.215507 0.694821 0.146881
H6    H     H_    0.144214 0.784675 0.305024 0.146886
H7    H     H_    0.784559 0.855669 0.694880 0.146906
H8    H     H_    0.215513 0.144402 0.305186 0.146886
H9    H     H_    0.856513 0.785402 0.304426 0.146884
H10   H     H_    0.143503 0.214613 0.695553 0.146878
H11   H     H_    0.784691 0.144199 0.305012 0.146884
H12   H     H_    0.215608 0.855502 0.694743 0.146889
H13   H     H_    0.144402 0.215512 0.305186 0.146886
H14   H     H_    0.855669 0.784560 0.694881 0.146908
H15   H     H_    0.215324 0.855786 0.305023 0.146900
H16   H     H_    0.784494 0.144397 0.694821 0.146895
H17   H     H_    0.644199 0.284691 0.194988 0.146898
H18   H     H_    0.355502 0.715608 0.805256 0.146902
H19   H     H_    0.714597 0.643487 0.195575 0.146884
H20   H     H_    0.285387 0.356497 0.804446 0.146880
H21   H     H_    0.355785 0.715324 0.194976 0.146886
H22   H     H_    0.644397 0.284493 0.805179 0.146881
H23   H     H_    0.284487 0.355597 0.194814 0.146886
H24   H     H_    0.715441 0.644331 0.805120 0.146906
H25   H     H_    0.356497 0.285386 0.804447 0.146878
H26   H     H_    0.643487 0.714597 0.195574 0.146884
H27   H     H_    0.284392 0.644498 0.805256 0.146889
H28   H     H_    0.715309 0.355801 0.194988 0.146884
H29   H     H_    0.644331 0.715440 0.805119 0.146908
H30   H     H_    0.355598 0.284488 0.194814 0.146886
H31   H     H_    0.715506 0.355603 0.805179 0.146895
H32   H     H_    0.284676 0.644214 0.194977 0.146900
H33   H     H_    0.197757 0.608550 0.785239 0.164785
H34   H     H_    0.802056 0.391636 0.214911 0.164779
H35   H     H_    0.392082 0.198388 0.784726 0.164788
H36   H     H_    0.607909 0.801602 0.215287 0.164789
H37   H     H_    0.802182 0.391510 0.785196 0.164797
H38   H     H_    0.197936 0.608372 0.214906 0.164805
H39   H     H_    0.608449 0.802142 0.785160 0.164806
H40   H     H_    0.391510 0.197818 0.214805 0.164796
H41   H     H_    0.801602 0.607909 0.215288 0.164789
H42   H     H_    0.198389 0.392082 0.784725 0.164791
H43   H     H_    0.608364 0.197944 0.214911 0.164803
H44   H     H_    0.391450 0.802242 0.785239 0.164806
H45   H     H_    0.197817 0.391510 0.214804 0.164796
H46   H     H_    0.802143 0.608450 0.785161 0.164804
H47   H     H_    0.391628 0.802065 0.214905 0.164781
H48   H     H_    0.608490 0.197817 0.785197 0.164776
H49   H     H_    0.697944 0.108364 0.285089 0.164779
H50   H     H_    0.302243 0.891450 0.714761 0.164785
H51   H     H_    0.892091 0.698398 0.284713 0.164789
H52   H     H_    0.107918 0.301612 0.715274 0.164788
H53   H     H_    0.302064 0.891628 0.285094 0.164805
H54   H     H_    0.697818 0.108490 0.714804 0.164797
H55   H     H_    0.108490 0.302182 0.285195 0.164796
H56   H     H_    0.891551 0.697858 0.714840 0.164806
H57   H     H_    0.301611 0.107918 0.715275 0.164791
H58   H     H_    0.698398 0.892091 0.284712 0.164789
H59   H     H_    0.108550 0.697758 0.714761 0.164806
H60   H     H_    0.891636 0.302056 0.285089 0.164803
H61   H     H_    0.697857 0.891550 0.714839 0.164804
H62   H     H_    0.302183 0.108490 0.285196 0.164796
H63   H     H_    0.891510 0.302183 0.714803 0.164776
H64   H     H_    0.108372 0.697935 0.285095 0.164781
H65   H     H_    0.499998 0.911234 0.929475 0.150025
H66   H     H_    0.500001 0.088766 0.070525 0.150027
H67   H     H_    0.088766 0.500003 0.929475 0.150033
H68   H     H_    0.911234 0.499998 0.070525 0.150037
H69   H     H_    0.500003 0.088766 0.929475 0.150034
H70   H     H_    0.499998 0.911234 0.070525 0.150036
H71   H     H_    0.911234 0.499998 0.929475 0.150025
H72   H     H_    0.088766 0.500001 0.070525 0.150026
H73   H     H_    0.999999 0.411234 0.429475 0.150027
H74   H     H_    0.000002 0.588766 0.570525 0.150025
H75   H     H_    0.588766 0.000002 0.429475 0.150037
H76   H     H_    0.411234 0.999997 0.570525 0.150033
H77   H     H_    0.000002 0.588766 0.429475 0.150036
H78   H     H_    0.999997 0.411234 0.570525 0.150034
H79   H     H_    0.411234 0.999999 0.429475 0.150026
H80   H     H_    0.588766 0.000002 0.570525 0.150025
N1    N     N_R   0.500001 0.047935 0.984519 -0.179173
N2    N     N_R   0.499999 0.952065 0.015481 -0.179172
N3    N     N_R   0.952065 0.499999 0.984519 -0.179174
N4    N     N_R   0.047935 0.500001 0.015481 -0.179176
N5    N     N_R   0.499999 0.952065 0.984519 -0.179176
N6    N     N_R   0.500000 0.047935 0.015481 -0.179175
N7    N     N_R   0.047935 0.500001 0.984519 -0.179174
N8    N     N_R   0.952065 0.499999 0.015481 -0.179171
N9    N     N_R   0.000001 0.547935 0.484519 -0.179172
N10   N     N_R   0.999999 0.452065 0.515481 -0.179173
N11   N     N_R   0.452065 0.999999 0.484519 -0.179176
N12   N     N_R   0.547935 0.000000 0.515481 -0.179175
N13   N     N_R   1.000000 0.452065 0.484519 -0.179175
N14   N     N_R   0.000001 0.547935 0.515481 -0.179176
N15   N     N_R   0.547935 0.000001 0.484519 -0.179171
N16   N     N_R   0.452065 0.999999 0.515481 -0.179174
O1    O     O_3   0.500000 1.000000 0.750000 -0.472732
O2    O     O_3   0.500000 0.000000 0.250000 -0.472732
O3    O     O_3   0.000000 0.500000 0.750000 -0.472732
O4    O     O_3   1.000000 0.500000 0.250000 -0.472732
O5    O     O_R   0.454060 1.000000 0.680770 -0.646128
O6    O     O_R   0.545940 0.000000 0.319230 -0.646115
O7    O     O_R   1.000000 0.454060 0.680770 -0.646124
O8    O     O_R   1.000000 0.545940 0.319230 -0.646115
O9    O     O_R   0.545940 1.000000 0.680770 -0.646166
O10   O     O_R   0.454060 0.000000 0.319230 -0.646162
O11   O     O_R   1.000000 0.545940 0.680770 -0.646170
O12   O     O_R   1.000000 0.454060 0.319230 -0.646162
O13   O     O_R   0.954060 0.500000 0.180770 -0.646115
O14   O     O_R   0.045940 0.500000 0.819230 -0.646128
O15   O     O_R   0.500000 0.954060 0.180770 -0.646115
O16   O     O_R   0.500000 0.045940 0.819230 -0.646123
O17   O     O_R   0.045940 0.500000 0.180770 -0.646162
O18   O     O_R   0.954060 0.500000 0.819230 -0.646166
O19   O     O_R   0.500000 0.045940 0.180770 -0.646162
O20   O     O_R   0.500000 0.954060 0.819230 -0.646170
O21   O     O_R   0.610280 0.935490 0.731900 -0.648967
O22   O     O_R   0.389720 0.064510 0.268100 -0.648974
O23   O     O_R   0.064510 0.610280 0.731900 -0.648965
O24   O     O_R   0.935490 0.389720 0.268100 -0.648961
O25   O     O_R   0.389720 0.064510 0.731900 -0.648957
O26   O     O_R   0.610280 0.935490 0.268100 -0.648969
O27   O     O_R   0.935490 0.389720 0.731900 -0.649003
O28   O     O_R   0.064510 0.610280 0.268100 -0.649005
O29   O     O_R   0.389720 0.935490 0.268100 -0.648961
O30   O     O_R   0.610280 0.064510 0.731900 -0.648964
O31   O     O_R   0.935490 0.610280 0.268100 -0.648969
O32   O     O_R   0.064510 0.389720 0.731900 -0.648962
O33   O     O_R   0.610280 0.064510 0.268100 -0.649005
O34   O     O_R   0.389720 0.935490 0.731900 -0.649005
O35   O     O_R   0.064510 0.389720 0.268100 -0.648974
O36   O     O_R   0.935490 0.610280 0.731900 -0.648963
O37   O     O_R   0.110280 0.435490 0.231900 -0.648974
O38   O     O_R   0.889720 0.564510 0.768100 -0.648967
O39   O     O_R   0.564510 0.110280 0.231900 -0.648961
O40   O     O_R   0.435490 0.889720 0.768100 -0.648965
O41   O     O_R   0.889720 0.564510 0.231900 -0.648969
O42   O     O_R   0.110280 0.435490 0.768100 -0.648957
O43   O     O_R   0.435490 0.889720 0.231900 -0.649005
O44   O     O_R   0.564510 0.110280 0.768100 -0.649003
O45   O     O_R   0.889720 0.435490 0.768100 -0.648964
O46   O     O_R   0.110280 0.564510 0.231900 -0.648961
O47   O     O_R   0.435490 0.110280 0.768100 -0.648962
O48   O     O_R   0.564510 0.889720 0.231900 -0.648969
O49   O     O_R   0.110280 0.564510 0.768100 -0.649005
O50   O     O_R   0.889720 0.435490 0.231900 -0.649005
O51   O     O_R   0.564510 0.889720 0.768100 -0.648963
O52   O     O_R   0.435490 0.110280 0.231900 -0.648974
Zn1   Zn    Zn3+2 0.500000 0.934510 0.776050 0.965441
Zn2   Zn    Zn3+2 0.500000 0.065490 0.223950 0.965441
Zn3   Zn    Zn3+2 0.065490 0.500000 0.776050 0.965446
Zn4   Zn    Zn3+2 0.934510 0.500000 0.223950 0.965446
Zn5   Zn    Zn3+2 0.500000 0.065490 0.776050 0.965446
Zn6   Zn    Zn3+2 0.500000 0.934510 0.223950 0.965446
Zn7   Zn    Zn3+2 0.934510 0.500000 0.776050 0.965441
Zn8   Zn    Zn3+2 0.065490 0.500000 0.223950 0.965441
Zn9   Zn    Zn3+2 1.000000 0.434510 0.276050 0.965441
Zn10  Zn    Zn3+2 1.000000 0.565490 0.723950 0.965441
Zn11  Zn    Zn3+2 0.565490 0.000000 0.276050 0.965446
Zn12  Zn    Zn3+2 0.434510 1.000000 0.723950 0.965446
Zn13  Zn    Zn3+2 1.000000 0.565490 0.276050 0.965446
Zn14  Zn    Zn3+2 1.000000 0.434510 0.723950 0.965446
Zn15  Zn    Zn3+2 0.434510 0.000000 0.276050 0.965441
Zn16  Zn    Zn3+2 0.565490 1.000000 0.723950 0.965441
H81   H     H_    0.499998 0.911288 0.872851 0.159743
H82   H     H_    0.500001 0.088712 0.127149 0.159750
H83   H     H_    0.088712 0.500003 0.872851 0.159769
H84   H     H_    0.911288 0.499998 0.127149 0.159779
H85   H     H_    0.500003 0.088712 0.872851 0.159772
H86   H     H_    0.499998 0.911288 0.127149 0.159779
H87   H     H_    0.911288 0.499998 0.872851 0.159746
H88   H     H_    0.088712 0.500001 0.127149 0.159749
H89   H     H_    0.999998 0.411288 0.372851 0.159750
H90   H     H_    0.000002 0.588712 0.627149 0.159743
H91   H     H_    0.588712 0.000002 0.372851 0.159779
H92   H     H_    0.411288 0.999997 0.627149 0.159769
H93   H     H_    0.000002 0.588712 0.372851 0.159779
H94   H     H_    0.999997 0.411288 0.627149 0.159772
H95   H     H_    0.411288 0.999999 0.372851 0.159749
H96   H     H_    0.588712 0.000002 0.627149 0.159746

loop_
_geom_bond_atom_site_label_1
_geom_bond_atom_site_label_2
_ccdc_geom_bond_type
C118  H94   S    
C76   H20   S    
N2    N5    A    
C36   C42   A    
C39   C87   A    
C74   C83   A    
O40   Zn1   S    
O16   Zn5   S    
C40   C46   A    
C7    C99   A    
C188  H60   S    
C189  H61   S    
C68   H12   S    
C80   H24   S    
C59   C66   A    
C130  C200  S    
C128  C145  S    
C98   C114  A    
O3    Zn3   S    
C182  H54   S    
C171  H43   S    
O2    Zn15  S    
C169  H41   S    
C2    C90   A    
C178  H50   S    
C4    C96   A    
C153  N14   A    
C141  O39   A    
O33   Zn11  S    
C154  N9    A    
C173  H45   S    
C46   C55   A    
N9    N14   A    
O35   Zn9   S    
C175  C207  A    
C92   H68   S    
O37   Zn8   S    
C27   C169  A    
C136  C198  S    
C129  O51   A    
C134  C196  S    
C138  O30   A    
C26   C172  A    
C110  H86   S    
C89   H65   S    
C62   H6    S    
O43   Zn6   S    
C29   C175  A    
C27   C75   A    
C30   C176  A    
C57   H1    S    
C122  O10   A    
C96   H72   S    
C91   C107  A    
C144  O36   A    
C71   H15   S    
C14   C46   A    
C29   C55   A    
C30   C56   A    
C155  N12   A    
C128  O20   A    
C157  N6    A    
C39   C165  A    
C166  C198  A    
C140  C202  S    
C32   C80   A    
O39   Zn2   S    
C136  O28   A    
C143  O37   A    
C100  H76   S    
C117  C149  A    
C101  H77   S    
C8    C104  A    
C79   H23   S    
C28   C170  A    
C83   H27   S    
C60   C65   A    
O2    Zn2   S    
O3    Zn10  S    
O41   Zn4   S    
C135  O45   A    
C81   H25   S    
C114  C150  A    
O14   Zn3   S    
O48   Zn6   S    
O4    Zn4   S    
C138  C208  S    
C181  C207  A    
C77   H21   S    
C20   C68   A    
C109  C145  A    
C125  C148  S    
C135  C197  S    
C126  C147  S    
C23   C55   A    
C24   C56   A    
C139  O41   A    
C9    C41   A    
C5    C101  A    
C176  C208  A    
C75   H19   S    
C12   C44   A    
C137  O29   A    
C13   C45   A    
C105  H81   S    
O4    Zn9   S    
C2    C157  S    
O50   Zn4   S    
C107  H83   S    
C184  H56   S    
C182  C208  A    
C6    C102  A    
C170  C202  A    
C6    C153  S    
O44   Zn5   S    
C1    C93   A    
C115  C151  A    
C174  C206  A    
C3    C95   A    
C108  C148  A    
C72   H16   S    
C78   C87   A    
C65   H9    S    
C124  C149  S    
O38   Zn7   S    
C142  O40   A    
C22   C54   A    
O46   Zn8   S    
C35   C161  A    
C38   C86   A    
C186  C196  A    
C33   C163  A    
C34   C164  A    
C133  O25   A    
C14   C62   A    
O11   Zn10  S    
C172  C204  A    
C159  N4    A    
C22   C184  A    
O47   Zn5   S    
C86   H30   S    
C120  H96   S    
C92   C108  A    
C7    C156  S    
C10   C188  A    
C163  H35   S    
C127  O19   A    
C37   C47   A    
N11   N16   A    
C19   C177  A    
O17   Zn8   S    
C38   C48   A    
N12   N15   A    
C39   C45   A    
C14   C192  A    
C189  C199  A    
C15   C189  A    
C123  C150  S    
C18   C180  A    
C7    C103  A    
C188  C194  A    
C131  C193  S    
C61   H5    S    
C190  H62   S    
C59   H3    S    
O9    Zn16  S    
C48   C53   A    
C87   H31   S    
C161  C193  A    
C166  H38   S    
C141  O33   A    
C2    C94   A    
C45   C56   A    
C17   C49   A    
C12   C60   A    
C179  H51   S    
C154  N13   A    
O36   Zn10  S    
C21   C69   A    
C142  C204  S    
C97   H73   S    
C94   H70   S    
C58   C67   A    
O52   Zn2   S    
C138  O44   A    
C90   H66   S    
O27   Zn14  S    
O49   Zn3   S    
C64   C69   A    
C129  C199  S    
C104  H80   S    
O5    Zn12  S    
O51   Zn1   S    
C5    C97   A    
C192  C198  A    
C123  O11   A    
O10   Zn15  S    
C183  C205  A    
C113  H89   S    
C57   C68   A    
C115  H91   S    
C24   C72   A    
O2    Zn6   S    
C133  O47   A    
C93   H69   S    
C157  N2    A    
C158  N5    A    
C131  O23   A    
C164  C196  A    
C75   C82   A    
C18   C66   A    
C131  O49   A    
C102  H78   S    
C67   H11   S    
C8    C100  A    
C74   H18   S    
C165  H37   S    
O45   Zn7   S    
C25   C171  A    
C62   C71   A    
C25   C73   A    
C35   C41   A    
C132  O24   A    
C29   C77   A    
O4    Zn8   S    
C121  O5    A    
C89   C105  A    
C167  C199  A    
C123  O7    A    
C34   C82   A    
C69   H13   S    
C104  C120  A    
C110  C146  A    
C22   C70   A    
C187  C193  A    
C27   C49   A    
O19   Zn2   S    
C93   C109  A    
C153  N10   A    
O21   Zn16  S    
C10   C42   A    
C156  N11   A    
C100  C116  A    
O18   Zn7   S    
C190  C200  A    
C37   C167  A    
O4    Zn13  S    
C38   C168  A    
C6    C98   A    
C1    C158  S    
C84   H28   S    
C185  C195  A    
C23   C181  A    
C180  C202  A    
C99   C115  A    
C4    C159  S    
C5    C154  S    
C88   H32   S    
C184  C206  A    
C170  H42   S    
C3    C91   A    
C140  O42   A    
C118  C150  A    
C8    C155  S    
C125  O13   A    
C141  C203  S    
C130  O22   A    
C174  H46   S    
C127  O15   A    
C179  C201  A    
C128  O16   A    
C1    C89   A    
C177  C203  A    
C19   C67   A    
C132  O50   A    
C162  H34   S    
C186  H58   S    
C36   C162  A    
C109  H85   S    
C11   C59   A    
C31   C79   A    
C32   C54   A    
C144  C206  S    
C103  C119  A    
C185  H57   S    
C23   C71   A    
O13   Zn4   S    
O20   Zn1   S    
C90   C106  A    
C116  H92   S    
C160  N7    A    
C35   C83   A    
C20   C178  A    
C32   C174  A    
C94   C110  A    
N10   N13   A    
C80   C85   A    
C165  C197  A    
C107  C147  A    
C108  H84   S    
C163  C195  A    
C133  C195  S    
C12   C186  A    
C130  O52   A    
C43   C50   A    
C28   C76   A    
C159  N8    A    
C144  O38   A    
C16   C190  A    
C47   C54   A    
C61   C72   A    
C134  O26   A    
O31   Zn13  S    
C164  H36   S    
C136  O46   A    
C18   C50   A    
O25   Zn12  S    
O24   Zn9   S    
C143  O35   A    
C168  C200  A    
C10   C58   A    
C129  O21   A    
C106  C146  A    
C119  H95   S    
C98   H74   S    
C175  H47   S    
O7    Zn14  S    
O22   Zn15  S    
C78   H22   S    
C117  H93   S    
N1    N6    A    
C125  O17   A    
C101  C117  A    
C91   H67   S    
N3    N8    A    
C66   H10   S    
C106  H82   S    
C143  C205  S    
C167  H39   S    
C70   H14   S    
C124  O8    A    
C85   H29   S    
C171  C203  A    
C126  O18   A    
C142  O34   A    
C127  C146  S    
C169  C201  A    
C180  H52   S    
C181  H53   S    
O3    Zn7   S    
C173  C205  A    
C192  H64   S    
C158  N1    A    
C63   H7    S    
O29   Zn15  S    
C177  H49   S    
C79   C86   A    
C40   C88   A    
C4    C92   A    
C44   C49   A    
C21   C53   A    
C178  C204  A    
C15   C47   A    
C16   C48   A    
C96   C112  A    
C140  O32   A    
C37   C85   A    
C111  C147  A    
O1    Zn1   S    
C121  O9    A    
O23   Zn10  S    
C122  O6    A    
C124  O12   A    
O12   Zn9   S    
C28   C50   A    
C155  N16   A    
O8    Zn13  S    
C156  N15   A    
C11   C43   A    
C41   C52   A    
C40   C166  A    
C102  C118  A    
C42   C51   A    
C137  O43   A    
C105  C145  A    
C132  C194  S    
C191  H63   S    
C58   H2    S    
C119  C151  A    
C120  C152  A    
O3    Zn14  S    
C95   H71   S    
C24   C182  A    
C33   C43   A    
C113  C149  A    
C34   C44   A    
C134  O48   A    
C139  C201  S    
O26   Zn11  S    
C126  O14   A    
O1    Zn5   S    
C172  H44   S    
C112  C148  A    
O34   Zn12  S    
C25   C51   A    
C26   C52   A    
C176  H48   S    
C60   H4    S    
C63   C70   A    
C187  H59   S    
C103  H79   S    
C162  C194  A    
O28   Zn13  S    
C31   C53   A    
O15   Zn6   S    
O1    Zn12  S    
C168  H40   S    
C3    C160  S    
C114  H90   S    
C97   C113  A    
C77   C88   A    
C160  N3    A    
C116  C152  A    
C137  C207  S    
C21   C183  A    
C135  O27   A    
C73   C84   A    
C11   C185  A    
C64   H8    S    
N4    N7    A    
O30   Zn16  S    
C191  C197  A    
O32   Zn14  S    
C9    C187  A    
C76   C81   A    
C112  H88   S    
C17   C65   A    
C13   C191  A    
C121  C152  S    
C161  H33   S    
C122  C151  S    
C82   H26   S    
C20   C52   A    
C95   C111  A    
C73   H17   S    
C17   C179  A    
C139  O31   A    
C36   C84   A    
C183  H55   S    
O2    Zn11  S    
C26   C74   A    
O6    Zn11  S    
C9    C57   A    
O42   Zn3   S    
C111  H87   S    
C30   C78   A    
C19   C51   A    
O1    Zn16  S    
C13   C61   A    
C31   C173  A    
C15   C63   A    
C16   C64   A    
C33   C81   A    
C99   H75   S    
