data_mof_unit_8003.cif
_audit_creation_date              2013-03-05T16:13:32-0500
_audit_creation_method            fapswitch 2.2
_symmetry_space_group_name_H-M    P1
_symmetry_Int_Tables_number       1
_space_group_crystal_system       triclinic
_cell_length_a                    10.78421
_cell_length_b                    9.90955
_cell_length_c                    10.914135
_cell_angle_alpha                 90.000073
_cell_angle_beta                  93.828593
_cell_angle_gamma                 90.516954
_cell_volume                      1163.70666879

loop_
_atom_site_label
_atom_site_type_symbol
_atom_site_description
_atom_site_fract_x
_atom_site_fract_y
_atom_site_fract_z
_atom_type_partial_charge
O1    O     O_R   0.316770 0.614620 0.499990 -0.642837
O2    O     O_R   0.683230 0.614620 0.500010 -0.641952
O3    O     O_R   0.316800 0.385290 0.500000 -0.582361
O4    O     O_R   0.683200 0.385290 0.500000 -0.581981
C1    C     C_R   0.260791 0.500043 0.508049 0.889756
C2    C     C_R   0.739371 0.501105 0.492050 0.894717
O5    O     O_R   0.500000 0.614690 0.316780 -0.646619
O6    O     O_R   0.500000 0.614690 0.683220 -0.646860
O7    O     O_R   0.500020 0.385360 0.316780 -0.544130
O8    O     O_R   0.499980 0.385360 0.683220 -0.543001
C3    C     C_R   0.497641 0.499709 0.259999 0.928327
C4    C     C_R   0.498697 0.499140 0.739781 0.928706
Zn1   Zn    Zn3+2 0.500000 0.653120 0.500000 0.971128
Zn2   Zn    Zn3+2 0.500000 0.346880 0.500000 1.124784
C5    C     C_R   0.453208 0.612156 0.058984 -0.014624
C6    C     C_R   0.472132 0.611891 0.936377 -0.034096
C7    C     C_R   0.485042 0.496065 0.127584 -0.257115
C8    C     C_R   0.486675 0.493996 0.870551 -0.259488
C9    C     C_R   0.495557 0.371384 0.063640 0.240143
C10   C     C_R   0.483481 0.369743 0.935134 0.241824
C11   C     C_3   0.519196 0.754026 0.933648 -0.126141
C12   C     C_3   0.476802 0.763522 0.066172 -0.139365
C13   C     C_R   0.062309 0.380983 0.500317 -0.106109
C14   C     C_R   0.935049 0.381984 0.487087 -0.097994
H1    H     H_    0.108764 0.285429 0.500108 0.238171
H2    H     H_    0.886170 0.286980 0.475965 0.233091
C15   C     C_R   0.872264 0.504457 0.484948 -0.118741
C16   C     C_R   0.128166 0.502075 0.515385 -0.117653
C17   C     C_R   0.939167 0.627453 0.489115 -0.055764
C18   C     C_R   0.064835 0.625252 0.522855 -0.052250
C19   C     C_R   0.596435 0.072109 0.558303 0.318995
C20   C     C_R   0.403670 0.069899 0.441237 0.321365
C21   C     C_R   0.593261 0.928507 0.561327 -0.090316
C22   C     C_R   0.407044 0.926181 0.437874 -0.087286
N1    N     N_R   0.500000 0.857200 0.500000 -0.168615
N2    N     N_R   0.500000 0.142810 0.500000 -0.183069
N3    N     N_R   0.527931 0.247801 0.126309 0.258331
O9    O     O_R   0.452819 0.144311 0.117353 -0.331801
O10   O     O_R   0.640716 0.231648 0.173912 -0.357546
N4    N     N_R   0.471751 0.242048 0.872880 0.255466
O11   O     O_R   0.556756 0.150529 0.891208 -0.317317
O12   O     O_R   0.367152 0.209967 0.813184 -0.358500
C23   C     C_1   0.655825 0.758185 0.929031 0.229105
N5    N     N_1   0.763266 0.760484 0.931074 -0.131965
C24   C     C_1   0.359574 0.838350 0.073305 0.265733
N6    N     N_1   0.267955 0.898057 0.075498 -0.086550
C25   C     C_1   0.453811 0.839663 0.840137 0.304136
N7    N     N_1   0.401920 0.907223 0.767497 -0.116897
C26   C     C_1   0.571503 0.812402 0.159636 0.291898
N8    N     N_1   0.645453 0.852664 0.232386 -0.134059
C27   C     C_1   0.886724 0.754253 0.445736 0.260377
N9    N     N_1   0.848515 0.856822 0.410471 -0.113165
C28   C     C_1   0.123462 0.747745 0.572801 0.255778
N10   N     N_1   0.168446 0.845795 0.613397 -0.123863
N11   N     N_R   0.703213 0.141450 0.614335 0.215158
O13   O     O_R   0.690868 0.228332 0.701469 -0.312835
O14   O     O_R   0.814234 0.099157 0.595562 -0.412424
N12   N     N_R   0.296472 0.136758 0.385738 0.212628
O15   O     O_R   0.308355 0.225587 0.299911 -0.321831
O16   O     O_R   0.185930 0.089433 0.402481 -0.415419
C29   C     C_1   0.689394 0.856764 0.630406 0.368664
N13   N     N_1   0.768974 0.800436 0.684291 -0.168397
C30   C     C_1   0.311690 0.851267 0.368029 0.370279
N14   N     N_1   0.233848 0.791375 0.313111 -0.177622

loop_
_geom_bond_atom_site_label_1
_geom_bond_atom_site_label_2
_geom_bond_distance
_ccdc_geom_bond_type
C19   N11   1.436589 S    
O7    Zn2   2.035734 S    
C19   C21   1.423564 A    
C6    C11   1.493808 S    
O6    C4    1.301258 A    
C15   C17   1.409942 A    
C1    C16   1.438141 S    
C9    C10   1.399959 A    
C25   N7    1.156472 T    
C14   C15   1.394513 A    
C20   N12   1.436178 S    
C23   N5    1.157408 T    
C21   C29   1.434421 S    
C12   C24   1.477899 S    
N11   O13   1.297043 A    
N4    O12   1.301298 A    
O3    C1    1.298134 A    
C26   N8    1.155569 T    
N3    O10   1.301564 A    
C11   C23   1.477860 S    
C11   C12   1.548872 S    
O5    C3    1.296273 A    
O7    C3    1.291174 A    
O2    C2    1.287935 A    
O3    Zn2   2.015367 S    
O8    C4    1.286067 A    
C12   C26   1.473132 S    
O1    C1    1.286874 A    
C5    C6    1.367031 A    
C20   N2    1.382040 A    
C16   C18   1.409083 A    
N4    O11   1.301302 A    
C21   N1    1.362401 A    
N3    O9    1.300707 A    
C14   H2    1.077688 S    
Zn1   N1    2.022341 S    
C8    C10   1.420059 A    
N11   O14   1.301121 A    
O4    Zn2   2.008623 S    
C29   N13   1.155504 T    
C10   N4    1.436845 S    
C18   C28   1.452743 S    
O4    C2    1.298496 A    
O1    Zn1   2.009096 S    
C13   C16   1.392979 A    
C13   C14   1.370482 A    
C17   C18   1.380798 A    
C27   N9    1.156468 T    
O6    Zn1   2.035628 S    
C24   N6    1.157827 T    
O5    Zn1   2.035627 S    
C13   H1    1.075322 S    
C6    C8    1.387084 A    
C22   N1    1.361442 A    
C17   C27   1.449112 S    
C4    C8    1.442574 S    
C5    C7    1.405230 A    
O2    Zn1   2.015855 S    
C19   N2    1.379171 A    
C22   C30   1.439165 S    
Zn2   N2    2.022243 S    
C9    N3    1.437125 S    
C7    C9    1.428125 A    
N12   O15   1.297198 A    
C28   N10   1.156936 T    
N12   O16   1.301317 A    
C5    C12   1.520280 S    
C3    C7    1.442925 S    
C2    C15   1.440491 S    
O8    Zn2   2.035734 S    
C30   N14   1.157594 T    
C11   C25   1.474335 S    
C20   C22   1.425514 A    
