data_mof_unit_38284.cif
_audit_creation_date              2012-10-26T18:32:20-0400
_audit_creation_method            fapswitch 2.2
_symmetry_space_group_name_H-M    P1
_symmetry_Int_Tables_number       1
_space_group_crystal_system       triclinic
_cell_length_a                    12.428677
_cell_length_b                    13.20955
_cell_length_c                    15.837094
_cell_angle_alpha                 75.87602
_cell_angle_beta                  101.314331
_cell_angle_gamma                 117.020763
_cell_volume                      2235.26481237

loop_
_atom_site_label
_atom_site_type_symbol
_atom_type_description
_atom_site_fract_x
_atom_site_fract_y
_atom_site_fract_z
_atom_type_partial_charge
C1    C     C_R   0.855148 0.286668 0.506779 0.547515
C2    C     C_R   0.228403 0.836240 0.470966 -0.002179
C3    C     C_R   0.813200 0.081958 0.562613 -0.126186
C4    C     C_R   0.002437 0.503012 0.659198 0.575857
C5    C     C_R   0.733238 0.966260 0.580425 -0.139042
C6    C     C_R   0.610681 0.930337 0.551256 -0.120880
C7    C     C_R   0.565775 0.009760 0.499945 0.032736
C8    C     C_R   0.650306 0.125301 0.473381 0.023656
C9    C     C_R   0.440070 0.978078 0.473093 0.026644
C10   C     C_R   0.402261 0.058632 0.414457 0.049771
C11   C     C_R   0.488318 0.167246 0.381380 -0.141324
C12   C     C_3   0.060289 0.424975 0.073558 -0.213696
C13   C     C_R   0.610496 0.199300 0.408922 -0.126644
C14   C     C_R   0.350386 0.868638 0.502878 -0.136842
C15   C     C_R   0.192062 0.917253 0.414899 -0.139194
C16   C     C_R   0.144952 0.713661 0.487631 0.536983
C17   C     C_R   0.772711 0.163071 0.511307 0.003743
C18   C     C_R   0.312630 0.291592 0.606782 -0.149240
C19   C     C_R   0.767998 0.657302 0.390238 0.047828
C20   C     C_R   0.676572 0.694788 0.367765 -0.160885
C21   C     C_R   0.568979 0.633637 0.407413 -0.133707
C22   C     C_R   0.550125 0.532497 0.470096 -0.017405
C23   C     C_3   0.001162 0.502410 0.082530 0.071749
C24   C     C_R   0.646720 0.495907 0.492793 0.160483
C25   C     C_R   0.439068 0.467328 0.511804 -0.016382
C26   C     C_R   0.417821 0.358077 0.563803 0.017351
C27   C     C_R   0.504814 0.317676 0.578587 -0.165630
C28   C     C_R   0.000067 0.500590 0.340420 0.540873
C29   C     C_R   0.621549 0.389749 0.556094 0.008674
C30   C     C_R   0.346809 0.504602 0.504939 0.044023
C31   C     C_R   0.228311 0.334427 0.599694 0.047306
C32   C     C_3   0.061401 0.425723 0.975764 -0.214506
C33   C     C_3   0.871011 0.456924 0.939289 -0.211212
C34   C     C_3   0.074463 0.626864 0.035105 -0.213481
C35   C     C_3   0.869895 0.456171 0.037091 -0.215801
C36   C     C_1   0.999884 0.501151 0.250510 -0.039273
C37   C     C_3   0.003056 0.503683 0.916847 0.069044
C38   C     C_1   0.702576 0.351401 0.618085 0.270516
C39   C     C_3   0.075574 0.627615 0.937298 -0.215855
C40   C     C_1   0.000232 0.501701 0.174777 -0.079636
C41   C     C_1   0.003919 0.504221 0.824637 -0.072434
C42   C     C_1   0.003835 0.504069 0.748990 -0.016461
C43   C     C_R   0.278657 0.028383 0.387341 -0.132795
Cu1   Cu    Cu3+1 0.098280 0.475420 0.519630 0.930577
Cu2   Cu    Cu3+1 0.901720 0.524580 0.480370 0.937940
H1    H     H_    0.009110 0.334876 0.107075 0.113087
H2    H     H_    0.554319 0.839344 0.568466 0.101738
H3    H     H_    0.765768 0.904309 0.619599 0.116650
H4    H     H_    0.010738 0.335984 0.962340 0.116210
H5    H     H_    0.673127 0.281926 0.376990 0.147519
H6    H     H_    0.145852 0.283152 0.631575 0.121844
H7    H     H_    0.485693 0.233680 0.620427 0.115816
H8    H     H_    0.296724 0.207800 0.646964 0.089455
H9    H     H_    0.352296 0.584909 0.464472 0.115603
H10   H     H_    0.851346 0.705911 0.359135 0.121763
H11   H     H_    0.500641 0.665919 0.386352 0.100440
H12   H     H_    0.156559 0.457645 0.960948 0.113516
H13   H     H_    0.689145 0.771803 0.319185 0.099069
H14   H     H_    0.827035 0.511644 0.897800 0.116316
H15   H     H_    0.816928 0.367749 0.925195 0.122047
H16   H     H_    0.815302 0.366633 0.069956 0.113008
H17   H     H_    0.825402 0.510540 0.042555 0.113510
H18   H     H_    0.170984 0.663160 0.921786 0.113050
H19   H     H_    0.035262 0.685390 0.895775 0.112814
H20   H     H_    0.169350 0.662054 0.066539 0.113206
H21   H     H_    0.154921 0.456538 0.105687 0.114714
H22   H     H_    0.033642 0.684300 0.040529 0.112075
H23   H     H_    0.097878 0.893385 0.389508 0.118103
H24   H     H_    0.461171 0.227717 0.333533 0.107042
H25   H     H_    0.249451 0.089589 0.342523 0.104878
H26   H     H_    0.372928 0.805548 0.550127 0.118214
H27   H     H_    0.906477 0.108335 0.591102 0.122415
N1    N     N_R   0.246300 0.438200 0.549400 -0.234645
N2    N     N_R   0.754300 0.561180 0.451130 -0.238064
N3    N     N_1   0.759298 0.312641 0.670688 -0.325038
O1    O     O_R   0.972520 0.318130 0.524690 -0.508187
O2    O     O_R   0.806530 0.359650 0.491530 -0.504694
O3    O     O_R   0.083030 0.479240 0.637150 -0.495124
O4    O     O_R   0.917040 0.520750 0.603990 -0.483162
O5    O     O_R   0.193470 0.640350 0.508470 -0.513131
O6    O     O_R   0.027480 0.681870 0.475310 -0.511968
O7    O     O_R   0.082960 0.479250 0.396010 -0.492685
O8    O     O_R   0.916970 0.520760 0.362850 -0.509984

loop_
_geom_bond_atom_site_label_1
_geom_bond_atom_site_label_2
_ccdc_geom_bond_type
C8    C13   A    
C27   C29   A    
C1    O2    A    
C14   H26   S    
C19   C20   A    
C18   C26   A    
C7    C8    A    
C27   H7    S    
C39   H19   S    
C30   H9    S    
C12   C23   S    
C26   C27   A    
Cu1   O7    S    
C5    C6    A    
C31   N1    A    
C23   C40   S    
C41   C42   T    
Cu1   O1    S    
C24   C29   A    
C18   H8    S    
C22   C25   A    
C29   C38   S    
C2    C16   S    
C9    C10   A    
C33   H14   S    
C21   C22   A    
C12   C32   S    
C28   O8    A    
Cu2   O8    S    
C32   H12   S    
C34   H20   S    
C38   N3    T    
C5    H3    S    
C6    H2    S    
C28   O7    A    
C34   C39   S    
C36   C40   T    
C4    O4    A    
C35   H16   S    
C30   N1    A    
C25   C26   A    
C12   H21   S    
C33   C37   S    
Cu2   N2    S    
C16   O5    A    
C9    C14   A    
C4    O3    A    
Cu1   O5    S    
C23   C34   S    
Cu2   O4    S    
C32   C37   S    
C2    C15   A    
C12   H1    S    
C43   H25   S    
C23   C35   S    
C22   C24   A    
C20   H13   S    
Cu1   Cu2   S    
C19   H10   S    
C25   C30   A    
C7    C9    A    
C10   C43   A    
C1    O1    A    
C19   N2    A    
Cu2   O6    S    
C31   H6    S    
C3    C5    A    
C34   H22   S    
C21   H11   S    
C11   H24   S    
C6    C7    A    
C33   H15   S    
C39   H18   S    
C1    C17   S    
C8    C17   A    
Cu1   O3    S    
C3    H27   S    
C15   C43   A    
C37   C39   S    
C11   C13   A    
C24   N2    A    
C4    C42   S    
C15   H23   S    
C16   O6    A    
C33   C35   S    
C3    C17   A    
C35   H17   S    
C37   C41   S    
Cu1   N1    S    
C2    C14   A    
C32   H4    S    
C10   C11   A    
C13   H5    S    
C20   C21   A    
C28   C36   S    
Cu2   O2    S    
C18   C31   A    
