data_mof_unit_61242.cif
_audit_creation_date              2012-12-10T18:08:14-0500
_audit_creation_method            fapswitch 2.2
_symmetry_space_group_name_H-M    P1
_symmetry_Int_Tables_number       1
_space_group_crystal_system       triclinic
_cell_length_a                    18.68436
_cell_length_b                    18.791938
_cell_length_c                    18.71081
_cell_angle_alpha                 109.655573
_cell_angle_beta                  109.316901
_cell_angle_gamma                 109.50986
_cell_volume                      5052.99675556

loop_
_atom_site_label
_atom_site_type_symbol
_atom_type_description
_atom_site_fract_x
_atom_site_fract_y
_atom_site_fract_z
_atom_type_partial_charge
C1    C     C_R   0.378387 0.498449 0.379672 0.889520
C2    C     C_R   0.311301 0.497471 0.313327 -0.078750
C3    C     C_R   0.306701 0.232593 0.477192 -0.182924
C4    C     C_R   0.619748 0.619868 0.499612 0.889187
C5    C     C_R   0.243665 0.170304 0.479373 -0.236420
C6    C     C_R   0.186213 0.189127 0.503535 -0.003264
C7    C     C_R   0.192065 0.271343 0.527722 0.191788
C8    C     C_R   0.256349 0.333652 0.526089 -0.185689
C9    C     C_R   0.312981 0.314140 0.500635 -0.069260
C10   C     C_R   0.767050 0.528924 0.696013 -0.247124
C11   C     C_R   0.831875 0.530569 0.760302 -0.175277
C12   C     C_R   0.817012 0.820078 0.574744 0.068292
C13   C     C_R   0.812359 0.499860 0.813690 -0.072452
C14   C     C_R   0.728190 0.467988 0.803253 -0.189427
C15   C     C_R   0.662546 0.466559 0.739234 0.192747
C16   C     C_R   0.619419 0.499507 0.620062 0.865212
C17   C     C_R   0.683329 0.497824 0.686018 -0.000431
C18   C     C_R   0.999859 0.879786 0.379676 0.856953
C19   C     C_R   0.879939 0.879909 0.499641 0.891182
C20   C     C_R   0.002387 0.122347 0.620327 0.863807
C21   C     C_R   0.120111 0.121207 0.501276 0.856992
C22   C     C_R   0.999898 0.620211 0.120277 0.857893
C23   C     C_3   0.867998 0.876406 0.672133 -0.044008
C24   C     C_R   0.120316 0.501587 0.121540 0.878579
C25   C     C_R   0.002202 0.380083 0.882040 0.884471
C26   C     C_R   0.879417 0.500084 0.879826 0.879575
C27   C     C_R   0.997859 0.820386 0.240899 -0.186194
C28   C     C_R   0.379457 0.379767 0.499991 0.864106
C29   C     C_R   0.999225 0.757088 0.177656 -0.182115
C30   C     C_R   0.999556 0.686146 0.186222 -0.009143
C31   C     C_R   0.999820 0.678472 0.257994 -0.188781
C32   C     C_R   0.001142 0.743132 0.322572 -0.183028
C33   C     C_R   0.999534 0.813453 0.313393 -0.009465
C34   C     C_3   0.794920 0.806056 0.672123 -0.034104
C35   C     C_R   0.927215 0.183105 0.680757 -0.237361
C36   C     C_R   0.927105 0.244606 0.746180 -0.233431
C37   C     C_R   0.006320 0.314466 0.819339 -0.065735
C38   C     C_R   0.087683 0.323239 0.829233 0.184006
C39   C     C_R   0.087907 0.263589 0.759734 0.187762
C40   C     C_R   0.753777 0.759148 0.574674 0.070699
C41   C     C_R   0.006550 0.191963 0.687324 -0.066025
C42   C     C_R   0.684078 0.684808 0.497802 -0.099020
C43   C     C_R   0.678957 0.674378 0.417810 -0.210336
C44   C     C_R   0.743358 0.739505 0.417762 -0.214227
C45   C     C_R   0.238525 0.418265 0.240140 0.191302
C46   C     C_R   0.813934 0.813260 0.497834 -0.094072
C47   C     C_3   0.133618 0.296181 0.557180 -0.926705
C48   C     C_3   0.572288 0.429790 0.729116 -0.915230
C49   C     C_3   0.173283 0.393664 0.913310 -0.884517
C50   C     C_3   0.174115 0.278231 0.762815 -0.887321
C51   C     C_3   0.871230 0.964421 0.703063 -0.910234
C52   C     C_3   0.825406 0.755865 0.712534 -0.921381
C53   C     C_3   0.224470 0.330328 0.228630 -0.872617
C54   C     C_3   0.268020 0.669381 0.277903 -0.873214
C55   C     C_R   0.176453 0.421957 0.177963 -0.231643
C56   C     C_R   0.186642 0.502528 0.188466 -0.075966
C57   C     C_R   0.258251 0.581676 0.262642 0.190793
C58   C     C_R   0.320347 0.578018 0.324839 -0.230028
H1    H     H_    0.625166 0.617188 0.356131 0.160325
H2    H     H_    0.738843 0.731849 0.356123 0.157563
H3    H     H_    0.998695 0.762568 0.121667 0.143953
H4    H     H_    0.000516 0.623519 0.264540 0.144163
H5    H     H_    0.002083 0.737837 0.378754 0.144290
H6    H     H_    0.865167 0.127875 0.625144 0.166059
H7    H     H_    0.865008 0.238220 0.739360 0.163894
H8    H     H_    0.933401 0.881884 0.701147 0.186095
H9    H     H_    0.753782 0.827766 0.694405 0.185402
H10   H     H_    0.120177 0.361932 0.120555 0.157347
H11   H     H_    0.087265 0.244462 0.560984 0.246640
H12   H     H_    0.376592 0.638089 0.382206 0.157654
H13   H     H_    0.174576 0.355174 0.623476 0.240601
H14   H     H_    0.095088 0.311185 0.510987 0.249788
H15   H     H_    0.522914 0.426467 0.673281 0.243893
H16   H     H_    0.549147 0.362380 0.718080 0.239416
H17   H     H_    0.575160 0.470866 0.789874 0.246292
H18   H     H_    0.163623 0.420385 0.969726 0.237480
H19   H     H_    0.215938 0.366412 0.932333 0.239274
H20   H     H_    0.207861 0.447682 0.904058 0.247300
H21   H     H_    0.165794 0.241018 0.697704 0.244506
H22   H     H_    0.216770 0.347894 0.785727 0.239366
H23   H     H_    0.350995 0.217529 0.458234 0.161775
H24   H     H_    0.208119 0.259595 0.807938 0.247522
H25   H     H_    0.896922 0.997348 0.774809 0.252766
H26   H     H_    0.915686 0.006498 0.688925 0.253926
H27   H     H_    0.805139 0.956166 0.669637 0.244658
H28   H     H_    0.767636 0.699218 0.698977 0.256027
H29   H     H_    0.862544 0.731705 0.685299 0.242589
H30   H     H_    0.868123 0.799305 0.784531 0.253553
H31   H     H_    0.159091 0.276379 0.172205 0.228812
H32   H     H_    0.274646 0.318396 0.216315 0.255975
H33   H     H_    0.228554 0.327903 0.288283 0.234130
H34   H     H_    0.238688 0.106899 0.460971 0.146962
H35   H     H_    0.207380 0.670032 0.273038 0.232288
H36   H     H_    0.323508 0.723162 0.343870 0.228855
H37   H     H_    0.280832 0.683009 0.228774 0.257203
H38   H     H_    0.261838 0.397254 0.544213 0.161269
H39   H     H_    0.782221 0.552662 0.654530 0.145596
H40   H     H_    0.896716 0.554812 0.767609 0.162144
H41   H     H_    0.713543 0.444406 0.845037 0.162914
H42   H     H_    0.997028 0.875251 0.234244 0.144767
O1    O     O_R   0.408340 0.551690 0.460080 -0.627394
O2    O     O_R   0.051700 0.643420 0.091650 -0.622627
O3    O     O_R   0.039910 0.448390 0.091720 -0.625724
O4    O     O_R   0.408400 0.448280 0.356690 -0.620328
O5    O     O_R   0.143340 0.551810 0.091690 -0.622099
O6    O     O_R   0.948300 0.356760 0.908530 -0.625437
O7    O     O_R   0.051730 0.460180 0.908500 -0.613507
O8    O     O_R   0.856660 0.448370 0.908490 -0.627151
O9    O     O_R   0.960090 0.551790 0.908450 -0.625747
O10   O     O_R   0.591580 0.643330 0.551700 -0.627173
O11   O     O_R   0.591640 0.539920 0.448310 -0.623275
O12   O     O_R   0.948260 0.908480 0.356680 -0.622943
O13   O     O_R   0.591600 0.551720 0.643310 -0.619109
O14   O     O_R   0.591660 0.448310 0.539920 -0.618288
O15   O     O_R   0.408360 0.460080 0.551690 -0.628049
O16   O     O_R   0.408420 0.356670 0.448300 -0.623599
O17   O     O_R   0.051710 0.908420 0.460050 -0.622797
O18   O     O_R   0.960120 0.908380 0.551680 -0.626541
O19   O     O_R   0.856660 0.908440 0.448310 -0.620923
O20   O     O_R   0.051740 0.091590 0.643330 -0.615481
O21   O     O_R   0.948290 0.091650 0.539960 -0.624578
O22   O     O_R   0.143330 0.091630 0.551690 -0.624406
O23   O     O_R   0.039880 0.091690 0.448320 -0.615079
O24   O     O_R   0.948270 0.540000 0.091680 -0.621619
Zn1   Zn    Zn3+2 0.499960 0.569050 0.569040 0.947934
Zn2   Zn    Zn3+2 0.500040 0.430950 0.430960 0.950227
Zn3   Zn    Zn3+2 0.069080 0.999990 0.569020 0.948860
Zn4   Zn    Zn3+2 0.930920 0.000070 0.430980 0.956244
Zn5   Zn    Zn3+2 0.930940 0.431040 0.000110 0.950795
Zn6   Zn    Zn3+2 0.069060 0.569140 0.000070 0.946838

loop_
_geom_bond_atom_site_label_1
_geom_bond_atom_site_label_2
_ccdc_geom_bond_type
O6    Zn5   S    
C55   C56   A    
C21   O23   A    
C1    O1    A    
C27   C29   A    
C18   O17   A    
C35   C36   A    
C8    H38   S    
C16   O13   A    
C51   H27   S    
C20   C41   S    
C57   C58   A    
O20   Zn3   S    
C14   H41   S    
C39   C41   A    
C38   C49   S    
C27   C33   A    
C12   C23   S    
C25   O7    A    
C29   C30   A    
C11   H40   S    
C34   C40   S    
C23   H8    S    
C36   C37   A    
C18   O12   A    
C30   C31   A    
O14   Zn2   S    
O13   Zn1   S    
C10   C17   A    
O22   Zn3   S    
C49   H20   S    
C48   H17   S    
C1    C2    S    
C21   O22   A    
C47   H11   S    
C54   H35   S    
C28   O16   A    
C25   C37   S    
C19   O18   A    
C8    C9    A    
O9    Zn6   S    
C54   H37   S    
C53   H33   S    
O1    Zn1   S    
C35   H6    S    
C42   C43   A    
C43   H1    S    
O19   Zn4   S    
C40   C42   A    
C45   C53   S    
O16   Zn2   S    
C13   C14   A    
C50   H21   S    
C31   H4    S    
C15   C48   S    
O7    Zn6   S    
C44   C46   A    
C25   O6    A    
C55   H10   S    
C2    C45   A    
C38   C39   A    
C29   H3    S    
C27   H42   S    
C19   C46   S    
C54   H36   S    
C48   H16   S    
C52   H30   S    
O21   Zn4   S    
C12   C46   A    
C26   O8    A    
C36   H7    S    
C58   H12   S    
C6    C21   S    
C16   O14   A    
C7    C47   S    
C12   C40   A    
C10   H39   S    
C43   C44   A    
C3    H23   S    
C37   C38   A    
C3    C9    A    
C28   O15   A    
O17   Zn3   S    
C23   C51   S    
C31   C32   A    
C26   O9    A    
C23   C34   S    
O11   Zn2   S    
O8    Zn5   S    
C49   H18   S    
O3    Zn5   S    
C1    O4    A    
C47   H13   S    
C20   O21   A    
C6    C7    A    
C4    O11   A    
C53   H31   S    
C13   C26   S    
C56   C57   A    
C51   H25   S    
C20   O20   A    
C50   H24   S    
C15   C17   A    
C4    O10   A    
C22   C30   S    
C48   H15   S    
C52   H29   S    
O2    Zn6   S    
C32   H5    S    
C3    C5    A    
C50   H22   S    
C34   H9    S    
C2    C58   A    
C22   O24   A    
O5    Zn6   S    
C24   C56   S    
C34   C52   S    
C22   O2    A    
C24   O3    A    
C32   C33   A    
C52   H28   S    
C11   C13   A    
O23   Zn4   S    
C5    C6    A    
C4    C42   S    
C44   H2    S    
O15   Zn1   S    
C49   H19   S    
O24   Zn5   S    
C35   C41   A    
C18   C33   S    
C47   H14   S    
O12   Zn4   S    
C5    H34   S    
C7    C8    A    
C10   C11   A    
O10   Zn1   S    
C19   O19   A    
C39   C50   S    
O4    Zn2   S    
C45   C55   A    
O18   Zn3   S    
C9    C28   S    
C53   H32   S    
C14   C15   A    
C24   O5    A    
C51   H26   S    
C16   C17   S    
C54   C57   S    
