data_mof_unit_36917.cif
_audit_creation_date              2012-12-10T18:52:11-0500
_audit_creation_method            fapswitch 2.2
_symmetry_space_group_name_H-M    P1
_symmetry_Int_Tables_number       1
_space_group_crystal_system       triclinic
_cell_length_a                    15.710117
_cell_length_b                    10.655079
_cell_length_c                    9.892573
_cell_angle_alpha                 90.534227
_cell_angle_beta                  90.727772
_cell_angle_gamma                 90.495357
_cell_volume                      1655.67373701

loop_
_atom_site_label
_atom_site_type_symbol
_atom_type_description
_atom_site_fract_x
_atom_site_fract_y
_atom_site_fract_z
_atom_type_partial_charge
C1    C     C_R   0.499804 0.260153 0.499538 0.865110
C2    C     C_R   0.500196 0.739847 0.500462 0.865108
C3    C     C_R   0.541232 0.935197 0.396387 -0.204448
C4    C     C_R   0.458767 0.064803 0.603612 -0.204455
C5    C     C_R   0.500349 0.872305 0.500718 0.006083
C6    C     C_R   0.499650 0.127695 0.499281 0.006079
C7    C     C_R   0.553793 0.576737 0.075000 -0.133131
C8    C     C_R   0.446207 0.423263 0.925000 -0.133133
C9    C     C_R   0.554251 0.577193 0.931731 0.048537
C10   C     C_R   0.445749 0.422808 0.068269 0.048536
C11   C     C_R   0.338008 0.499864 0.499232 0.911512
C12   C     C_R   0.661991 0.500136 0.500767 0.911511
C13   C     C_3   0.974184 0.481602 0.625294 0.066761
C14   C     C_3   0.025816 0.518412 0.374704 0.066761
C15   C     C_3   0.028398 0.388174 0.544431 -0.217974
C16   C     C_3   0.971601 0.611839 0.455567 -0.217972
C17   C     C_1   0.249132 0.499943 0.497763 -0.182030
C18   C     C_1   0.750868 0.500062 0.502236 -0.182035
C19   C     C_3   0.030098 0.593131 0.581516 -0.215916
C20   C     C_3   0.969902 0.406882 0.418483 -0.215916
C21   C     C_3   0.082995 0.500001 0.498618 0.147047
C22   C     C_3   0.917005 0.500012 0.501380 0.147048
C23   C     C_1   0.173846 0.499981 0.497602 -0.072184
C24   C     C_1   0.826154 0.500029 0.502397 -0.072183
C25   C     C_R   0.541069 0.063860 0.395893 -0.213081
C26   C     C_R   0.458930 0.936140 0.604106 -0.213076
H1    H     H_    0.053403 0.297472 0.581577 0.143144
H2    H     H_    0.946596 0.702541 0.418422 0.143144
H3    H     H_    0.943586 0.331702 0.351205 0.146195
H4    H     H_    0.056413 0.668311 0.648793 0.146194
H5    H     H_    0.573838 0.113322 0.316416 0.146986
H6    H     H_    0.426161 0.886678 0.683583 0.146986
H7    H     H_    0.573835 0.885013 0.316807 0.148173
H8    H     H_    0.426164 0.114987 0.683192 0.148173
H9    H     H_    0.596580 0.638003 0.132106 0.141231
H10   H     H_    0.403419 0.361998 0.867893 0.141230
N1    N     N_R   0.499980 0.499970 0.857200 -0.099704
N2    N     N_R   0.500020 0.500030 0.142800 -0.099703
O1    O     O_R   0.499990 0.316750 0.614620 -0.629789
O2    O     O_R   0.500010 0.683250 0.385380 -0.629790
O3    O     O_R   0.500000 0.316780 0.385290 -0.616930
O4    O     O_R   0.500000 0.683220 0.614710 -0.616926
O5    O     O_R   0.376780 0.499970 0.614640 -0.618698
O6    O     O_R   0.623220 0.500030 0.385360 -0.618696
O7    O     O_R   0.376780 0.500000 0.385310 -0.609241
O8    O     O_R   0.623220 0.500000 0.614690 -0.609245
Zn1   Zn    Zn3+2 0.500000 0.499980 0.653120 0.950641
Zn2   Zn    Zn3+2 0.500000 0.500020 0.346880 0.950642
C27   C     C_1   0.944140 0.461453 0.763307 0.131172
N3    N     N_1   0.920399 0.445640 0.872128 -0.210377
C28   C     C_1   0.055859 0.538561 0.236691 0.131165
N4    N     N_1   0.079599 0.554374 0.127870 -0.210379
C29   C     C_R   0.614276 0.663520 0.866595 0.146910
C30   C     C_R   0.698084 0.625878 0.841619 -0.113184
C31   C     C_R   0.756385 0.710265 0.786089 -0.141054
C32   C     C_R   0.731989 0.833374 0.758680 -0.132692
C33   C     C_R   0.649707 0.872854 0.788802 -0.139532
C34   C     C_R   0.591320 0.788687 0.844400 -0.131830
H11   H     H_    0.717862 0.531013 0.863647 0.138467
H12   H     H_    0.820495 0.680371 0.764551 0.145838
H13   H     H_    0.777115 0.898528 0.715550 0.132261
H14   H     H_    0.631260 0.968754 0.769560 0.146645
H15   H     H_    0.528144 0.820633 0.869406 0.119090
C35   C     C_R   0.385717 0.336491 0.133405 0.146903
C36   C     C_R   0.301909 0.374145 0.158369 -0.113186
C37   C     C_R   0.243602 0.289770 0.213905 -0.141048
C38   C     C_R   0.267991 0.166667 0.241331 -0.132676
C39   C     C_R   0.350272 0.127167 0.211220 -0.139549
C40   C     C_R   0.408664 0.211323 0.155616 -0.131814
H16   H     H_    0.282137 0.469010 0.136329 0.138463
H17   H     H_    0.179493 0.319673 0.235434 0.145842
H18   H     H_    0.222859 0.101516 0.284466 0.132252
H19   H     H_    0.368713 0.031267 0.230476 0.146645
H20   H     H_    0.471840 0.179367 0.130618 0.119093

loop_
_geom_bond_atom_site_label_1
_geom_bond_atom_site_label_2
_ccdc_geom_bond_type
C25   H5    S    
C31   C32   A    
C26   H6    S    
C33   H14   S    
C29   C30   A    
C17   C23   T    
C18   C24   T    
C14   C21   S    
C19   C21   S    
C6    C25   A    
C3    H7    S    
C36   H16   S    
C32   C33   A    
O2    Zn2   S    
C38   H18   S    
C8    H10   S    
O8    Zn1   S    
O3    Zn2   S    
C14   C28   S    
C39   C40   A    
C11   O5    A    
N1    Zn1   S    
N2    Zn2   S    
C16   H2    S    
C20   H3    S    
C37   C38   A    
C31   H12   S    
C30   H11   S    
C15   C20   S    
C4    H8    S    
C13   C19   S    
C28   N4    T    
C14   C20   S    
C3    C25   A    
C12   O8    A    
C39   H19   S    
C1    C6    S    
C38   C39   A    
C15   H1    S    
C37   H17   S    
C9    N1    A    
C40   H20   S    
C35   C40   A    
C13   C27   S    
C4    C6    A    
C20   C22   S    
C27   N3    T    
C13   C15   S    
C22   C24   S    
C11   O7    A    
C2    C5    S    
C9    C29   S    
C8    N1    A    
O1    Zn1   S    
O7    Zn2   S    
C1    O3    A    
C34   H15   S    
C7    C9    A    
C30   C31   A    
C11   C17   S    
C16   C22   S    
C7    H9    S    
C10   C35   S    
C3    C5    A    
C4    C26   A    
C29   C34   A    
C10   N2    A    
C35   C36   A    
C21   C23   S    
C12   O6    A    
C33   C34   A    
C2    O4    A    
C16   C19   S    
C7    N2    A    
C13   C22   S    
C14   C16   S    
O4    Zn1   S    
C1    O1    A    
C5    C26   A    
C2    O2    A    
C15   C21   S    
C8    C10   A    
C36   C37   A    
C12   C18   S    
C32   H13   S    
C19   H4    S    
O5    Zn1   S    
O6    Zn2   S    
