data_mof_unit_49413.cif
_audit_creation_date              2013-03-05T15:52:00-0500
_audit_creation_method            fapswitch 2.2
_symmetry_space_group_name_H-M    P1
_symmetry_Int_Tables_number       1
_space_group_crystal_system       triclinic
_cell_length_a                    18.933062
_cell_length_b                    10.992302
_cell_length_c                    18.745475
_cell_angle_alpha                 90.248577
_cell_angle_beta                  90.895334
_cell_angle_gamma                 90.613768
_cell_volume                      3900.52981858

loop_
_atom_site_label
_atom_site_type_symbol
_atom_site_description
_atom_site_fract_x
_atom_site_fract_y
_atom_site_fract_z
_atom_type_partial_charge
O1    O     O_R   0.214300 0.709080 0.827500 -0.542484
O2    O     O_R   0.785700 0.709080 0.172500 -0.532991
O3    O     O_R   0.714300 0.209080 0.827500 -0.542534
O4    O     O_R   0.285700 0.209080 0.172500 -0.532990
O5    O     O_R   0.236190 0.958390 0.823150 -0.499770
O6    O     O_R   0.763810 0.958390 0.176850 -0.507926
O7    O     O_R   0.736190 0.458390 0.823150 -0.499614
O8    O     O_R   0.263810 0.458390 0.176850 -0.508817
C1    C     C_R   0.290284 0.996967 0.860933 0.567630
C2    C     C_R   0.726751 0.040308 0.145764 0.553398
C3    C     C_R   0.790284 0.496968 0.860932 0.568105
C4    C     C_R   0.226754 0.540318 0.145768 0.552297
O9    O     O_R   0.332090 0.075280 0.831290 -0.443347
O10   O     O_R   0.667910 0.075280 0.168710 -0.491428
O11   O     O_R   0.832090 0.575280 0.831290 -0.443223
O12   O     O_R   0.167910 0.575280 0.168710 -0.492026
O13   O     O_R   0.446280 0.918040 0.826620 -0.525264
O14   O     O_R   0.553720 0.918040 0.173380 -0.502438
O15   O     O_R   0.946280 0.418040 0.826620 -0.524975
O16   O     O_R   0.053720 0.418040 0.173380 -0.501769
C5    C     C_R   0.469909 0.822079 0.855719 0.541080
C6    C     C_R   0.530301 0.821133 0.144243 0.538679
C7    C     C_R   0.969911 0.322078 0.855718 0.541168
C8    C     C_R   0.030304 0.321132 0.144241 0.539168
O17   O     O_R   0.457080 0.716270 0.831760 -0.518326
O18   O     O_R   0.542920 0.716270 0.168240 -0.508733
O19   O     O_R   0.957080 0.216270 0.831760 -0.517901
O20   O     O_R   0.042920 0.216270 0.168240 -0.508758
O21   O     O_R   0.320980 0.624440 0.823040 -0.480283
O22   O     O_R   0.679020 0.624440 0.176960 -0.471615
O23   O     O_R   0.820980 0.124440 0.823040 -0.480424
O24   O     O_R   0.179020 0.124440 0.176960 -0.472486
C9    C     C_R   0.261072 0.638205 0.852030 0.561179
C10   C     C_R   0.740193 0.633869 0.148868 0.544014
C11   C     C_R   0.761069 0.138199 0.852026 0.560473
C12   C     C_R   0.240196 0.133864 0.148871 0.543577
O25   O     O_R   0.213880 0.710510 0.665560 -0.519657
O26   O     O_R   0.786120 0.710510 0.334440 -0.519217
O27   O     O_R   0.713880 0.210510 0.665560 -0.525733
O28   O     O_R   0.286120 0.210510 0.334440 -0.526691
O29   O     O_R   0.235800 0.959720 0.673040 -0.503545
O30   O     O_R   0.764200 0.959720 0.326960 -0.510174
O31   O     O_R   0.735800 0.459720 0.673040 -0.509063
O32   O     O_R   0.264200 0.459720 0.326960 -0.512443
C13   C     C_R   0.272168 0.044416 0.645267 0.563062
C14   C     C_R   0.726673 0.040415 0.356346 0.546168
C15   C     C_R   0.770777 0.548227 0.647199 0.565552
C16   C     C_R   0.229502 0.547816 0.352836 0.553131
O33   O     O_R   0.331670 0.076720 0.669350 -0.507054
O34   O     O_R   0.668330 0.076720 0.330650 -0.511036
O35   O     O_R   0.831670 0.576720 0.669350 -0.513652
O36   O     O_R   0.168330 0.576720 0.330650 -0.518237
O37   O     O_R   0.445900 0.919370 0.676500 -0.507230
O38   O     O_R   0.554100 0.919370 0.323500 -0.510033
O39   O     O_R   0.945900 0.419370 0.676500 -0.511478
O40   O     O_R   0.054100 0.419370 0.323500 -0.509289
C17   C     C_R   0.468486 0.823218 0.646078 0.546581
C18   C     C_R   0.529759 0.823626 0.352760 0.545291
C19   C     C_R   0.970971 0.323384 0.647684 0.547539
C20   C     C_R   0.032544 0.323197 0.354589 0.541231
O41   O     O_R   0.456660 0.717710 0.669820 -0.515915
O42   O     O_R   0.543340 0.717710 0.330180 -0.523707
O43   O     O_R   0.956660 0.217710 0.669820 -0.519958
O44   O     O_R   0.043340 0.217710 0.330180 -0.518097
O45   O     O_R   0.320590 0.625770 0.672930 -0.497449
O46   O     O_R   0.679410 0.625770 0.327070 -0.504423
O47   O     O_R   0.820590 0.125770 0.672930 -0.503576
O48   O     O_R   0.179410 0.125770 0.327070 -0.505851
C21   C     C_R   0.260615 0.640630 0.642187 0.553839
C22   C     C_R   0.739282 0.639573 0.357665 0.547216
C23   C     C_R   0.758433 0.133803 0.645361 0.554530
C24   C     C_R   0.240273 0.135169 0.355483 0.555061
Cr1   Cr    Cr6+3 0.229640 0.835880 0.747370 1.017736
Cr2   Cr    Cr6+3 0.770360 0.835880 0.252630 1.022012
Cr3   Cr    Cr6+3 0.729640 0.335880 0.747370 1.012838
Cr4   Cr    Cr6+3 0.270360 0.335880 0.252630 1.018100
Cr5   Cr    Cr6+3 0.387390 0.989720 0.750850 1.049785
Cr6   Cr    Cr6+3 0.612610 0.989720 0.249150 1.051138
Cr7   Cr    Cr6+3 0.887390 0.489720 0.750850 1.045387
Cr8   Cr    Cr6+3 0.112610 0.489720 0.249150 1.049105
Cr9   Cr    Cr6+3 0.385770 0.677220 0.749340 1.045745
Cr10  Cr    Cr6+3 0.614230 0.677220 0.250660 1.064105
Cr11  Cr    Cr6+3 0.885770 0.177220 0.749340 1.040883
Cr12  Cr    Cr6+3 0.114230 0.177220 0.250660 1.065623
O49   O     O_3   0.334270 0.834280 0.749190 -0.291052
O50   O     O_3   0.665730 0.834280 0.250810 -0.266988
O51   O     O_3   0.834270 0.334280 0.749190 -0.286505
O52   O     O_3   0.165730 0.334280 0.250810 -0.265126
C25   C     C_3   0.476908 0.932625 0.028692 -0.122287
C26   C     C_3   0.534621 0.924574 0.971147 -0.109100
C27   C     C_3   0.976907 0.432615 0.028690 -0.122332
C28   C     C_3   0.034621 0.424572 0.971146 -0.109102
C29   C     C_3   0.431256 0.837186 0.987382 -0.124058
C30   C     C_3   0.570146 0.819842 0.012571 -0.109097
C31   C     C_3   0.931259 0.337173 0.987378 -0.123942
C32   C     C_3   0.070149 0.319842 0.012569 -0.109136
H1    H     H_    0.373815 0.837867 0.975510 0.106573
H2    H     H_    0.627579 0.812752 0.024685 0.136751
H3    H     H_    0.873818 0.337855 0.975504 0.106704
H4    H     H_    0.127582 0.312755 0.024684 0.136826
H5    H     H_    0.460069 0.017317 0.055302 0.130016
H6    H     H_    0.561579 0.002247 0.945314 0.125567
H7    H     H_    0.960066 0.517306 0.055299 0.130009
H8    H     H_    0.061574 0.502249 0.945313 0.125566
C33   C     C_3   0.489468 0.829416 0.931220 0.054315
C34   C     C_3   0.511726 0.827799 0.068663 0.049094
C35   C     C_3   0.989472 0.329412 0.931218 0.054422
C36   C     C_3   0.011728 0.327792 0.068660 0.048889
C37   C     C_3   0.524262 0.725065 0.971521 -0.117745
C38   C     C_3   0.466799 0.733039 0.028509 -0.118469
C39   C     C_3   0.024269 0.225061 0.971517 -0.117726
C40   C     C_3   0.966804 0.233026 0.028504 -0.118498
H9    H     H_    0.539605 0.639903 0.944946 0.125258
H10   H     H_    0.440006 0.655398 0.054459 0.132378
H11   H     H_    0.039619 0.139904 0.944941 0.125274
H12   H     H_    0.940011 0.155374 0.054445 0.132391
C41   C     C_R   0.242893 0.579862 0.074124 0.027613
C42   C     C_R   0.780756 0.512775 0.938037 0.022369
C43   C     C_R   0.742891 0.079842 0.074117 0.027059
C44   C     C_R   0.280757 0.012771 0.938040 0.022234
C45   C     C_R   0.305371 0.550572 0.039735 -0.060264
C46   C     C_R   0.723886 0.461131 0.974754 -0.039943
C47   C     C_R   0.805360 0.050508 0.039718 -0.060371
C48   C     C_R   0.223895 0.961110 0.974764 -0.040086
C49   C     C_R   0.311351 0.565827 0.966616 0.000973
C50   C     C_R   0.712755 0.489003 0.046301 0.045950
C51   C     C_R   0.811336 0.065769 0.966600 0.001285
C52   C     C_R   0.212766 0.988991 0.046310 0.046025
C53   C     C_R   0.191257 0.635650 0.960106 -0.158972
C54   C     C_R   0.823203 0.598261 0.050607 -0.158523
C55   C     C_R   0.691258 0.135679 0.960106 -0.158828
C56   C     C_R   0.323206 0.098267 0.050609 -0.158360
C57   C     C_R   0.187282 0.629598 0.033312 -0.124465
C58   C     C_R   0.833245 0.573561 0.978533 -0.113494
C59   C     C_R   0.687288 0.129622 0.033313 -0.124688
C60   C     C_R   0.333245 0.073565 0.978534 -0.113477
C61   C     C_3   0.347190 0.436207 0.040251 -0.234360
C62   C     C_3   0.646947 0.464569 0.957226 -0.236603
C63   C     C_3   0.847143 0.936102 0.040214 -0.234529
C64   C     C_3   0.146951 0.964508 0.957245 -0.236679
C65   C     C_3   0.355883 0.454757 0.960417 0.096843
C66   C     C_3   0.634609 0.494445 0.035668 0.101366
C67   C     C_3   0.855831 0.954663 0.960380 0.096891
C68   C     C_3   0.134619 0.994403 0.035687 0.101420
C69   C     C_R   0.252717 0.600646 0.925293 0.066918
C70   C     C_R   0.759009 0.567572 0.083564 0.002123
C71   C     C_R   0.752708 0.100640 0.925286 0.067213
C72   C     C_R   0.259015 0.067569 0.083569 0.002404
H13   H     H_    0.145607 0.668143 0.930764 0.136520
H14   H     H_    0.863248 0.652535 0.078117 0.148947
H15   H     H_    0.645613 0.168206 0.930771 0.136634
H16   H     H_    0.363248 0.152548 0.078117 0.149007
H17   H     H_    0.137348 0.653733 0.056540 0.204568
H18   H     H_    0.881031 0.607021 0.953952 0.170898
H19   H     H_    0.637363 0.153792 0.056547 0.204508
H20   H     H_    0.381029 0.107029 0.953951 0.170909
H21   H     H_    0.814506 0.855688 0.054570 0.187148
H22   H     H_    0.125786 0.874689 0.939675 0.164328
H23   H     H_    0.314576 0.355764 0.054608 0.187304
H24   H     H_    0.625772 0.374764 0.939640 0.164465
H25   H     H_    0.397469 0.446358 0.071094 0.152264
H26   H     H_    0.635171 0.539907 0.919904 0.131934
H27   H     H_    0.897430 0.946204 0.071049 0.152282
H28   H     H_    0.135157 0.039826 0.919916 0.131937
H29   H     H_    0.411011 0.476765 0.944723 0.135362
H30   H     H_    0.612797 0.585419 0.046581 0.119397
H31   H     H_    0.910962 0.976628 0.944677 0.135396
H32   H     H_    0.112794 0.085374 0.046588 0.119403
C73   C     C_R   0.497231 0.834488 0.422101 0.017585
C74   C     C_R   0.485466 0.828487 0.571122 0.023378
C75   C     C_R   0.016607 0.329473 0.429968 0.020377
C76   C     C_R   0.005657 0.329854 0.579129 0.020085
C77   C     C_R   0.469909 0.731459 0.455802 0.023721
C78   C     C_R   0.464771 0.729049 0.528849 0.047975
C79   C     C_R   0.023170 0.222379 0.468827 0.037029
C80   C     C_R   0.017999 0.221809 0.541617 0.023948
C81   C     C_R   0.504226 0.937272 0.537576 -0.158576
C82   C     C_R   0.509384 0.940579 0.463222 -0.155700
C83   C     C_R   0.011586 0.440536 0.542363 -0.169210
C84   C     C_R   0.015563 0.440322 0.467665 -0.166281
C85   C     C_3   0.493147 0.601603 0.453556 -0.267642
C86   C     C_3   0.489260 0.600837 0.533845 -0.266600
C87   C     C_3   0.983821 0.105101 0.459361 -0.279466
C88   C     C_3   0.977891 0.103279 0.539536 -0.270175
H33   H     H_    0.518172 0.017014 0.568916 0.118048
H34   H     H_    0.529389 0.022308 0.438832 0.132207
H35   H     H_    0.007528 0.526024 0.570508 0.115527
H36   H     H_    0.014899 0.525597 0.439442 0.117187
H37   H     H_    0.017089 0.031000 0.438306 0.133489
H38   H     H_    0.922665 0.113271 0.556927 0.168417
H39   H     H_    0.547560 0.590825 0.434764 0.165941
H40   H     H_    0.448907 0.537412 0.554476 0.141742
H41   H     H_    0.453664 0.540878 0.426848 0.131180
H42   H     H_    0.541584 0.594380 0.560934 0.138216
H43   H     H_    0.932269 0.116584 0.431086 0.138406
H44   H     H_    0.007748 0.028118 0.565062 0.127712
C89   C     C_R   0.254228 0.599468 0.419364 0.021281
C90   C     C_R   0.748670 0.601484 0.580597 0.022536
C91   C     C_R   0.736371 0.057672 0.431717 0.019303
C92   C     C_R   0.260846 0.069256 0.571249 0.024415
C93   C     C_R   0.216259 0.691321 0.452750 0.024153
C94   C     C_R   0.795665 0.678120 0.544678 0.030601
C95   C     C_R   0.678579 0.099826 0.468846 0.035422
C96   C     C_R   0.321265 0.082975 0.530225 0.046935
C97   C     C_R   0.216968 0.698369 0.525636 0.047623
C98   C     C_R   0.793419 0.682812 0.471920 0.046067
C99   C     C_R   0.680035 0.106676 0.541491 0.023347
C100  C     C_R   0.317355 0.086580 0.457439 0.022857
C101  C     C_R   0.303101 0.539601 0.533887 -0.160592
C102  C     C_R   0.690477 0.552690 0.468327 -0.171578
C103  C     C_R   0.792569 0.005058 0.544130 -0.163343
C104  C     C_R   0.191630 0.046239 0.463475 -0.157315
C105  C     C_R   0.303992 0.533777 0.459830 -0.155921
C106  C     C_R   0.691017 0.550578 0.542714 -0.172564
C107  C     C_R   0.791044 0.000102 0.469763 -0.161532
C108  C     C_R   0.196209 0.043386 0.537510 -0.162939
C109  C     C_3   0.139731 0.725958 0.448809 -0.267826
C110  C     C_3   0.875124 0.684244 0.545005 -0.268396
C111  C     C_3   0.640040 0.216001 0.459019 -0.276809
C112  C     C_3   0.377179 0.179350 0.535143 -0.266638
C113  C     C_3   0.140755 0.730202 0.529301 -0.268375
C114  C     C_3   0.871623 0.688674 0.464756 -0.278119
C115  C     C_3   0.640844 0.225177 0.539132 -0.270203
C116  C     C_3   0.374920 0.181640 0.454721 -0.270818
C117  C     C_R   0.255489 0.616455 0.567170 0.025787
C118  C     C_R   0.744808 0.613247 0.432476 0.021843
C119  C     C_R   0.741064 0.072280 0.579389 0.022329
C120  C     C_R   0.251368 0.078613 0.423432 0.021741
H45   H     H_    0.336671 0.480592 0.565077 0.115224
H46   H     H_    0.649912 0.503178 0.438957 0.118645
H47   H     H_    0.837459 0.968612 0.572947 0.125179
H48   H     H_    0.140036 0.036589 0.438585 0.134751
H49   H     H_    0.337223 0.467331 0.435130 0.121390
H50   H     H_    0.651092 0.498279 0.569870 0.118130
H51   H     H_    0.833524 0.956273 0.442195 0.130597
H52   H     H_    0.149288 0.026111 0.568301 0.119310
H53   H     H_    0.103900 0.653955 0.427999 0.164203
H54   H     H_    0.899788 0.599522 0.564027 0.168264
H55   H     H_    0.586238 0.203843 0.435659 0.135768
H56   H     H_    0.427622 0.146319 0.557796 0.144029
H57   H     H_    0.131970 0.816245 0.423809 0.135421
H58   H     H_    0.896388 0.769314 0.569795 0.130713
H59   H     H_    0.672968 0.286657 0.432831 0.140197
H60   H     H_    0.357845 0.264413 0.560017 0.132753
H61   H     H_    0.131883 0.821968 0.551520 0.144668
H62   H     H_    0.891000 0.776062 0.442669 0.137387
H63   H     H_    0.673524 0.303131 0.557859 0.172316
H64   H     H_    0.357786 0.270793 0.434366 0.158814
H65   H     H_    0.108636 0.656931 0.553915 0.135960
H66   H     H_    0.892866 0.606101 0.438628 0.136546
H67   H     H_    0.587426 0.218090 0.562651 0.126100
H68   H     H_    0.423659 0.146748 0.430079 0.132499
N1    N     N_R   0.322496 0.359697 0.916183 0.081988
O53   O     O_R   0.354119 0.323071 0.859034 -0.318849
O54   O     O_R   0.258732 0.320611 0.928805 -0.364032
N2    N     N_R   0.597387 0.397090 0.072945 0.070131
O55   O     O_R   0.535344 0.361581 0.049853 -0.397893
O56   O     O_R   0.618777 0.363556 0.136124 -0.329420
N3    N     N_R   0.822405 0.859654 0.916135 0.081928
O57   O     O_R   0.853963 0.823135 0.858925 -0.318834
O58   O     O_R   0.758645 0.820577 0.928789 -0.364226
N4    N     N_R   0.097412 0.897046 0.072980 0.070136
O59   O     O_R   0.035338 0.861600 0.049943 -0.397890
O60   O     O_R   0.118864 0.863434 0.136124 -0.329609

loop_
_geom_bond_atom_site_label_1
_geom_bond_atom_site_label_2
_geom_bond_distance
_ccdc_geom_bond_type
C18   O42   1.267404 A    
C103  C107  1.394708 A    
O4    C12   1.261610 A    
C99   C115  1.506475 S    
O39   C19   1.282250 A    
O20   Cr12  2.084965 S    
C85   H39   1.101393 S    
O29   C13   1.270281 A    
O37   Cr5   1.955732 S    
C39   C40   1.539511 S    
C38   H10   1.106507 S    
C28   C32   1.545561 S    
C41   C57   1.408381 A    
C43   C47   1.395991 A    
C78   C86   1.491231 S    
Cr7   O51   1.973236 S    
C50   C70   1.400051 A    
O1    C9    1.267965 A    
C106  H50   1.079946 S    
C77   C78   1.374608 A    
C13   C92   1.428601 S    
O7    C3    1.302216 A    
C112  H60   1.111111 S    
C27   C31   1.549180 S    
O5    C1    1.302219 A    
C103  H47   1.081414 S    
C32   H4    1.110988 S    
C68   H32   1.105521 S    
C91   C107  1.405517 A    
O24   C12   1.283149 A    
C79   C87   1.490546 S    
C98   C114  1.489538 S    
C39   H11   1.102351 S    
O25   C21   1.260436 A    
C31   C40   1.538113 S    
C23   C119  1.438795 S    
O26   Cr2   2.086356 S    
N1    O53   1.299873 A    
C104  H48   1.079933 S    
C31   H3    1.106777 S    
C54   C70   1.410365 A    
C55   C71   1.399683 A    
O47   C23   1.281953 A    
C83   H35   1.079733 S    
C30   H2    1.110985 S    
C81   H33   1.081165 S    
C45   C61   1.492833 S    
C53   H13   1.081923 S    
O21   C9    1.275519 A    
O8    Cr4   1.965063 S    
O23   Cr11  1.947986 S    
C9    C69   1.446326 S    
O30   C14   1.271438 A    
C111  H55   1.109008 S    
O32   Cr4   1.949400 S    
C1    O9    1.295997 A    
O44   Cr12  2.071492 S    
O25   Cr1   2.073303 S    
C2    C43   1.449502 S    
C84   H36   1.078458 S    
C64   H22   1.108349 S    
C3    O11   1.295981 A    
C116  H64   1.103363 S    
O11   Cr7   2.076682 S    
C4    O12   1.263559 A    
C49   C65   1.496287 S    
N2    O56   1.301717 A    
C25   C34   1.527100 S    
C54   H14   1.082630 S    
C87   H43   1.112015 S    
C15   C90   1.439387 S    
C110  C114  1.505739 S    
C86   H42   1.109226 S    
O6    Cr2   1.965063 S    
C7    O19   1.264699 A    
O19   Cr11  2.076231 S    
O3    Cr3   2.075198 S    
C68   N4    1.461484 S    
Cr4   O52   1.980617 S    
C53   C69   1.399668 A    
C42   C58   1.402892 A    
C56   C60   1.393271 A    
C29   C38   1.538106 S    
C48   C52   1.394157 A    
C29   C33   1.538780 S    
O2    C10   1.261625 A    
O10   Cr6   2.072444 S    
O42   Cr10  2.071492 S    
C77   C85   1.498789 S    
O18   Cr10  2.084965 S    
C103  C119  1.401830 A    
Cr8   O52   1.992038 S    
C91   C95   1.388603 A    
C102  C118  1.401318 A    
C112  C116  1.507816 S    
C54   C58   1.393263 A    
C86   H40   1.104300 S    
C105  H49   1.076895 S    
O34   Cr6   2.068059 S    
C33   C37   1.525972 S    
C43   C59   1.408379 A    
C12   C72   1.472393 S    
C20   O44   1.264545 A    
C26   C30   1.545559 S    
C66   N2    1.461473 S    
O35   Cr7   2.084575 S    
C109  C113  1.509180 S    
C19   C76   1.453944 S    
O24   Cr12  1.952238 S    
C32   C39   1.544328 S    
O9    Cr5   2.076682 S    
O30   Cr2   1.949400 S    
O22   C10   1.283138 A    
C74   C81   1.398553 A    
C76   C80   1.401225 A    
O48   Cr12  1.964965 S    
C104  C108  1.389679 A    
C6    C34   1.456785 S    
C18   C73   1.452026 S    
C67   N3    1.463222 S    
C46   C62   1.489193 S    
C62   H26   1.108640 S    
C2    O10   1.263574 A    
C59   H19   1.082124 S    
C27   C28   1.550306 S    
N1    O54   1.302595 A    
C61   H23   1.109583 S    
C98   C118  1.391845 A    
C52   C72   1.400020 A    
C51   C67   1.496258 S    
C115  H63   1.104344 S    
O27   C23   1.260278 A    
C85   C86   1.508052 S    
C111  C115  1.504520 S    
C50   C66   1.491693 S    
C32   C36   1.540842 S    
C101  C105  1.389811 A    
C36   C40   1.526229 S    
C8    O20   1.262985 A    
O48   C24   1.264917 A    
C44   C60   1.402904 A    
C56   C72   1.410363 A    
O41   Cr9   2.068089 S    
C46   C50   1.394162 A    
C88   H44   1.111792 S    
O15   C7    1.271952 A    
C87   C88   1.509055 S    
C42   C46   1.403136 A    
C45   C49   1.387830 A    
C82   H34   1.077633 S    
C15   O35   1.255328 A    
C92   C96   1.395517 A    
C66   H30   1.105504 S    
O12   Cr8   2.072444 S    
O39   Cr7   1.955732 S    
C28   C35   1.529426 S    
C47   C51   1.387823 A    
C79   C80   1.369549 A    
O3    C11   1.267942 A    
O8    C4    1.283761 A    
C7    C35   1.458991 S    
N2    O55   1.300922 A    
C21   C117  1.431582 S    
O13   Cr5   1.964792 S    
C13   O33   1.254253 A    
C102  H46   1.079073 S    
C116  H68   1.109667 S    
C107  H51   1.079422 S    
C63   C67   1.522463 S    
O16   Cr8   1.950217 S    
C101  H45   1.080309 S    
O47   Cr11  1.953746 S    
Cr2   O50   1.980617 S    
C97   C117  1.396876 A    
C52   C68   1.491680 S    
C67   H31   1.113232 S    
C31   C35   1.538771 S    
C8    C36   1.456796 S    
C90   C94   1.400816 A    
C87   H37   1.109938 S    
C76   C83   1.405202 A    
Cr3   O51   1.980997 S    
O26   C22   1.258627 A    
C22   C118  1.435598 S    
O21   Cr9   1.947986 S    
O27   Cr3   2.073303 S    
C61   C65   1.522446 S    
C94   C98   1.365090 A    
C56   H16   1.082631 S    
C47   C63   1.492853 S    
C53   C57   1.377389 A    
C75   C84   1.406392 A    
C100  C116  1.503371 S    
C110  H54   1.104316 S    
C41   C45   1.395955 A    
N3    O57   1.299880 A    
C90   C106  1.402905 A    
C114  H66   1.111589 S    
C73   C82   1.409973 A    
C40   H12   1.106533 S    
C96   C112  1.491167 S    
C85   H41   1.108935 S    
C96   C100  1.366029 A    
N4    O60   1.301735 A    
O31   Cr3   1.956087 S    
O14   Cr6   1.950217 S    
C17   C74   1.447543 S    
O38   C18   1.274115 A    
C49   C69   1.401324 A    
C115  H67   1.111684 S    
C19   O43   1.263279 A    
C80   C88   1.501061 S    
O15   Cr7   1.964792 S    
C5    O17   1.264705 A    
C30   C34   1.540841 S    
C88   H38   1.106542 S    
O37   C17   1.279550 A    
O22   Cr10  1.952238 S    
O28   C24   1.262160 A    
C25   H5    1.106541 S    
O14   C6    1.267630 A    
C20   C75   1.450985 S    
C35   C39   1.525977 S    
C27   C36   1.527099 S    
C48   C64   1.489219 S    
O5    Cr1   1.954768 S    
C64   C68   1.527357 S    
C26   C33   1.529436 S    
C27   H7    1.106542 S    
N3    O58   1.302595 A    
O17   Cr9   2.076231 S    
O2    Cr2   2.070618 S    
Cr11  O51   1.991829 S    
O6    C2    1.283747 A    
O7    Cr3   1.954768 S    
C17   O41   1.263062 A    
N4    O59   1.300922 A    
C74   C78   1.396369 A    
C37   H9    1.102350 S    
C64   H28   1.108635 S    
C14   O34   1.267255 A    
C30   C37   1.544329 S    
C55   C59   1.377385 A    
O40   Cr8   1.951124 S    
C89   C93   1.397143 A    
C95   C111  1.488264 S    
C16   C89   1.437613 S    
C57   H17   1.082121 S    
O1    Cr1   2.075198 S    
C65   H29   1.113232 S    
C94   C110  1.505103 S    
C26   H6    1.107234 S    
C63   H27   1.110357 S    
C99   C119  1.403140 A    
C93   C109  1.502808 S    
Cr1   O49   1.980997 S    
C101  C117  1.394587 A    
O32   C16   1.274404 A    
C102  C106  1.394590 A    
C37   C38   1.539510 S    
C100  C120  1.395408 A    
O46   Cr10  1.964965 S    
Cr10  O50   1.973618 S    
C114  H62   1.108802 S    
C73   C77   1.397558 A    
Cr6   O50   1.992038 S    
C14   C91   1.433426 S    
C58   H18   1.083291 S    
Cr12  O52   1.973618 S    
C95   C99   1.363349 A    
Cr5   O49   1.973236 S    
O45   C21   1.277707 A    
C113  H61   1.105163 S    
O23   C11   1.275537 A    
C97   C113  1.490958 S    
C92   C108  1.394736 A    
C108  H52   1.082475 S    
O33   Cr5   2.084575 S    
C55   H15   1.081927 S    
C62   C66   1.527354 S    
C11   C71   1.446292 S    
C110  H58   1.111209 S    
C60   H20   1.083291 S    
C25   C29   1.549181 S    
O16   C8    1.267643 A    
C109  H57   1.109598 S    
O4    Cr4   2.070618 S    
C109  H53   1.102904 S    
C28   H8    1.107227 S    
O29   Cr1   1.956087 S    
C83   C84   1.403442 A    
C104  C120  1.410508 A    
C62   H24   1.108353 S    
C51   C71   1.401288 A    
C16   O36   1.268557 A    
C89   C105  1.407671 A    
O40   C20   1.275664 A    
O46   C22   1.269709 A    
C63   H21   1.109578 S    
C10   C70   1.472410 S    
C34   C38   1.526207 S    
C81   C82   1.399335 A    
C6    O18   1.262998 A    
O28   Cr4   2.086356 S    
O43   Cr11  2.068089 S    
C1    C44   1.469215 S    
C93   C97   1.367985 A    
O45   Cr9   1.953746 S    
C112  H56   1.104689 S    
C75   C79   1.392700 A    
C65   N1    1.463200 S    
C4    C41   1.449476 S    
C111  H59   1.111474 S    
C25   C26   1.550315 S    
O36   Cr8   2.068059 S    
C3    C42   1.469181 S    
O31   C15   1.272800 A    
C113  H65   1.110349 S    
Cr9   O49   1.991829 S    
C5    C33   1.459010 S    
C44   C48   1.403156 A    
C61   H25   1.110353 S    
C29   H1    1.106771 S    
O38   Cr6   1.951124 S    
C24   C120  1.433294 S    
O13   C5    1.271944 A    
