data_mof_unit_66298.cif
_audit_creation_date              2012-12-10T17:04:21-0500
_audit_creation_method            fapswitch 2.2
_symmetry_space_group_name_H-M    P1
_symmetry_Int_Tables_number       1
_space_group_crystal_system       triclinic
_cell_length_a                    15.146856
_cell_length_b                    15.157646
_cell_length_c                    16.033817
_cell_angle_alpha                 89.247753
_cell_angle_beta                  89.812177
_cell_angle_gamma                 90.308137
_cell_volume                      3680.82382331

loop_
_atom_site_label
_atom_site_type_symbol
_atom_type_description
_atom_site_fract_x
_atom_site_fract_y
_atom_site_fract_z
_atom_type_partial_charge
C1    C     C_R   0.260144 0.486219 0.487981 0.497638
C2    C     C_R   0.980840 0.460528 0.507301 0.020237
C3    C     C_R   0.018621 0.546535 0.496439 0.095589
C4    C     C_R   0.739769 0.515356 0.512080 0.504432
C5    C     C_R   0.110997 0.554849 0.485793 0.101897
C6    C     C_R   0.125948 0.395037 0.496074 -0.127984
C7    C     C_R   0.034813 0.384920 0.505679 0.089161
C8    C     C_R   0.508740 0.164485 0.527540 0.032119
C9    C     C_R   0.484913 0.835754 0.481511 0.038905
C10   C     C_R   0.486239 0.967520 0.394869 0.095440
C11   C     C_R   0.483724 0.876083 0.403090 -0.135870
C12   C     C_1   0.477011 0.520323 0.886376 -0.047533
C13   C     C_R   0.489655 0.885704 0.554423 0.095837
C14   C     C_R   0.495322 0.979497 0.548247 0.045684
C15   C     C_R   0.493142 0.019501 0.467032 0.018172
C16   C     C_R   0.511642 0.260140 0.514737 0.529804
C17   C     C_R   0.499100 0.111173 0.458427 -0.150746
C18   C     C_R   0.511146 0.127187 0.608077 0.099388
C19   C     C_R   0.504064 0.034875 0.619103 0.100470
C20   C     C_R   0.486973 0.739784 0.486093 0.534113
C21   C     C_R   0.513073 0.488785 0.277346 0.502128
C22   C     C_R   0.487263 0.511352 0.722598 0.509254
C23   C     C_1   0.522502 0.481881 0.113404 0.000969
C24   C     C_1   0.518470 0.484891 0.188311 0.026682
C25   C     C_2   0.526479 0.478821 0.023699 -0.062793
C26   C     C_2   0.470797 0.525651 0.975968 0.100400
C27   C     C_1   0.481940 0.516032 0.811588 0.005197
C28   C     C_R   0.164037 0.478720 0.487970 0.002157
C29   C     C_R   0.835141 0.525179 0.515175 -0.003021
C30   C     C_R   0.962279 0.621224 0.496956 0.112424
C31   C     C_R   0.871520 0.609262 0.505269 -0.131370
C32   C     C_R   0.889236 0.451406 0.518232 -0.121785
H1    H     H_    0.480074 0.835685 0.347878 0.119362
H2    H     H_    0.574231 0.167599 0.712783 0.234953
H3    H     H_    0.487999 0.960233 0.266771 0.233146
H4    H     H_    0.420932 0.036645 0.306551 0.229692
H5    H     H_    0.564947 0.015990 0.730754 0.234190
H6    H     H_    0.452835 0.024130 0.736277 0.233769
H7    H     H_    0.438160 0.855863 0.669302 0.268268
H8    H     H_    0.552195 0.850466 0.662443 0.256730
H9    H     H_    0.191131 0.636713 0.417210 0.226529
H10   H     H_    0.187703 0.658555 0.521526 0.266040
H11   H     H_    0.966402 0.738962 0.436154 0.234472
H12   H     H_    0.576043 0.437148 0.995260 0.099946
H13   H     H_    0.976113 0.744914 0.541049 0.227784
H14   H     H_    0.046432 0.250550 0.520924 0.232307
H15   H     H_    0.963604 0.284183 0.459455 0.227880
H16   H     H_    0.167912 0.337320 0.497148 0.127907
H17   H     H_    0.828835 0.666472 0.503163 0.127183
H18   H     H_    0.858800 0.386871 0.525251 0.159016
H19   H     H_    0.497649 0.142337 0.397229 0.164396
H20   H     H_    0.343341 0.559868 0.991706 0.236700
H21   H     H_    0.415280 0.645203 0.990402 0.235435
H22   H     H_    0.462100 0.175008 0.716695 0.222244
N1    N     N_3   0.405100 0.580869 0.012851 -0.608207
N2    N     N_3   0.517770 0.184031 0.678820 -0.598944
N3    N     N_3   0.483136 0.007852 0.313151 -0.632264
N4    N     N_3   0.505547 0.998623 0.702176 -0.669145
N5    N     N_3   0.492230 0.838349 0.632543 -0.599434
N6    N     N_3   0.150468 0.639908 0.469907 -0.572590
N7    N     N_3   0.995578 0.709616 0.488551 -0.580322
N8    N     N_3   0.996965 0.298037 0.514786 -0.630286
O1    O     O_3   0.500000 0.500000 0.500000 -0.446495
O2    O     O_R   0.461330 0.435620 0.316920 -0.534885
O3    O     O_R   0.434750 0.558200 0.677930 -0.530601
O4    O     O_R   0.559650 0.545720 0.316320 -0.538388
O5    O     O_R   0.544270 0.460460 0.688830 -0.530202
O6    O     O_R   0.559890 0.307360 0.561630 -0.503489
O7    O     O_R   0.434610 0.697530 0.534530 -0.515081
O8    O     O_R   0.307380 0.433810 0.444990 -0.539624
O9    O     O_R   0.698130 0.561300 0.458860 -0.541033
O10   O     O_R   0.296270 0.542620 0.535390 -0.551379
O11   O     O_R   0.698230 0.462280 0.560770 -0.538586
O12   O     O_R   0.461480 0.296280 0.460320 -0.555094
O13   O     O_R   0.544020 0.698820 0.443520 -0.549468
Zn1   Zn    Zn3+2 0.574310 0.433680 0.576480 0.961086
Zn2   Zn    Zn3+2 0.433700 0.417860 0.431740 0.940066
Zn3   Zn    Zn3+2 0.574160 0.575160 0.430870 0.941802
Zn4   Zn    Zn3+2 0.417840 0.573310 0.560900 0.947616

loop_
_geom_bond_atom_site_label_1
_geom_bond_atom_site_label_2
_ccdc_geom_bond_type
H2    N2    S    
O3    Zn4   S    
C21   O4    A    
O2    Zn2   S    
C2    C7    A    
C26   N1    S    
C17   H19   S    
H15   N8    S    
C7    N8    S    
O1    Zn4   S    
C6    H16   S    
H14   N8    S    
C16   O12   A    
C29   C32   A    
C10   C15   A    
C30   C31   A    
O1    Zn1   S    
C2    C32   A    
C18   C19   A    
C9    C13   A    
C21   O2    A    
H6    N4    S    
C6    C28   A    
O12   Zn2   S    
C1    C28   S    
C23   C24   T    
C16   O6    A    
H5    N4    S    
H20   N1    S    
C18   N2    S    
O9    Zn3   S    
C8    C16   S    
H8    N5    S    
C13   C14   A    
O8    Zn2   S    
C31   H17   S    
C25   H12   S    
H21   N1    S    
C19   N4    S    
O4    Zn3   S    
H22   N2    S    
C1    O10   A    
C12   C27   T    
C11   H1    S    
C10   N3    S    
H4    N3    S    
H10   N6    S    
C25   C26   D    
C8    C18   A    
C20   O13   A    
C12   C26   S    
C3    C30   A    
C22   O3    A    
C5    C28   A    
C9    C20   S    
H7    N5    S    
C9    C11   A    
C32   H18   S    
C4    O11   A    
C22   C27   S    
O11   Zn1   S    
C20   O7    A    
O7    Zn4   S    
O6    Zn1   S    
C21   C24   S    
H11   N7    S    
O1    Zn2   S    
C15   C17   A    
C5    N6    S    
C14   C19   A    
C8    C17   A    
H9    N6    S    
C3    C5    A    
C4    C29   S    
C6    C7    A    
C13   N5    S    
O10   Zn4   S    
C1    O8    A    
H3    N3    S    
C2    C3    A    
C29   C31   A    
H13   N7    S    
C23   C25   S    
O13   Zn3   S    
C22   O5    A    
C10   C11   A    
C30   N7    S    
C14   C15   A    
O5    Zn1   S    
C4    O9    A    
O1    Zn3   S    
