data_mof_unit_6625.cif
_audit_creation_date              2012-12-11T15:46:58-0500
_audit_creation_method            fapswitch 2.2
_symmetry_space_group_name_H-M    P1
_symmetry_Int_Tables_number       1
_space_group_crystal_system       triclinic
_cell_length_a                    11.531891
_cell_length_b                    11.473911
_cell_length_c                    19.521625
_cell_angle_alpha                 90.80057
_cell_angle_beta                  90.493106
_cell_angle_gamma                 60.50217
_cell_volume                      2247.97150956

loop_
_atom_site_label
_atom_site_type_symbol
_atom_type_description
_atom_site_fract_x
_atom_site_fract_y
_atom_site_fract_z
_atom_type_partial_charge
C1    C     C_R   0.640712 0.117540 0.599101 0.544508
C2    C     C_1   0.653503 0.149900 0.668524 0.003629
C3    C     C_R   0.672690 0.668953 0.191423 0.006662
C4    C     C_R   0.612565 0.745779 0.598580 0.545023
C5    C     C_R   0.552983 0.769996 0.216418 0.051266
C6    C     C_R   0.535674 0.789476 0.285775 0.011295
C7    C     C_R   0.763302 0.620027 0.306727 -0.172241
C8    C     C_R   0.780614 0.600451 0.236549 -0.147001
C9    C     C_3   0.413209 0.799244 0.204050 -0.011813
C10   C     C_3   0.393724 0.821647 0.280979 -0.232563
C11   C     C_R   0.636560 0.707519 0.331452 0.011026
C12   C     C_1   0.641557 0.703828 0.667980 0.003655
C13   C     C_R   0.057515 0.247335 0.205458 -0.036946
C14   C     C_R   0.102483 0.323632 0.240468 -0.014735
C15   C     C_R   0.144762 0.297375 0.306292 -0.012417
C16   C     C_R   0.240758 0.145313 0.598143 0.546875
C17   C     C_R   0.083730 0.125384 0.312428 0.053959
C18   C     C_R   0.035293 0.156810 0.244357 -0.109926
C19   C     C_3   0.185939 0.387021 0.224242 0.053135
C20   C     C_3   0.229232 0.363402 0.299895 0.069258
C21   C     C_R   0.154279 0.186699 0.341165 -0.007384
C22   C     C_R   0.667789 0.193575 0.194335 0.039412
C23   C     C_1   0.126864 0.198215 0.859368 -0.000454
C24   C     C_R   0.706893 0.064256 0.216527 -0.021034
C25   C     C_R   0.702888 0.039610 0.284738 0.016050
C26   C     C_R   0.605456 0.274050 0.311974 -0.151381
C27   C     C_R   0.608501 0.301756 0.242412 0.065369
C28   C     C_R   0.645034 0.111905 0.402818 0.543109
C29   C     C_3   0.831901 0.933310 0.205411 -0.266388
C30   C     C_3   0.828138 0.907823 0.281074 -0.243255
C31   C     C_R   0.661102 0.141927 0.333580 0.009685
C32   C     C_R   0.082158 0.230830 0.928673 0.549591
C33   C     C_R   0.683868 0.604709 0.929612 0.541120
C34   C     C_1   0.171559 0.170040 0.727677 -0.031152
C35   C     C_R   0.708325 0.206302 0.930291 0.545532
C36   C     C_R   0.023843 0.269933 0.132910 0.556152
C37   C     C_R   0.683761 0.613353 0.124567 0.542953
C38   C     C_R   0.708995 0.212932 0.127487 0.559303
C39   C     C_R   0.615043 0.740397 0.402263 0.543510
C40   C     C_R   0.238065 0.143813 0.402927 0.533858
C41   C     C_1   0.670097 0.646877 0.860268 0.002913
C42   C     C_1   0.654957 0.683790 0.728484 -0.031816
C43   C     C_1   0.663301 0.667013 0.799798 -0.031873
C44   C     C_3   0.270063 0.513772 0.375465 -0.298138
C45   C     C_1   0.150245 0.181780 0.798969 -0.031786
C46   C     C_3   0.373274 0.916071 0.095077 -0.269460
C47   C     C_3   0.182510 0.592525 0.188918 -0.301363
C48   C     C_1   0.195269 0.160874 0.667323 0.003120
C49   C     C_1   0.678432 0.190667 0.860895 0.003482
C50   C     C_1   0.658883 0.167272 0.729010 -0.031699
C51   C     C_1   0.665635 0.180525 0.800357 -0.031739
Cr1   Cr    Cr6+3 0.404720 0.198220 0.499960 1.007606
Cr2   Cr    Cr6+3 0.698290 0.897110 0.500380 1.026424
Cr3   Cr    Cr6+3 0.396970 0.904720 0.499610 1.014256
Cr4   Cr    Cr6+3 0.926290 0.152010 0.028150 1.005452
Cr5   Cr    Cr6+3 0.921440 0.451830 0.027490 1.007627
Cr6   Cr    Cr6+3 0.626370 0.446880 0.028730 1.013225
H1    H     H_    0.845802 0.563054 0.341191 0.125329
H2    H     H_    0.402032 0.713751 0.184704 0.145977
H3    H     H_    0.327416 0.927022 0.295917 0.169031
H4    H     H_    0.374603 0.746981 0.306814 0.104309
H5    H     H_    0.986803 0.105913 0.221097 0.146321
H6    H     H_    0.091520 0.509633 0.369478 0.260899
H7    H     H_    0.217379 0.614661 0.399857 0.133081
H8    H     H_    0.342857 0.512868 0.338533 0.125453
H9    H     H_    0.322843 0.438236 0.415754 0.173684
H10   H     H_    0.475719 0.469035 0.194604 0.223582
H11   H     H_    0.540724 0.500476 0.264819 0.209518
H12   H     H_    0.267072 0.326448 0.187137 0.124049
H13   H     H_    0.234798 0.957313 0.171188 0.265172
H14   H     H_    0.309103 0.014693 0.071038 0.166830
H15   H     H_    0.360702 0.838396 0.066657 0.147586
H16   H     H_    0.478229 0.893858 0.091271 0.152273
H17   H     H_    0.012360 0.079277 0.395707 0.241653
H18   H     H_    0.151145 0.948882 0.362116 0.239335
H19   H     H_    0.035223 0.545717 0.169447 0.270958
H20   H     H_    0.113548 0.699797 0.178175 0.133513
H21   H     H_    0.243888 0.544807 0.142567 0.123724
H22   H     H_    0.247710 0.587310 0.232026 0.163455
H23   H     H_    0.337697 0.293620 0.307276 0.132341
H24   H     H_    0.565972 0.354347 0.349666 0.106136
H25   H     H_    0.919845 0.943205 0.191698 0.152179
H26   H     H_    0.814959 0.863675 0.172095 0.142570
H27   H     H_    0.810673 0.823206 0.291347 0.166131
H28   H     H_    0.911353 0.906889 0.310690 0.176719
H29   H     H_    0.873607 0.521487 0.218051 0.149625
N1    N     N_2   0.174706 0.486811 0.340538 -0.468889
N2    N     N_3   0.564157 0.437043 0.222049 -0.592141
N3    N     N_2   0.335546 0.921559 0.166040 -0.516285
N4    N     N_3   0.060298 0.032634 0.349978 -0.651375
N5    N     N_2   0.106507 0.527620 0.206174 -0.475938
O1    O     O_R   0.267750 0.231960 0.575440 -0.506561
O2    O     O_R   0.596230 0.579400 0.952760 -0.511323
O3    O     O_R   0.639160 0.321170 0.958690 -0.493229
O4    O     O_R   0.527290 0.186640 0.570530 -0.496426
O5    O     O_R   0.821370 0.124220 0.104400 -0.542802
O6    O     O_R   0.037020 0.167050 0.097880 -0.514700
O7    O     O_R   0.056310 0.349620 0.102920 -0.527957
O8    O     O_R   0.797790 0.564880 0.097980 -0.535901
O9    O     O_R   0.596000 0.584270 0.104310 -0.511150
O10   O     O_R   0.638950 0.325690 0.099180 -0.481172
O11   O     O_3   0.824700 0.350240 0.028120 -0.263321
O12   O     O_R   0.685950 0.784660 0.430010 -0.501763
O13   O     O_R   0.728110 0.003450 0.576380 -0.504699
O14   O     O_R   0.682980 0.789190 0.570500 -0.493638
O15   O     O_R   0.499300 0.771880 0.575540 -0.506604
O16   O     O_R   0.285350 0.030870 0.569740 -0.494053
O17   O     O_R   0.270960 0.227070 0.423890 -0.519485
O18   O     O_R   0.530270 0.182120 0.430040 -0.520138
O19   O     O_R   0.731320 0.998570 0.424830 -0.511002
O20   O     O_R   0.502510 0.767000 0.423980 -0.526356
O21   O     O_R   0.288320 0.026340 0.429250 -0.509072
O22   O     O_3   0.499990 0.000020 0.499980 -0.247942
O23   O     O_R   0.821590 0.119350 0.952850 -0.504671
O24   O     O_R   0.037230 0.162540 0.957390 -0.492586
O25   O     O_R   0.056530 0.344750 0.951370 -0.500551
O26   O     O_R   0.798000 0.560370 0.957490 -0.493181

loop_
_geom_bond_atom_site_label_1
_geom_bond_atom_site_label_2
_ccdc_geom_bond_type
Cr2   O19   S    
C25   C31   A    
C39   O12   A    
C20   N1    S    
C33   O26   A    
C23   C45   T    
Cr5   O26   S    
C44   H9    S    
C19   C20   S    
C47   H22   S    
C16   C48   S    
C7    C8    A    
C40   O21   A    
C46   N3    S    
Cr1   O22   S    
C44   H7    S    
C7    C11   A    
Cr6   O11   S    
Cr4   O11   S    
C26   C27   A    
C13   C18   A    
C35   O23   A    
C29   H26   S    
C38   O10   A    
C5    C6    A    
Cr2   O13   S    
C22   C38   S    
Cr3   O22   S    
Cr1   O4    S    
C1    C2    S    
C24   C29   S    
C12   C42   T    
C2    C50   T    
H18   N4    S    
C49   C51   T    
C35   C49   S    
C36   O6    A    
Cr5   O7    S    
C4    C12   S    
C44   N1    S    
C9    C10   S    
C7    H1    S    
C46   H15   S    
C16   O16   A    
C40   O17   A    
C39   O20   A    
C26   C31   A    
Cr6   O2    S    
C13   C14   A    
C41   C43   T    
C44   H8    S    
Cr2   O22   S    
C17   C18   A    
C15   C20   S    
C20   H23   S    
C24   C25   A    
C13   C36   S    
C3    C8    A    
C9    N3    S    
C6    C11   A    
Cr3   O15   S    
C18   H5    S    
C28   O19   A    
Cr6   O9    S    
C4    O15   A    
C17   C21   A    
C9    H2    S    
C10   H3    S    
C5    C9    S    
C29   C30   S    
C1    O4    A    
Cr4   O6    S    
C50   C51   S    
Cr5   O25   S    
Cr3   O21   S    
C34   C45   S    
C32   O25   A    
C30   H28   S    
C11   C39   S    
C1    O13   A    
Cr1   O17   S    
C46   H14   S    
Cr3   O16   S    
C16   O1    A    
C26   H24   S    
Cr6   O3    S    
H11   N2    S    
C22   C24   A    
Cr1   O1    S    
H13   N3    S    
C34   C48   T    
C42   C43   S    
C47   H20   S    
C37   O8    A    
C35   O3    A    
C25   C30   S    
C19   H12   S    
H6    N1    S    
C47   N5    S    
C14   C19   S    
C28   C31   S    
C17   N4    S    
Cr4   O5    S    
C3    C5    A    
C33   O2    A    
C6    C10   S    
H10   N2    S    
Cr4   O23   S    
C28   O18   A    
Cr6   O10   S    
C4    O14   A    
Cr5   O8    S    
C22   C27   A    
C33   C41   S    
C23   C32   S    
H17   N4    S    
Cr5   O11   S    
C29   H25   S    
C21   C40   S    
Cr4   O24   S    
Cr1   O18   S    
Cr2   O12   S    
Cr3   O20   S    
C8    H29   S    
C37   O9    A    
C32   O24   A    
C30   H27   S    
C27   N2    S    
C19   N5    S    
H19   N5    S    
C10   H4    S    
Cr2   O14   S    
C15   C21   A    
C3    C37   S    
C38   O5    A    
C14   C15   A    
C36   O7    A    
C47   H21   S    
C46   H16   S    
