data_mof_unit_67818.cif
_audit_creation_date              2013-03-05T15:41:24-0500
_audit_creation_method            fapswitch 2.2
_symmetry_space_group_name_H-M    P1
_symmetry_Int_Tables_number       1
_space_group_crystal_system       triclinic
_cell_length_a                    7.964951
_cell_length_b                    8.793612
_cell_length_c                    10.840383
_cell_angle_alpha                 92.986236
_cell_angle_beta                  85.19515
_cell_angle_gamma                 91.224597
_cell_volume                      755.461885986

loop_
_atom_site_label
_atom_site_type_symbol
_atom_site_description
_atom_site_fract_x
_atom_site_fract_y
_atom_site_fract_z
_atom_type_partial_charge
O1    O     O_R   0.389250 0.738570 0.508370 -0.602255
O2    O     O_R   0.678390 0.711620 0.486510 -0.632078
C1    C     C_R   0.542172 0.793503 0.494172 1.010230
O3    O     O_R   0.355430 0.513500 0.696140 -0.663926
O4    O     O_R   0.644580 0.486550 0.674270 -0.640719
C2    C     C_R   0.501387 0.507710 0.742320 0.830785
Zn1   Zn    Zn3+2 0.306940 0.517990 0.514600 1.009543
Zn2   Zn    Zn3+2 0.693060 0.482010 0.485400 1.004149
O5    O     O_R   0.321610 0.288380 0.513490 -0.568382
O6    O     O_R   0.610750 0.261430 0.491630 -0.628150
O7    O     O_R   0.355420 0.513450 0.325730 -0.537119
O8    O     O_R   0.644570 0.486500 0.303860 -0.608871
C3    C     C_R   0.457932 0.206709 0.496712 0.874163
C4    C     C_R   0.498518 0.498223 0.258516 0.870865
C5    C     C_3   0.333238 0.583816 0.944015 -0.187577
H1    H     H_    0.222253 0.525431 0.904893 0.127982
C6    C     C_3   0.319157 0.546667 0.081071 0.089829
H2    H     H_    0.237978 0.442159 0.088508 0.160829
H3    H     H_    0.386377 0.288672 0.900527 0.170458
H4    H     H_    0.429382 0.260302 0.097270 0.150391
C7    C     C_3   0.508456 0.345066 0.919114 -0.493902
C8    C     C_3   0.651972 0.599166 0.929353 -0.412864
C9    C     C_3   0.499032 0.510991 0.880530 0.085443
H5    H     H_    0.766471 0.539387 0.895759 0.176699
H6    H     H_    0.663369 0.714111 0.894692 0.180112
C10   C     C_3   0.497718 0.499504 0.122646 0.031555
C11   C     C_3   0.532640 0.337166 0.059991 -0.196456
C12   C     C_3   0.643925 0.604068 0.071558 -0.375960
H7    H     H_    0.638477 0.720338 0.114557 0.165876
H8    H     H_    0.766706 0.563634 0.098220 0.228438
H9    H     H_    0.609431 0.285871 0.860054 0.175669
C13   C     C_2   0.558471 0.956111 0.505098 -0.444461
H10   H     H_    0.649727 0.002947 0.564531 0.165556
C14   C     C_2   0.444106 0.046789 0.466170 0.054264
N1    N     N_2   0.950330 0.457950 0.465890 0.053134
N2    N     N_2   0.049670 0.542050 0.534110 -0.105398
C15   C     C_R   0.698534 0.260930 0.086722 0.154878
C16   C     C_R   0.692286 0.162604 0.185131 -0.108352
C17   C     C_R   0.822770 0.062463 0.198304 -0.089633
C18   C     C_R   0.966475 0.063207 0.115556 -0.037737
C19   C     C_R   0.979973 0.164180 0.020477 -0.172819
C20   C     C_R   0.847456 0.261152 0.005182 -0.153466
H11   H     H_    0.582713 0.160856 0.249418 0.160356
H12   H     H_    0.812882 0.985165 0.273202 0.161715
H13   H     H_    0.068464 0.987295 0.125720 0.211844
H14   H     H_    0.091590 0.164434 0.956190 0.145990
H15   H     H_    0.861995 0.328257 0.925221 0.120417
Br1   Br    Br    0.313467 0.988286 0.331699 -0.592485
Br2   Br    Br    0.049796 0.318642 0.347758 -0.389792
C21   C     C_R   0.986336 0.688139 0.573120 0.254796
C22   C     C_R   0.012012 0.810448 0.496322 -0.047396
C23   C     C_R   0.976527 0.959275 0.541415 -0.163180
C24   C     C_R   0.918111 0.987562 0.665194 -0.174804
C25   C     C_R   0.885081 0.865736 0.741023 -0.179286
C26   C     C_R   0.915387 0.716379 0.693423 -0.177970
H16   H     H_    0.057779 0.789574 0.401850 0.220585
H17   H     H_    0.995617 0.052658 0.481101 0.223680
H18   H     H_    0.896171 0.103111 0.701532 0.150815
H19   H     H_    0.847214 0.889045 0.838075 0.152660
H20   H     H_    0.911402 0.623817 0.753052 0.112273
C27   C     C_R   0.324356 0.753362 0.918072 0.174302
C28   C     C_R   0.257890 0.791475 0.809432 -0.139658
C29   C     C_R   0.304094 0.925202 0.752344 -0.119559
C30   C     C_R   0.428036 0.017465 0.799607 -0.172154
C31   C     C_R   0.482488 0.988877 0.914788 -0.215151
C32   C     C_R   0.414919 0.867465 0.980263 -0.090104
H21   H     H_    0.186596 0.708860 0.762070 0.163673
H22   H     H_    0.257007 0.948968 0.665447 0.184803
H23   H     H_    0.480865 0.109606 0.746246 0.124693
H24   H     H_    0.583004 0.054154 0.950909 0.166087
H25   H     H_    0.449163 0.856147 0.072582 0.191605
Br3   Br    Br    0.164830 0.683983 0.176901 -0.569476

loop_
_geom_bond_atom_site_label_1
_geom_bond_atom_site_label_2
_geom_bond_distance
_ccdc_geom_bond_type
N1    Br2   1.864486 S    
O4    Zn2   2.049961 S    
C24   H18   1.082822 S    
C5    C6    1.532254 S    
C24   C25   1.391420 A    
C28   C29   1.385799 A    
H4    C11   1.116074 S    
Zn1   N2    2.056635 S    
C1    C13   1.432665 S    
C10   C12   1.551634 S    
C32   H25   1.069160 S    
Zn2   N1    2.056635 S    
Zn2   O8    2.039530 S    
C5    H1    1.116071 S    
C30   C31   1.392264 A    
C15   C20   1.418707 A    
C12   H8    1.113213 S    
C21   C22   1.395376 A    
C5    C27   1.535733 S    
C3    C14   1.431897 S    
C8    C12   1.535908 S    
C30   H23   1.077804 S    
C4    C10   1.474058 S    
Zn1   O7    2.049960 S    
C7    H9    1.106620 S    
C13   C14   1.331979 D    
C10   C11   1.568711 S    
C16   C17   1.397515 A    
C19   H14   1.082739 S    
C28   H21   1.051750 S    
C11   C15   1.549693 S    
O3    Zn1   2.039531 S    
O4    C2    1.316600 A    
C6    C10   1.596848 S    
C5    C9    1.570202 S    
C18   C19   1.391040 A    
H3    C7    1.110769 S    
C15   C16   1.404821 A    
O8    C4    1.308323 A    
C6    H2    1.114777 S    
O2    C1    1.309422 A    
C25   H19   1.080219 S    
C7    C9    1.543708 S    
C7    C11   1.560460 S    
C27   C28   1.390215 A    
O7    C4    1.305804 A    
C8    H5    1.088839 S    
O3    C2    1.306668 A    
C14   Br1   1.904038 S    
C23   H17   1.076516 S    
C2    C9    1.495570 S    
C17   H12   1.082575 S    
C22   C23   1.399143 A    
C16   H11   1.070623 S    
C20   H15   1.070767 S    
N2    C21   1.420907 S    
C18   H13   1.078644 S    
C6    Br3   1.940872 S    
Zn2   O6    2.036825 S    
C31   C32   1.386978 A    
C19   C20   1.396864 A    
C17   C18   1.393945 A    
Zn1   O5    2.024323 S    
O5    C3    1.309373 A    
C25   C26   1.404136 A    
C12   H7    1.101537 S    
N1    N2    1.317543 D    
C29   H22   1.074592 S    
O1    Zn1   2.036827 S    
C31   H24   1.064536 S    
C26   H20   1.063788 S    
C27   C32   1.400593 A    
O6    C3    1.297162 A    
C8    C9    1.545995 S    
O2    Zn2   2.024323 S    
C21   C26   1.389444 A    
C13   H10   1.072860 S    
C23   C24   1.394413 A    
C29   C30   1.379307 A    
O1    C1    1.300689 A    
C8    H6    1.095919 S    
C22   H16   1.065888 S    
