data_mof_unit_37825.cif
_audit_creation_date              2012-10-26T19:58:19-0400
_audit_creation_method            fapswitch 2.2
_symmetry_space_group_name_H-M    P1
_symmetry_Int_Tables_number       1
_space_group_crystal_system       triclinic
_cell_length_a                    7.421617
_cell_length_b                    8.716541
_cell_length_c                    13.405965
_cell_angle_alpha                 94.001559
_cell_angle_beta                  77.437822
_cell_angle_gamma                 102.952662
_cell_volume                      824.741766455

loop_
_atom_site_label
_atom_site_type_symbol
_atom_type_description
_atom_site_fract_x
_atom_site_fract_y
_atom_site_fract_z
_atom_type_partial_charge
Br1   Br    Br    0.756135 0.069524 0.596951 -0.492574
C1    C     C_R   0.542148 0.799508 0.508176 0.558277
C2    C     C_R   0.337339 0.495129 0.806636 -0.003651
C3    C     C_2   0.559572 0.965320 0.525041 0.105167
C4    C     C_R   0.399566 0.498083 0.694472 0.536142
C5    C     C_2   0.434527 0.033013 0.496233 -0.124899
C6    C     C_R   0.454330 0.200031 0.499605 0.573932
C7    C     C_R   0.601620 0.511108 0.305886 0.536685
C8    C     C_R   0.879061 0.676733 0.053393 -0.128231
C9    C     C_R   0.662323 0.536807 0.195791 -0.005418
C10   C     C_R   0.152663 0.415948 0.848450 -0.125904
C11   C     C_R   0.098516 0.385331 0.952086 -0.133048
C12   C     C_R   0.417561 0.506992 0.975535 0.033940
C13   C     C_R   0.229246 0.427023 0.014854 -0.122530
C14   C     C_R   0.465988 0.553401 0.872053 0.027780
C15   C     C_R   0.558894 0.544057 0.035624 0.028751
C16   C     C_R   0.738990 0.638602 0.994745 0.045490
C17   C     C_R   0.775824 0.697613 0.896837 -0.134948
C18   C     C_R   0.640675 0.657923 0.837027 -0.111961
C19   C     C_R   0.527108 0.489811 0.135295 -0.130929
C20   C     C_R   0.840564 0.626803 0.153800 -0.140801
Cu1   Cu    Cu3+1 0.321300 0.483160 0.488710 0.985142
Cu2   Cu    Cu3+1 0.678700 0.516840 0.511290 1.006919
H1    H     H_    0.946625 0.664303 0.199737 0.134355
H2    H     H_    0.955169 0.324833 0.983662 0.134530
H3    H     H_    0.673925 0.713784 0.763873 0.159837
H4    H     H_    0.319033 0.963981 0.463599 0.114788
H5    H     H_    0.011049 0.617523 0.579203 0.240880
H6    H     H_    0.988846 0.382374 0.420887 0.249024
H7    H     H_    0.909880 0.775262 0.866260 0.119706
H8    H     H_    0.016756 0.748727 0.022402 0.120919
H9    H     H_    0.396071 0.412860 0.169075 0.117231
H10   H     H_    0.051102 0.373174 0.800406 0.160879
H11   H     H_    0.176638 0.398226 0.094209 0.105181
N1    N     N_2   0.947230 0.542220 0.528320 -0.242339
N2    N     N_2   0.052770 0.457780 0.471680 -0.236699
O1    O     O_R   0.383920 0.714220 0.492660 -0.532291
O2    O     O_R   0.685730 0.742660 0.511730 -0.471161
O3    O     O_R   0.275440 0.478800 0.636790 -0.501765
O4    O     O_R   0.577250 0.507240 0.655860 -0.494758
O5    O     O_R   0.314270 0.257340 0.488270 -0.480898
O6    O     O_R   0.616080 0.285780 0.507340 -0.455514
O7    O     O_R   0.422750 0.492760 0.344140 -0.509734
O8    O     O_R   0.724560 0.521200 0.363210 -0.515504

loop_
_geom_bond_atom_site_label_1
_geom_bond_atom_site_label_2
_ccdc_geom_bond_type
C13   H11   S    
C1    C3    S    
C10   C11   A    
C6    O6    A    
C5    C6    S    
C17   H7    S    
Cu2   O2    S    
Cu1   N2    S    
C1    O2    A    
N1    N2    D    
H6    N2    S    
C7    O7    A    
C11   H2    S    
C15   C19   A    
Br1   C3    S    
C6    O5    A    
C16   C17   A    
C12   C13   A    
C14   C18   A    
C1    O1    A    
C8    C20   A    
Cu2   O6    S    
Cu1   O3    S    
C7    C9    S    
C11   C13   A    
Cu2   N1    S    
C12   C14   A    
C9    C20   A    
C20   H1    S    
Cu1   O5    S    
C2    C10   A    
C8    H8    S    
Cu2   O4    S    
C7    O8    A    
C10   H10   S    
C2    C14   A    
C3    C5    D    
C17   C18   A    
C19   H9    S    
C12   C15   A    
C8    C16   A    
C18   H3    S    
C4    O3    A    
Cu1   Cu2   S    
C4    O4    A    
Cu1   O1    S    
Cu1   O7    S    
Cu2   O8    S    
C5    H4    S    
H5    N1    S    
C9    C19   A    
C15   C16   A    
C2    C4    S    
