data_mof_unit_42608.cif
_audit_creation_date              2012-12-10T17:35:36-0500
_audit_creation_method            fapswitch 2.2
_symmetry_space_group_name_H-M    P1
_symmetry_Int_Tables_number       1
_space_group_crystal_system       triclinic
_cell_length_a                    10.738467
_cell_length_b                    12.431224
_cell_length_c                    13.279272
_cell_angle_alpha                 117.412749
_cell_angle_beta                  75.467175
_cell_angle_gamma                 101.411872
_cell_volume                      1516.27382587

loop_
_atom_site_label
_atom_site_type_symbol
_atom_type_description
_atom_site_fract_x
_atom_site_fract_y
_atom_site_fract_z
_atom_type_partial_charge
C1    C     C_R   0.516774 0.854590 0.286294 0.769740
C2    C     C_3   0.122119 0.992962 0.494211 0.155695
C3    C     C_3   0.071136 0.114994 0.591567 -0.528081
C4    C     C_3   0.035880 0.887729 0.522764 0.046714
C5    C     C_R   0.331898 0.279086 0.027572 0.156104
C6    C     C_R   0.463351 0.225992 0.836670 -0.085149
C7    C     C_R   0.637643 0.805692 0.088598 -0.210106
C8    C     C_R   0.686713 0.720138 0.978024 0.150321
C9    C     C_R   0.637326 0.597820 0.942980 -0.246150
C10   C     C_R   0.535513 0.559302 0.014418 0.070981
C11   C     C_R   0.482310 0.648934 0.122629 0.088221
C12   C     C_R   0.739552 0.999863 0.499974 0.761171
C13   C     C_R   0.483580 0.435164 0.981786 0.061905
C14   C     C_R   0.380915 0.403024 0.058301 0.126985
C15   C     C_R   0.324853 0.495871 0.160190 -0.252828
C16   C     C_R   0.371785 0.616027 0.189081 -0.192488
C17   C     C_R   0.526303 0.342701 0.873016 -0.256678
C18   C     C_R   0.371986 0.192327 0.915073 -0.247328
C19   C     C_R   0.539949 0.770369 0.162599 -0.138745
C20   C     C_R   0.710185 0.349501 0.328947 -0.305340
C21   C     C_R   0.306235 0.750009 0.624941 0.074612
C22   C     C_R   0.240160 0.638434 0.614250 -0.269633
C23   C     C_R   0.483346 0.144653 0.713453 0.801318
C24   C     C_R   0.303328 0.533195 0.547870 -0.185446
C25   C     C_R   0.437333 0.539888 0.505166 -0.002001
C26   C     C_R   0.491490 0.651007 0.498488 0.287406
C27   C     C_R   0.516260 0.439376 0.458505 -0.050071
C28   C     C_R   0.632284 0.444426 0.381616 0.109615
C29   C     C_R   0.672443 0.545909 0.358544 -0.269774
C30   C     C_R   0.605361 0.648391 0.418191 -0.192036
C31   C     C_R   0.493717 0.341375 0.493007 0.188866
C32   C     C_R   0.679500 0.249618 0.354431 0.370383
C33   C     C_R   0.260612 0.997496 0.497326 0.761551
C34   C     C_3   0.957189 0.966764 0.375307 -0.403610
C35   C     C_3   0.103393 0.986467 0.377959 0.051441
C36   C     C_3   0.931571 0.122470 0.585274 -0.394724
C37   C     C_3   0.892153 0.899918 0.535978 -0.370031
C38   C     C_3   0.877339 0.997741 0.498917 0.101616
Cu1   Cu    Cu3+1 0.529690 0.098270 0.475420 0.903310
Cu2   Cu    Cu3+1 0.470310 0.901730 0.524580 0.908870
H1    H     H_    0.936175 0.025438 0.340071 0.147534
H2    H     H_    0.051675 0.902038 0.607947 0.145815
H3    H     H_    0.870063 0.149458 0.672628 0.163390
H4    H     H_    0.073713 0.122141 0.677759 0.168819
H5    H     H_    0.327486 0.099453 0.886852 0.149080
H6    H     H_    0.241559 0.477837 0.217598 0.148036
H7    H     H_    0.603340 0.359388 0.810926 0.141556
H8    H     H_    0.679237 0.899086 0.120313 0.144788
H9    H     H_    0.681802 0.535425 0.858978 0.117889
H10   H     H_    0.928901 0.870822 0.316845 0.169883
H11   H     H_    0.319266 0.683790 0.264181 0.162645
H12   H     H_    0.759998 0.548288 0.297102 0.145999
H13   H     H_    0.796936 0.353128 0.266966 0.146228
H14   H     H_    0.255062 0.830827 0.670972 0.125338
H15   H     H_    0.243601 0.448169 0.521287 0.131957
H16   H     H_    0.138277 0.632711 0.650819 0.139404
H17   H     H_    0.642919 0.721477 0.394893 0.197562
H18   H     H_    0.139100 0.077479 0.378918 0.161650
H19   H     H_    0.931152 0.193883 0.556950 0.182387
H20   H     H_    0.132917 0.194599 0.583612 0.171555
H21   H     H_    0.843932 0.925901 0.627597 0.152799
H22   H     H_    0.841690 0.810966 0.484229 0.184135
N1    N     N_R   0.574690 0.246280 0.438200 -0.193397
N2    N     N_R   0.426100 0.754320 0.561190 -0.208988
O1    O     O_R   0.537340 0.972510 0.318130 -0.584815
O2    O     O_R   0.487200 0.806530 0.359650 -0.586183
O3    O     O_R   0.707380 0.082980 0.479220 -0.582321
O4    O     O_R   0.657240 0.917000 0.520740 -0.607029
O5    O     O_R   0.512800 0.193470 0.640350 -0.593857
O6    O     O_R   0.462660 0.027490 0.681870 -0.579383
O7    O     O_R   0.342760 0.083000 0.479260 -0.611021
O8    O     O_R   0.292620 0.917020 0.520780 -0.595781
C39   C     C_3   0.232804 0.236720 0.109489 -0.420155
C40   C     C_3   0.288132 0.248340 0.210799 -0.357081
C41   C     C_3   0.389815 0.159895 0.171624 -0.761931
H23   H     H_    0.348940 0.064762 0.124615 0.241896
H24   H     H_    0.475404 0.181898 0.114722 0.256844
H25   H     H_    0.421534 0.167312 0.248173 0.242429
H26   H     H_    0.331207 0.342571 0.257740 0.226815
H27   H     H_    0.207633 0.228179 0.272834 0.192512
H28   H     H_    0.147053 0.288915 0.142877 0.153207
H29   H     H_    0.194990 0.140108 0.063115 0.191526
C42   C     C_3   0.795485 0.752418 0.895261 -0.406595
C43   C     C_3   0.852230 0.886347 0.941494 -0.345726
C44   C     C_3   0.960400 0.907955 0.851520 -0.892917
H30   H     H_    0.040248 0.851519 0.828780 0.247966
H31   H     H_    0.922531 0.884456 0.772827 0.249999
H32   H     H_    0.999051 0.005319 0.886365 0.237364
H33   H     H_    0.775474 0.946079 0.963847 0.219520
H34   H     H_    0.892306 0.911459 0.019772 0.213994
H35   H     H_    0.874860 0.694671 0.871023 0.191834
H36   H     H_    0.758604 0.728332 0.815619 0.195939
C45   C     C_3   0.770428 0.151679 0.286861 -0.844889
H37   H     H_    0.739884 0.067613 0.296668 0.270921
H38   H     H_    0.781478 0.125605 0.193240 0.187409
H39   H     H_    0.866810 0.187517 0.311841 0.197886
C46   C     C_3   0.390676 0.352220 0.599525 -0.333200
C47   C     C_3   0.423210 0.461112 0.710836 -0.352100
C48   C     C_3   0.312380 0.475891 0.812818 -0.837582
H40   H     H_    0.224011 0.494172 0.796433 0.248913
H41   H     H_    0.291288 0.392242 0.826968 0.253429
H42   H     H_    0.338990 0.553881 0.892132 0.253667
H43   H     H_    0.512081 0.447112 0.729323 0.221975
H44   H     H_    0.443127 0.547617 0.702232 0.228030
H45   H     H_    0.294013 0.351964 0.587469 0.140015
H46   H     H_    0.370100 0.272954 0.615614 0.250532
C49   C     C_3   0.181381 0.896863 0.265990 -0.913424
H47   H     H_    0.286449 0.920478 0.265885 0.241089
H48   H     H_    0.156912 0.801289 0.252067 0.244058
H49   H     H_    0.161974 0.903840 0.190970 0.234943
C50   C     C_3   0.064332 0.755012 0.439316 -0.885505
H50   H     H_    0.167430 0.741479 0.418693 0.259584
H51   H     H_    0.013546 0.694753 0.481085 0.223640
H52   H     H_    0.026939 0.722227 0.358520 0.230891

loop_
_geom_bond_atom_site_label_1
_geom_bond_atom_site_label_2
_ccdc_geom_bond_type
C2    C35   S    
C45   H37   S    
C8    C42   S    
Cu1   O1    S    
C39   C40   S    
C23   O5    A    
C50   H50   S    
C16   H11   S    
C36   H19   S    
C37   H22   S    
C7    C8    A    
C44   H30   S    
C24   H15   S    
C42   H36   S    
C12   O4    A    
C11   C19   A    
C37   C38   S    
Cu2   O6    S    
C35   H18   S    
C28   C29   A    
C21   H14   S    
C47   H43   S    
C30   H17   S    
C34   C35   S    
C26   N2    A    
C21   N2    A    
C33   O8    A    
C42   C43   S    
C8    C9    A    
C1    O1    A    
C49   H47   S    
C9    C10   A    
C46   H45   S    
C3    H20   S    
C32   C45   S    
C45   H38   S    
Cu2   O2    S    
C21   C22   A    
C5    C39   S    
C49   H48   S    
C23   O6    A    
C34   H1    S    
C43   H34   S    
C39   H28   S    
C46   C47   S    
C44   H31   S    
C6    C18   A    
C12   O3    A    
C3    H4    S    
C34   H10   S    
C1    C19   S    
C40   C41   S    
C27   C31   A    
C31   N1    A    
C9    H9    S    
C24   C25   A    
Cu1   Cu2   S    
C22   H16   S    
C5    C18   A    
C20   C28   A    
C25   C26   A    
C2    C4    S    
C41   H23   S    
C29   C30   A    
C11   C16   A    
C48   H40   S    
C1    O2    A    
Cu1   O5    S    
C50   H51   S    
C43   C44   S    
C41   H24   S    
C5    C14   A    
C46   H46   S    
C2    C33   S    
C48   H41   S    
C4    C50   S    
C26   C30   A    
C45   H39   S    
C7    C19   A    
C40   H26   S    
C49   H49   S    
C22   C24   A    
C43   H33   S    
C18   H5    S    
C39   H29   S    
C42   H35   S    
C20   C32   A    
C44   H32   S    
C6    C17   A    
Cu2   O8    S    
C34   C38   S    
Cu1   O3    S    
C17   H7    S    
C32   N1    A    
C20   H13   S    
C10   C13   A    
C37   H21   S    
C25   C27   A    
Cu1   N1    S    
Cu2   N2    S    
C13   C17   A    
C7    H8    S    
C36   C38   S    
C2    C3    S    
C4    H2    S    
C3    C36   S    
C47   H44   S    
C6    C23   S    
C50   H52   S    
C31   C46   S    
C12   C38   S    
C41   H25   S    
C35   C49   S    
C10   C11   A    
C33   O7    A    
C48   H42   S    
C4    C37   S    
C47   C48   S    
Cu2   O4    S    
C27   C28   A    
Cu1   O7    S    
C14   C15   A    
C36   H3    S    
C40   H27   S    
C15   H6    S    
C13   C14   A    
C15   C16   A    
C29   H12   S    
