data_mof_unit_44283.cif
_audit_creation_date              2012-12-10T19:25:50-0500
_audit_creation_method            fapswitch 2.2
_symmetry_space_group_name_H-M    P1
_symmetry_Int_Tables_number       1
_space_group_crystal_system       triclinic
_cell_length_a                    9.755131
_cell_length_b                    10.510281
_cell_length_c                    16.711269
_cell_angle_alpha                 90.027367
_cell_angle_beta                  83.333881
_cell_angle_gamma                 90.829404
_cell_volume                      1701.62950947

loop_
_atom_site_label
_atom_site_type_symbol
_atom_type_description
_atom_site_fract_x
_atom_site_fract_y
_atom_site_fract_z
_atom_type_partial_charge
C1    C     C_R   0.501360 0.742339 0.498970 0.883021
C2    C     C_3   0.628428 0.965198 0.480684 0.313934
C3    C     C_3   0.944515 0.593926 0.541767 -0.073030
C4    C     C_3   0.055486 0.406063 0.458236 -0.076228
C5    C     C_3   0.056379 0.604208 0.469376 -0.066909
C6    C     C_3   0.943618 0.395783 0.530622 -0.068971
C7    C     C_3   0.033966 0.489678 0.572444 -0.072044
C8    C     C_3   0.966036 0.510302 0.427556 -0.072536
C9    C     C_R   0.478495 0.497496 0.652899 0.844483
C10   C     C_R   0.521426 0.497383 0.347103 0.847559
C11   C     C_R   0.459434 0.470024 0.737823 -0.008282
C12   C     C_R   0.498636 0.257696 0.501018 0.877217
C13   C     C_R   0.539641 0.470104 0.262184 -0.004748
C14   C     C_R   0.526890 0.543814 0.790792 -0.219126
C15   C     C_R   0.473162 0.543077 0.209299 -0.215302
C16   C     C_R   0.515158 0.510325 0.871453 -0.170520
C17   C     C_R   0.483935 0.509745 0.128665 -0.171695
C18   C     C_R   0.441750 0.399410 0.898466 0.164603
C19   C     C_R   0.555323 0.399712 0.101591 0.165296
C20   C     C_R   0.371642 0.327249 0.845555 -0.183887
C21   C     C_R   0.624442 0.328364 0.154416 -0.183691
C22   C     C_R   0.379424 0.363362 0.765217 -0.213735
C23   C     C_3   0.420035 0.955855 0.444510 -0.261354
C24   C     C_R   0.617699 0.364389 0.234719 -0.217413
C25   C     C_2   0.438080 0.361934 0.983148 0.083291
C26   C     C_2   0.558184 0.362449 0.016906 0.083392
C27   C     C_3   0.801928 0.425476 0.979597 -0.787274
C28   C     C_3   0.195459 0.422346 0.020293 -0.787877
C29   C     C_3   0.133039 0.978573 0.567950 -0.825323
C30   C     C_3   0.866809 0.022045 0.432113 -0.822397
C31   C     C_3   0.579906 0.044290 0.555454 -0.266008
C32   C     C_3   0.547924 0.045355 0.425825 -0.227748
C33   C     C_3   0.452017 0.954801 0.574137 -0.232264
C34   C     C_3   0.496514 0.123023 0.501037 -0.070166
C35   C     C_3   0.503454 0.877088 0.498927 -0.071888
C36   C     C_3   0.371530 0.034963 0.519277 0.314024
H1    H     H_    0.587806 0.626803 0.769757 0.132476
H2    H     H_    0.681294 0.244484 0.133755 0.150030
H3    H     H_    0.435097 0.568678 0.087413 0.136478
H4    H     H_    0.564846 0.569806 0.912773 0.136247
H5    H     H_    0.586956 0.086373 0.366154 0.134726
H6    H     H_    0.412927 0.913889 0.633822 0.137980
H7    H     H_    0.353680 0.916251 0.400595 0.143793
H8    H     H_    0.646203 0.083951 0.599383 0.147067
H9    H     H_    0.108742 0.691812 0.443397 0.116525
H10   H     H_    0.891250 0.308187 0.556609 0.118424
H11   H     H_    0.684413 0.307965 0.911362 0.234473
H12   H     H_    0.413767 0.625348 0.230373 0.133835
H13   H     H_    0.894384 0.396716 0.938871 0.234902
H14   H     H_    0.828831 0.422232 0.042239 0.252375
H15   H     H_    0.775549 0.524245 0.964432 0.233863
H16   H     H_    0.310675 0.306118 0.088696 0.234222
H17   H     H_    0.102386 0.392570 0.060979 0.235060
H18   H     H_    0.168631 0.418789 0.957624 0.252184
H19   H     H_    0.223639 0.521420 0.035404 0.233869
H20   H     H_    0.197454 0.133200 0.495513 0.229501
H21   H     H_    0.029761 0.020731 0.583795 0.236355
H22   H     H_    0.163733 0.932451 0.622769 0.250637
H23   H     H_    0.892880 0.672823 0.577088 0.111274
H24   H     H_    0.126057 0.905903 0.520241 0.237936
H25   H     H_    0.802654 0.867131 0.504377 0.228301
H26   H     H_    0.970172 0.980092 0.416204 0.236668
H27   H     H_    0.873664 0.094572 0.479919 0.236711
H28   H     H_    0.836016 0.068327 0.377365 0.248372
H29   H     H_    0.107118 0.327170 0.422911 0.114625
H30   H     H_    0.067450 0.480884 0.633441 0.125042
H31   H     H_    0.932559 0.518963 0.366552 0.126455
H32   H     H_    0.668751 0.307245 0.276060 0.136647
H33   H     H_    0.327639 0.305590 0.723791 0.150450
H34   H     H_    0.313278 0.242656 0.866171 0.151366
N1    N     N_3   0.136700 0.499970 0.500060 -0.072531
N2    N     N_3   0.863300 0.500030 0.499940 -0.072540
N3    N     N_2   0.687970 0.339217 0.969606 -0.309975
N4    N     N_2   0.307797 0.337340 0.030425 -0.309982
N5    N     N_2   0.231336 0.077557 0.539811 -0.295752
N6    N     N_2   0.768697 0.922829 0.460128 -0.291867
O1    O     O_R   0.383390 0.686040 0.500000 -0.617699
O2    O     O_R   0.616610 0.313960 0.500000 -0.619477
O3    O     O_R   0.616650 0.686050 0.499970 -0.624986
O4    O     O_R   0.383350 0.313950 0.500030 -0.626942
O5    O     O_R   0.369590 0.500020 0.615820 -0.617266
O6    O     O_R   0.630410 0.499980 0.384180 -0.615843
O7    O     O_R   0.602840 0.500020 0.615790 -0.611568
O8    O     O_R   0.397160 0.499980 0.384210 -0.612726
Zn1   Zn    Zn3+2 0.344250 0.499990 0.500020 0.936481
Zn2   Zn    Zn3+2 0.655750 0.500010 0.499980 0.937401

loop_
_geom_bond_atom_site_label_1
_geom_bond_atom_site_label_2
_ccdc_geom_bond_type
C2    C35   S    
C16   H4    S    
C30   H28   S    
C1    O1    A    
C4    C8    S    
C28   N4    S    
C33   C36   S    
C6    N2    S    
C33   H6    S    
C19   C21   A    
C3    C7    S    
C7    N1    S    
C4    H29   S    
C11   C14   A    
C26   N3    S    
C23   H7    S    
C2    C32   S    
C25   N4    S    
C17   H3    S    
C19   C26   S    
C17   C19   A    
N1    Zn1   S    
C21   H2    S    
C12   O2    A    
C32   H5    S    
C31   C33   S    
C22   H33   S    
C18   C20   A    
C27   H14   S    
O2    Zn2   S    
O1    Zn1   S    
H20   N5    S    
C30   H27   S    
C20   H34   S    
C18   C25   S    
C15   H12   S    
C28   H19   S    
C27   H15   S    
H25   N6    S    
C8    N2    S    
C31   H8    S    
O8    Zn1   S    
H11   N3    S    
C4    C6    S    
C28   H18   S    
C25   C26   D    
O6    Zn2   S    
C5    H9    S    
C10   O6    A    
C13   C24   A    
C2    C31   S    
C32   C34   S    
O4    Zn1   S    
C36   N5    S    
C30   N6    S    
C29   H24   S    
C31   C34   S    
C9    C11   S    
C9    O7    A    
C29   H21   S    
C23   C35   S    
C13   C15   A    
C1    O3    A    
C14   C16   A    
C12   C34   S    
C2    N6    S    
C1    C35   S    
C15   C17   A    
C6    H10   S    
C20   C22   A    
C3    C5    S    
C10   C13   S    
C5    C8    S    
N2    Zn2   S    
C28   H17   S    
C6    C7    S    
C29   N5    S    
C11   C22   A    
H16   N4    S    
C23   C32   S    
C30   H26   S    
C3    N2    S    
C5    N1    S    
C14   H1    S    
C12   O4    A    
C10   O8    A    
C33   C35   S    
C34   C36   S    
C4    N1    S    
C24   H32   S    
O7    Zn2   S    
C29   H22   S    
C8    H31   S    
C16   C18   A    
C23   C36   S    
C21   C24   A    
C27   N3    S    
O3    Zn2   S    
O5    Zn1   S    
C27   H13   S    
C9    O5    A    
C7    H30   S    
C3    H23   S    
