data_mof_unit_49525.cif
_audit_creation_date              2012-12-10T17:33:01-0500
_audit_creation_method            fapswitch 2.2
_symmetry_space_group_name_H-M    P1
_symmetry_Int_Tables_number       1
_space_group_crystal_system       triclinic
_cell_length_a                    12.356451
_cell_length_b                    13.251013
_cell_length_c                    14.26175
_cell_angle_alpha                 93.035909
_cell_angle_beta                  107.837085
_cell_angle_gamma                 117.03234
_cell_volume                      1928.5292665

loop_
_atom_site_label
_atom_site_type_symbol
_atom_type_description
_atom_site_fract_x
_atom_site_fract_y
_atom_site_fract_z
_atom_type_partial_charge
C1    C     C_R   0.650880 0.714170 0.508694 0.800967
C2    C     C_R   0.841478 0.486387 0.917312 0.086567
C3    C     C_R   0.794284 0.505086 0.991695 0.164850
C4    C     C_R   0.945955 0.461918 0.943936 0.079050
C5    C     C_R   0.017980 0.479321 0.047611 0.048324
C6    C     C_R   0.965437 0.492211 0.119488 -0.246111
C7    C     C_R   0.853485 0.502529 0.091302 -0.227588
C8    C     C_R   0.977118 0.415746 0.870813 -0.220961
C9    C     C_R   0.076908 0.388430 0.899918 -0.218758
C10   C     C_R   0.155262 0.415467 0.001776 0.169219
C11   C     C_R   0.134072 0.472020 0.075741 0.000530
C12   C     C_R   0.617770 0.515460 0.686629 0.789734
C13   C     C_R   0.254024 0.385968 0.030937 -0.200444
C14   C     C_R   0.328697 0.409280 0.132913 -0.238557
C15   C     C_R   0.230877 0.520039 0.174462 -0.075487
C16   C     C_R   0.142608 0.966309 0.364943 -0.177782
C17   C     C_R   0.249227 0.162130 0.463543 -0.047324
C18   C     C_R   0.730581 0.921607 0.573322 -0.165752
C19   C     C_R   0.820604 0.038528 0.591258 -0.149410
C20   C     C_R   0.921043 0.072803 0.554575 -0.170057
C21   C     C_R   0.930836 0.989933 0.495510 0.075273
C22   C     C_R   0.829148 0.872952 0.466785 0.029730
C23   C     C_R   0.345332 0.285258 0.485162 0.794874
C24   C     C_R   0.037508 0.019552 0.463472 0.031975
C25   C     C_R   0.035073 0.935314 0.395108 0.143154
C26   C     C_R   0.924330 0.823269 0.356936 0.146712
C27   C     C_R   0.822142 0.794733 0.391305 -0.185929
C28   C     C_R   0.148098 0.130730 0.499252 -0.237264
C29   C     C_R   0.248135 0.079106 0.398209 -0.198931
C30   C     C_R   0.735521 0.837556 0.513359 -0.073029
C31   C     C_R   0.254283 0.685833 0.660880 -0.295850
C32   C     C_R   0.654706 0.343029 0.363096 0.067522
C33   C     C_R   0.732521 0.309686 0.332059 -0.252102
C34   C     C_R   0.383445 0.485875 0.313536 0.849048
C35   C     C_R   0.867944 0.369027 0.383108 -0.197829
C36   C     C_R   0.927944 0.463346 0.466451 -0.006947
C37   C     C_R   0.843900 0.494991 0.495114 0.292921
C38   C     C_R   0.067574 0.527408 0.522261 -0.042467
C39   C     C_R   0.119321 0.621661 0.604589 0.176895
C40   C     C_R   0.036357 0.651619 0.630644 -0.281321
C41   C     C_R   0.902234 0.589928 0.577344 -0.195452
C42   C     C_R   0.159295 0.502536 0.500839 0.024420
C43   C     C_R   0.338588 0.656893 0.636096 0.076066
C44   C     C_R   0.678946 0.515702 0.792646 -0.051333
C45   C     C_R   0.316066 0.474383 0.205720 -0.053632
C46   C     C_R   0.688106 0.525608 0.965250 -0.203687
C47   C     C_R   0.630184 0.530235 0.866034 -0.193967
C48   C     C_R   0.784933 0.495624 0.819200 -0.258931
Cu1   Cu    Cu3+1 0.416420 0.526630 0.522910 0.958674
Cu2   Cu    Cu3+1 0.583580 0.473370 0.477090 0.920245
H1    H     H_    0.814501 0.510374 0.147910 0.153086
H2    H     H_    0.268917 0.339717 0.975506 0.136677
H3    H     H_    0.326256 0.102379 0.369786 0.151603
H4    H     H_    0.144817 0.905031 0.313387 0.153140
H5    H     H_    0.158323 0.195840 0.554966 0.145850
H6    H     H_    0.658474 0.896831 0.608271 0.150212
H7    H     H_    0.987228 0.165073 0.571887 0.125390
H8    H     H_    0.815002 0.102900 0.636578 0.140694
H9    H     H_    0.735026 0.710947 0.356114 0.179509
H10   H     H_    0.442711 0.706270 0.679459 0.116954
H11   H     H_    0.075615 0.723869 0.693508 0.153844
H12   H     H_    0.294404 0.758061 0.723927 0.138149
H13   H     H_    0.128416 0.432289 0.439679 0.119398
H14   H     H_    0.549826 0.296347 0.322760 0.120926
H15   H     H_    0.923237 0.339499 0.355732 0.137181
H16   H     H_    0.687602 0.237447 0.268047 0.149549
H17   H     H_    0.847949 0.620138 0.603703 0.205368
H18   H     H_    0.396616 0.376593 0.154688 0.156541
H19   H     H_    0.093590 0.347023 0.842386 0.138366
H20   H     H_    0.650267 0.538432 0.021365 0.138007
H21   H     H_    0.547598 0.545126 0.846862 0.155129
H22   H     H_    0.825058 0.490785 0.762884 0.157068
H23   H     H_    0.008383 0.490654 0.197581 0.147031
H24   H     H_    0.919762 0.391822 0.790892 0.145052
N1    N     N_R   0.290690 0.566960 0.557640 -0.174526
N2    N     N_R   0.709100 0.433710 0.442970 -0.204099
O1    O     O_R   0.545970 0.684450 0.528810 -0.556444
O2    O     O_R   0.687130 0.639470 0.490120 -0.611634
O3    O     O_R   0.519670 0.535100 0.660030 -0.588902
O4    O     O_R   0.660830 0.490120 0.621340 -0.600821
O5    O     O_R   0.312870 0.360530 0.509880 -0.592305
O6    O     O_R   0.454030 0.315550 0.471190 -0.584984
O7    O     O_R   0.339170 0.509880 0.378660 -0.546519
O8    O     O_R   0.480330 0.464900 0.339970 -0.609527
C49   C     C_3   0.912551 0.732182 0.280226 -0.891750
H25   H     H_    0.817846 0.650195 0.258568 0.227091
H26   H     H_    0.918451 0.764188 0.210570 0.235234
H27   H     H_    0.991994 0.711365 0.312341 0.238862
C50   C     C_2   0.260491 0.632586 0.233445 0.342238
H28   H     H_    0.194854 0.667398 0.210084 0.079603
O9    O     O_2   0.364231 0.693533 0.304025 -0.536087

loop_
_geom_bond_atom_site_label_1
_geom_bond_atom_site_label_2
_ccdc_geom_bond_type
C23   O6    A    
C1    O1    A    
C19   C20   A    
C4    C8    A    
Cu2   O8    S    
C41   H17   S    
C49   H25   S    
C42   N1    A    
C17   C23   S    
C31   C43   A    
C36   C37   A    
C9    H19   S    
C5    C11   A    
C3    C7    A    
C38   C39   A    
C35   H15   S    
C12   O3    A    
C17   C29   A    
C18   C19   A    
Cu1   O5    S    
C11   C15   A    
C35   C36   A    
Cu1   O1    S    
C8    C9    A    
Cu1   N1    S    
C18   C30   A    
C50   O9    D    
C23   O5    A    
C9    C10   A    
C44   C47   A    
C18   H6    S    
C21   C22   A    
C1    O2    A    
C31   H12   S    
C34   O8    A    
C48   H22   S    
Cu2   O2    S    
C28   H5    S    
C33   H16   S    
C14   C45   A    
C49   H26   S    
C19   H8    S    
C43   N1    A    
C24   C25   A    
C32   H14   S    
C39   C40   A    
C2    C48   A    
C25   C26   A    
C40   H11   S    
Cu1   O3    S    
C2    C4    A    
Cu2   N2    S    
C15   C50   S    
C13   H2    S    
C8    H24   S    
C26   C27   A    
C34   C45   S    
C47   H21   S    
C43   H10   S    
C40   C41   A    
C37   N2    A    
C22   C27   A    
C34   O7    A    
C15   C45   A    
Cu2   O6    S    
C6    H23   S    
C49   H27   S    
C16   C25   A    
C20   H7    S    
C46   C47   A    
C22   C30   A    
C17   C28   A    
C24   C28   A    
C4    C5    A    
C10   C13   A    
Cu2   O4    S    
C32   N2    A    
C38   C42   A    
C6    C7    A    
C3    C46   A    
C32   C33   A    
Cu1   O7    S    
C36   C38   A    
C2    C3    A    
C16   C29   A    
C7    H1    S    
C12   C44   S    
C27   H9    S    
C5    C6    A    
C29   H3    S    
C26   C49   S    
C12   O4    A    
C1    C30   S    
C33   C35   A    
C31   C39   A    
C37   C41   A    
C16   H4    S    
C46   H20   S    
C10   C11   A    
C20   C21   A    
Cu1   Cu2   S    
C21   C24   A    
C14   H18   S    
C50   H28   S    
C13   C14   A    
C42   H13   S    
C44   C48   A    
