data_mof_unit_46707.cif
_audit_creation_date              2012-12-10T17:48:55-0500
_audit_creation_method            fapswitch 2.2
_symmetry_space_group_name_H-M    P1
_symmetry_Int_Tables_number       1
_space_group_crystal_system       triclinic
_cell_length_a                    10.722661
_cell_length_b                    14.72715
_cell_length_c                    14.728223
_cell_angle_alpha                 65.049503
_cell_angle_beta                  103.533691
_cell_angle_gamma                 102.808254
_cell_volume                      2030.13350769

loop_
_atom_site_label
_atom_site_type_symbol
_atom_type_description
_atom_site_fract_x
_atom_site_fract_y
_atom_site_fract_z
_atom_type_partial_charge
C1    C     C_R   0.479249 0.119639 0.312307 0.779616
C2    C     C_R   0.508201 0.360891 0.080082 0.088910
C3    C     C_R   0.497048 0.321933 0.004955 0.158760
C4    C     C_R   0.259982 0.001773 0.497959 0.777644
C5    C     C_R   0.532987 0.467350 0.053886 0.062205
C6    C     C_R   0.533248 0.533618 0.950301 0.062264
C7    C     C_R   0.523943 0.491566 0.877970 -0.188366
C8    C     C_R   0.507105 0.387773 0.905245 -0.223073
C9    C     C_R   0.560386 0.509695 0.127964 -0.219584
C10   C     C_R   0.579855 0.613504 0.100917 -0.224323
C11   C     C_R   0.570250 0.679017 0.999349 0.160010
C12   C     C_3   0.878601 0.002925 0.497769 0.053278
C13   C     C_R   0.544975 0.639865 0.922863 0.093096
C14   C     C_R   0.584767 0.783653 0.973411 -0.196192
C15   C     C_R   0.571054 0.850173 0.871995 -0.193038
C16   C     C_R   0.523076 0.880330 0.687711 0.800176
C17   C     C_R   0.527966 0.708383 0.821256 -0.233935
C18   C     C_R   0.713084 0.280916 0.672171 -0.297791
C19   C     C_R   0.678676 0.200136 0.641882 0.122775
C20   C     C_R   0.522319 0.287063 0.507289 0.006483
C21   C     C_R   0.554532 0.373183 0.533188 -0.014843
C22   C     C_R   0.651805 0.367593 0.617974 0.122162
C23   C     C_3   0.931565 0.912856 0.590519 -0.361306
C24   C     C_R   0.494508 0.463475 0.478805 0.070830
C25   C     C_R   0.532713 0.546884 0.510936 -0.006849
C26   C     C_R   0.641355 0.540627 0.590126 -0.033029
C27   C     C_R   0.692687 0.450015 0.645597 -0.244070
C28   C     C_R   0.739974 0.000894 0.498656 0.777176
C29   C     C_R   0.400217 0.474031 0.391445 -0.218862
C30   C     C_R   0.341670 0.560842 0.338534 -0.190083
C31   C     C_R   0.369724 0.639209 0.372553 0.164329
C32   C     C_R   0.461882 0.632722 0.460732 -0.012020
C33   C     C_R   0.304639 0.724030 0.319073 -0.315622
C34   C     C_3   0.961398 0.102923 0.502559 0.488939
C35   C     C_R   0.330493 0.802459 0.352710 0.069601
C36   C     C_R   0.474615 0.711620 0.495428 0.059820
C37   C     C_3   0.037970 0.995087 0.398985 -0.398275
C38   C     C_3   0.894269 0.995243 0.399248 -0.471914
C39   C     C_3   0.075287 0.913143 0.590383 -0.374723
C40   C     C_3   0.104142 0.103298 0.501062 -0.394012
C41   C     C_3   0.122354 0.003436 0.497020 0.078211
C42   C     C_2   0.721174 0.628781 0.607779 0.781787
C43   C     C_R   0.476906 0.187312 0.205034 -0.053557
C44   C     C_R   0.540990 0.812616 0.795415 -0.058782
C45   C     C_R   0.476627 0.217112 0.030515 -0.193231
C46   C     C_R   0.467904 0.150102 0.130251 -0.199538
C47   C     C_R   0.492640 0.291673 0.178863 -0.249196
Cu1   Cu    Cu3+1 0.465900 0.918260 0.475680 0.944385
Cu2   Cu    Cu3+1 0.534100 0.081740 0.524320 0.951966
F1    F     F_    0.952423 0.113569 0.590042 -0.670383
H1    H     H_    0.048263 0.924114 0.393430 0.201487
H2    H     H_    0.491068 0.317028 0.237157 0.145206
H3    H     H_    0.070643 0.059435 0.331049 0.155938
H4    H     H_    0.533239 0.536786 0.799667 0.165855
H5    H     H_    0.571361 0.464875 0.208290 0.147616
H6    H     H_    0.605583 0.813955 0.031685 0.135927
H7    H     H_    0.773244 0.446096 0.706988 0.176838
H8    H     H_    0.530293 0.707731 0.567379 0.132160
H9    H     H_    0.283924 0.869533 0.309414 0.125168
H10   H     H_    0.271194 0.565690 0.271077 0.143032
H11   H     H_    0.788372 0.276119 0.736950 0.145529
H12   H     H_    0.134436 0.918367 0.661443 0.165853
H13   H     H_    0.726108 0.133295 0.683391 0.155224
H14   H     H_    0.447062 0.282843 0.445915 0.118541
H15   H     H_    0.857320 0.060055 0.331761 0.151065
H16   H     H_    0.370651 0.416890 0.360299 0.125604
H17   H     H_    0.235408 0.730280 0.250745 0.141115
H18   H     H_    0.836565 0.924654 0.393170 0.236588
H19   H     H_    0.087489 0.840532 0.589223 0.187873
H20   H     H_    0.875262 0.841267 0.587978 0.208411
H21   H     H_    0.164831 0.112529 0.569973 0.216810
H22   H     H_    0.136365 0.169228 0.433975 0.116635
H23   H     H_    0.920506 0.916382 0.662190 0.191305
H24   H     H_    0.925214 0.168967 0.436200 0.074219
H25   H     H_    0.818821 0.687160 0.710744 0.320905
H26   H     H_    0.501035 0.358872 0.847488 0.151602
H27   H     H_    0.500461 0.682112 0.760480 0.151092
H28   H     H_    0.582049 0.930611 0.853618 0.153198
H29   H     H_    0.600671 0.642632 0.160118 0.153657
H30   H     H_    0.469087 0.187000 0.973499 0.136171
H31   H     H_    0.455773 0.069537 0.148977 0.154323
N1    N     N_R   0.585360 0.204570 0.560800 -0.185166
N2    N     N_R   0.414550 0.795430 0.439160 -0.184133
O1    O     O_R   0.455060 0.022100 0.338110 -0.592809
O2    O     O_R   0.763478 0.623118 0.707138 -0.784529
O3    O     O_R   0.512640 0.160150 0.379180 -0.592731
O4    O     O_R   0.288900 0.930980 0.479450 -0.585881
O5    O     O_R   0.346480 0.069030 0.520520 -0.592205
O6    O     O_R   0.487360 0.839850 0.620820 -0.592609
O7    O     O_R   0.544940 0.977900 0.661890 -0.589981
O8    O     O_R   0.653520 0.930970 0.479480 -0.566790
O9    O     O_R   0.711100 0.069020 0.520550 -0.538046
O10   O     O_2   0.754047 0.704540 0.535883 -0.617893

loop_
_geom_bond_atom_site_label_1
_geom_bond_atom_site_label_2
_ccdc_geom_bond_type
C14   H6    S    
C16   O7    A    
C40   H21   S    
C20   N1    A    
C42   O10   D    
C23   H20   S    
Cu2   O7    S    
C7    C8    A    
C39   C41   S    
C4    O4    A    
C45   C46   A    
C1    O1    A    
C12   C23   S    
C26   C42   S    
C26   C27   A    
C37   C38   S    
C12   C28   S    
C34   C40   S    
C32   C36   A    
C15   C44   A    
C36   H8    S    
C30   C31   A    
C37   H1    S    
C11   C14   A    
C15   H28   S    
C4    C41   S    
C36   N2    A    
C8    H26   S    
C35   H9    S    
C18   C19   A    
C24   C29   A    
H25   O2    S    
C19   H13   S    
Cu1   O8    S    
C30   H10   S    
C31   C33   A    
C9    H5    S    
C28   O8    A    
C19   N1    A    
C9    C10   A    
C16   C44   S    
C37   H3    S    
C25   C32   A    
C16   O6    A    
C21   C22   A    
C37   C41   S    
Cu2   O5    S    
C23   H23   S    
C1    C43   S    
C34   F1    S    
C24   C25   A    
C3    C8    A    
C27   H7    S    
C35   N2    A    
C25   C26   A    
C3    C45   A    
Cu1   O1    S    
Cu2   N1    S    
C20   H14   S    
C5    C9    A    
C29   C30   A    
C46   H31   S    
C31   C32   A    
C38   H15   S    
C17   H27   S    
C39   H19   S    
Cu1   O4    S    
C28   O9    A    
C42   O2    S    
C47   H2    S    
C34   H24   S    
C40   C41   S    
C38   H18   S    
C22   C27   A    
C2    C5    A    
Cu2   O9    S    
C12   C34   S    
C33   H17   S    
C1    O3    A    
C39   H12   S    
Cu1   Cu2   S    
C40   H22   S    
C18   C22   A    
Cu2   O3    S    
C10   H29   S    
C18   H11   S    
C6    C7    A    
C4    O5    A    
C2    C47   A    
Cu1   N2    S    
C13   C17   A    
Cu1   O6    S    
C2    C3    A    
C17   C44   A    
C6    C13   A    
C11   C13   A    
C5    C6    A    
C23   C39   S    
C33   C35   A    
C45   H30   S    
C12   C38   S    
C43   C46   A    
C10   C11   A    
C29   H16   S    
C20   C21   A    
C21   C24   A    
C14   C15   A    
C7    H4    S    
C43   C47   A    
