data_mof_unit_39949.cif
_audit_creation_date              2012-12-10T17:03:00-0500
_audit_creation_method            fapswitch 2.2
_symmetry_space_group_name_H-M    P1
_symmetry_Int_Tables_number       1
_space_group_crystal_system       triclinic
_cell_length_a                    9.816152
_cell_length_b                    10.993423
_cell_length_c                    13.475982
_cell_angle_alpha                 93.828827
_cell_angle_beta                  82.719718
_cell_angle_gamma                 110.861692
_cell_volume                      1347.57656028

loop_
_atom_site_label
_atom_site_type_symbol
_atom_type_description
_atom_site_fract_x
_atom_site_fract_y
_atom_site_fract_z
_atom_type_partial_charge
C1    C     C_R   0.554656 0.745548 0.509896 0.853454
C2    C     C_R   0.455113 0.539686 0.972217 0.100438
C3    C     C_R   0.499122 0.554737 0.867961 0.095617
C4    C     C_R   0.563772 0.563477 0.038746 0.003645
C5    C     C_R   0.709025 0.578243 0.999092 0.120628
C6    C     C_R   0.753862 0.608740 0.899034 -0.177786
C7    C     C_R   0.651609 0.608099 0.836473 -0.137703
C8    C     C_R   0.534409 0.574146 0.143272 0.233357
C9    C     C_R   0.761882 0.540129 0.161739 -0.184955
C10   C     C_R   0.389721 0.512689 0.799697 -0.094623
C11   C     C_2   0.577643 0.883314 0.526961 -0.209807
C12   C     C_R   0.426955 0.499899 0.690459 0.802516
C13   C     C_2   0.464908 0.925044 0.528018 -0.260037
C14   C     C_2   0.412465 0.114865 0.496371 -0.404486
C15   C     C_2   0.481481 0.060881 0.550437 0.391535
C16   C     C_2   0.916499 0.483859 0.495494 0.073257
C17   C     C_2   0.075378 0.509263 0.506688 0.062353
C18   C     C_R   0.442474 0.254343 0.497139 0.927815
C19   C     C_R   0.577864 0.519049 0.310436 0.861781
C20   C     C_R   0.807861 0.566994 0.061030 -0.154209
C21   C     C_R   0.624764 0.543287 0.203722 -0.139610
C22   C     C_R   0.240839 0.471270 0.837462 -0.184321
C23   C     C_R   0.198871 0.460870 0.939738 -0.129837
C24   C     C_R   0.304201 0.490272 0.006083 -0.081625
Cu1   Cu    Cu3+1 0.362000 0.479240 0.482530 1.090351
Cu2   Cu    Cu3+1 0.638000 0.520760 0.517470 1.022643
H1    H     H_    0.359067 0.859492 0.507998 0.175453
H2    H     H_    0.339063 0.055227 0.443725 0.157468
H3    H     H_    0.685156 0.949745 0.542871 0.215077
H4    H     H_    0.127579 0.584835 0.559903 0.072749
H5    H     H_    0.901574 0.626456 0.590088 0.181457
H6    H     H_    0.868461 0.635893 0.869616 0.142541
H7    H     H_    0.918033 0.573904 0.030882 0.155344
H8    H     H_    0.155786 0.440955 0.787618 0.175065
H9    H     H_    0.265965 0.467928 0.083302 0.155780
H10   H     H_    0.083553 0.423777 0.967567 0.159808
N1    N     N_2   0.845330 0.551960 0.543750 -0.315732
N2    N     N_2   0.154690 0.448120 0.456210 0.010857
O1    O     O_R   0.426290 0.668220 0.490680 -0.579584
O2    O     O_R   0.659360 0.703290 0.520190 -0.587423
O3    O     O_R   0.326580 0.473880 0.629020 -0.608214
O4    O     O_R   0.559660 0.508940 0.658530 -0.560182
O5    O     O_R   0.340640 0.296710 0.479810 -0.516477
O6    O     O_R   0.573710 0.331780 0.509320 -0.529695
O7    O     O_R   0.440340 0.491060 0.341470 -0.532776
O8    O     O_R   0.673420 0.526120 0.370980 -0.592087
H11   H     H_    0.835765 0.522519 0.207522 0.206094
H12   H     H_    0.857021 0.407260 0.446223 0.229670
S1    S     S_3+6 0.074382 0.318073 0.376672 0.094103
O9    O     O_2   0.961901 0.209949 0.437010 -0.256599
O10   O     O_2   0.001213 0.359793 0.300541 -0.340717
O11   O     O_3   0.201547 0.262548 0.315479 -0.507403
H13   H     H_    0.146531 0.189185 0.272699 0.366888
S2    S     S_3+6 0.444665 0.685360 0.191674 0.038212
O12   O     O_2   0.530322 0.772765 0.270010 -0.264928
O13   O     O_2   0.440256 0.768331 0.108723 -0.240015
O14   O     O_3   0.271960 0.610140 0.243486 -0.484961
H14   H     H_    0.259768 0.517270 0.244194 0.368917
H15   H     H_    0.695901 0.648770 0.763858 0.169883
S3    S     S_3+6 0.580056 0.141978 0.652380 0.039303
O15   O     O_2   0.734656 0.221182 0.613350 -0.226737
O16   O     O_2   0.508413 0.230339 0.708244 -0.292214
O17   O     O_3   0.585022 0.032173 0.731697 -0.504804
H16   H     H_    0.480976 0.984189 0.755695 0.345491

loop_
_geom_bond_atom_site_label_1
_geom_bond_atom_site_label_2
_ccdc_geom_bond_type
C6    H6    S    
C23   C24   A    
C19   O7    A    
Cu2   N1    S    
C6    C7    A    
C18   O6    A    
Cu1   N2    S    
C15   S3    S    
C14   C18   S    
C9    C20   A    
C2    C4    A    
C1    C11   S    
C16   N1    D    
C4    C8    A    
S1    O11   S    
C9    C21   A    
Cu1   O5    S    
C2    C3    A    
C19   O8    A    
Cu2   O6    S    
C3    C10   A    
C18   O5    A    
Cu1   O1    S    
C17   H4    S    
C11   C13   D    
Cu2   O2    S    
O14   H14   S    
C12   O3    A    
C10   C12   S    
S3    O17   S    
C20   H7    S    
C7    H15   S    
C19   C21   S    
C9    H11   S    
C3    C7    A    
C17   N2    D    
C13   C15   S    
Cu2   O4    S    
C2    C24   A    
C5    C6    A    
C22   H8    S    
S1    O9    D    
S2    O13   D    
C24   H9    S    
C16   C17   S    
Cu2   O8    S    
Cu1   O3    S    
O17   H16   S    
C5    C20   A    
Cu1   O7    S    
C4    C5    A    
C16   H12   S    
C11   H3    S    
S3    O16   D    
C23   H10   S    
C8    S2    S    
N2    S1    S    
C1    O1    A    
S2    O12   D    
C13   H1    S    
C12   O4    A    
C1    O2    A    
C14   H2    S    
Cu1   Cu2   S    
C14   C15   D    
C22   C23   A    
C10   C22   A    
H5    N1    S    
O11   H13   S    
S3    O15   D    
S1    O10   D    
S2    O14   S    
C8    C21   A    
