data_mof_unit_15352.cif
_audit_creation_date              2012-12-10T19:51:24-0500
_audit_creation_method            fapswitch 2.2
_symmetry_space_group_name_H-M    P1
_symmetry_Int_Tables_number       1
_space_group_crystal_system       triclinic
_cell_length_a                    18.233243
_cell_length_b                    18.214355
_cell_length_c                    21.510548
_cell_angle_alpha                 90.151299
_cell_angle_beta                  90.339342
_cell_angle_gamma                 89.572884
_cell_volume                      7143.45055484

loop_
_atom_site_label
_atom_site_type_symbol
_atom_type_description
_atom_site_fract_x
_atom_site_fract_y
_atom_site_fract_z
_atom_type_partial_charge
C1    C     C_R   0.499712 0.141288 0.500248 0.903586
C2    C     C_R   0.141272 0.499898 0.499635 0.919185
C3    C     C_R   0.657622 0.255869 0.693577 -0.126302
C4    C     C_R   0.612412 0.225788 0.647671 -0.147546
C5    C     C_R   0.575230 0.160293 0.658830 -0.141678
C6    C     C_R   0.576025 0.868401 0.283416 0.096668
C7    C     C_R   0.605871 0.827634 0.233796 -0.129012
C8    C     C_R   0.643639 0.761863 0.244685 -0.137717
C9    C     C_R   0.651097 0.735257 0.305149 -0.108383
C10   C     C_R   0.620760 0.774435 0.354718 -0.144260
C11   C     C_R   0.582981 0.840339 0.343851 -0.157966
C12   C     C_R   0.566892 0.131759 0.283309 0.075446
C13   C     C_R   0.498982 0.999739 0.878364 0.854750
C14   C     C_R   0.595637 0.171560 0.233131 -0.115557
C15   C     C_R   0.629164 0.239386 0.243001 -0.144117
C16   C     C_R   0.633823 0.268533 0.302949 -0.123733
C17   C     C_R   0.605399 0.229630 0.353065 -0.137155
C18   C     C_R   0.571741 0.161783 0.343253 -0.170424
C19   C     C_R   0.561843 0.862284 0.716125 0.093598
C20   C     C_R   0.581001 0.816443 0.766394 -0.108066
C21   C     C_R   0.615072 0.748503 0.756250 -0.143231
C22   C     C_R   0.629929 0.725115 0.695775 -0.110076
C23   C     C_R   0.610467 0.769599 0.645490 -0.134663
C24   C     C_R   0.498400 0.999958 0.121609 0.853552
C25   C     C_R   0.576360 0.837608 0.655618 -0.170725
C26   C     C_R   0.083981 0.623579 0.215716 0.080363
C27   C     C_R   0.129400 0.654672 0.261763 -0.145864
C28   C     C_R   0.166477 0.720131 0.250464 -0.139100
C29   C     C_R   0.157622 0.755869 0.193575 -0.126303
C30   C     C_R   0.112409 0.725789 0.147670 -0.147545
C31   C     C_R   0.075228 0.660294 0.158830 -0.141673
C32   C     C_R   0.076025 0.368401 0.783416 0.096667
C33   C     C_R   0.105870 0.327634 0.733796 -0.129012
C34   C     C_R   0.143638 0.261862 0.744685 -0.137717
C35   C     C_R   0.998982 0.499739 0.378365 0.854751
C36   C     C_R   0.151097 0.235257 0.805149 -0.108383
C37   C     C_R   0.120760 0.274435 0.854718 -0.144260
C38   C     C_R   0.082981 0.340339 0.843851 -0.157965
C39   C     C_R   0.066892 0.631759 0.783309 0.075446
C40   C     C_R   0.095638 0.671560 0.733131 -0.115558
C41   C     C_R   0.129165 0.739385 0.743001 -0.144117
C42   C     C_R   0.133824 0.768532 0.802949 -0.123734
C43   C     C_R   0.105400 0.729629 0.853065 -0.137154
C44   C     C_R   0.071742 0.661783 0.843253 -0.170424
C45   C     C_R   0.061843 0.362284 0.216125 0.093597
C46   C     C_R   0.998400 0.499958 0.621610 0.853552
C47   C     C_R   0.081000 0.316442 0.266394 -0.108065
C48   C     C_R   0.115071 0.248503 0.256250 -0.143232
C49   C     C_R   0.129928 0.225115 0.195775 -0.110075
C50   C     C_R   0.110466 0.269599 0.145490 -0.134662
C51   C     C_R   0.076359 0.337607 0.155618 -0.170725
C52   C     C_R   0.427182 0.128665 0.798965 0.135696
C53   C     C_R   0.444364 0.201778 0.784341 -0.172184
C54   C     C_R   0.403603 0.259939 0.809471 -0.141370
C55   C     C_R   0.345243 0.245988 0.849339 -0.113785
C56   C     C_R   0.327057 0.173760 0.863698 -0.139274
C57   C     C_R   0.358617 0.000231 0.000066 0.900382
C58   C     C_R   0.367032 0.115536 0.838056 -0.077210
C59   C     C_R   0.419194 0.873363 0.201802 0.125492
C60   C     C_R   0.427417 0.801378 0.224591 -0.179307
C61   C     C_R   0.386743 0.743861 0.198970 -0.137233
C62   C     C_R   0.336671 0.757545 0.151002 -0.130010
C63   C     C_R   0.325707 0.829129 0.129740 -0.145292
C64   C     C_R   0.365730 0.886797 0.155704 -0.063521
C65   C     C_R   0.412562 0.123185 0.207842 0.100898
C66   C     C_R   0.408178 0.187539 0.244126 -0.158299
C67   C     C_R   0.363524 0.246357 0.225595 -0.138644
C68   C     C_R   0.858617 0.500231 0.500066 0.900382
C69   C     C_R   0.321227 0.241132 0.171518 -0.124858
C70   C     C_R   0.322533 0.176533 0.136494 -0.154933
C71   C     C_R   0.367126 0.117634 0.154924 -0.101469
C72   C     C_R   0.407970 0.880286 0.790075 0.091736
C73   C     C_R   0.400201 0.817564 0.752254 -0.157017
C74   C     C_R   0.355997 0.759351 0.770948 -0.139593
C75   C     C_R   0.317511 0.763791 0.826730 -0.133964
C76   C     C_R   0.321452 0.827350 0.862964 -0.150665
C77   C     C_R   0.365587 0.885647 0.844356 -0.103853
C78   C     C_R   0.927183 0.628666 0.298965 0.135697
C79   C     C_R   0.640842 0.500142 0.500152 0.919254
C80   C     C_R   0.944367 0.701778 0.284343 -0.172183
C81   C     C_R   0.903607 0.759940 0.309474 -0.141371
C82   C     C_R   0.845245 0.745988 0.349340 -0.113783
C83   C     C_R   0.827058 0.673760 0.363698 -0.139272
C84   C     C_R   0.867032 0.615536 0.338055 -0.077213
C85   C     C_R   0.919194 0.373364 0.701802 0.125491
C86   C     C_R   0.927416 0.301378 0.724591 -0.179307
C87   C     C_R   0.886742 0.243861 0.698971 -0.137232
C88   C     C_R   0.836670 0.257545 0.651002 -0.130010
C89   C     C_R   0.825706 0.329130 0.629740 -0.145293
C90   C     C_R   0.140842 0.000142 0.000152 0.919253
C91   C     C_R   0.865729 0.386797 0.655704 -0.063522
C92   C     C_R   0.912563 0.623185 0.707841 0.100898
C93   C     C_R   0.908179 0.687540 0.744126 -0.158300
C94   C     C_R   0.863525 0.746358 0.725595 -0.138644
C95   C     C_R   0.821228 0.741133 0.671517 -0.124858
C96   C     C_R   0.822534 0.676533 0.636494 -0.154933
C97   C     C_R   0.867126 0.617635 0.654924 -0.101468
C98   C     C_R   0.907970 0.380287 0.290076 0.091736
C99   C     C_R   0.900201 0.317565 0.252254 -0.157018
C100  C     C_R   0.855996 0.259352 0.270949 -0.139593
C101  C     C_R   0.499750 0.359180 0.499936 0.921030
C102  C     C_R   0.817510 0.263792 0.326730 -0.133964
C103  C     C_R   0.821451 0.327352 0.362964 -0.150665
C104  C     C_R   0.865586 0.385648 0.344356 -0.103852
C105  C     C_R   0.353312 0.027509 0.702296 0.145921
C106  C     C_R   0.292054 0.981958 0.709732 -0.167292
C107  C     C_R   0.223314 0.003490 0.686734 -0.142519
C108  C     C_R   0.214885 0.070463 0.655992 -0.134153
C109  C     C_R   0.275316 0.115924 0.647844 -0.146850
C110  C     C_R   0.344073 0.094621 0.670727 -0.072771
C111  C     C_R   0.350267 0.982446 0.296677 0.146349
C112  C     C_R   0.500184 0.858709 0.499923 0.898724
C113  C     C_R   0.500202 0.640823 0.500061 0.927119
C114  C     C_R   0.292199 0.033062 0.289393 -0.166562
C115  C     C_R   0.222419 0.017259 0.312183 -0.145453
C116  C     C_R   0.209731 0.951054 0.342696 -0.123914
C117  C     C_R   0.266990 0.900713 0.350944 -0.149324
C118  C     C_R   0.336797 0.916350 0.328327 -0.075889
C119  C     C_R   0.853312 0.527509 0.202296 0.145920
C120  C     C_R   0.792054 0.481959 0.209731 -0.167290
C121  C     C_R   0.723314 0.503491 0.186733 -0.142519
C122  C     C_R   0.714885 0.570465 0.155992 -0.134154
C123  C     C_R   0.775317 0.615925 0.147844 -0.146850
C124  C     C_R   0.999750 0.859180 0.999936 0.921029
C125  C     C_R   0.844074 0.594622 0.170727 -0.072771
C126  C     C_R   0.850267 0.482446 0.796677 0.146350
C127  C     C_R   0.792199 0.533063 0.789393 -0.166562
C128  C     C_R   0.722419 0.517261 0.812184 -0.145454
C129  C     C_R   0.709731 0.451056 0.842696 -0.123914
C130  C     C_R   0.766989 0.400714 0.850943 -0.149325
C131  C     C_R   0.836796 0.416351 0.828327 -0.075889
C132  C     C_R   0.000202 0.140823 0.000061 0.927119
C133  C     C_R   0.359171 0.500368 0.499797 0.927741
C134  C     C_R   0.859171 0.000368 0.999797 0.927741
C135  C     C_1   0.717780 0.000042 0.999270 -0.208522
C136  C     C_1   0.217780 0.500042 0.499270 -0.208522
C137  C     C_1   0.282643 0.500483 0.499284 -0.214721
C138  C     C_1   0.782643 0.000483 0.999284 -0.214721
C139  C     C_1   0.282161 0.000619 0.000321 -0.239235
C140  C     C_R   0.999712 0.641288 0.000248 0.903587
C141  C     C_1   0.782161 0.500619 0.500321 -0.239235
C142  C     C_R   0.499926 0.000675 0.621739 0.849710
C143  C     C_R   0.499458 0.998886 0.378258 0.846037
C144  C     C_R   0.999926 0.500675 0.121739 0.849712
C145  C     C_R   0.999458 0.498886 0.878258 0.846036
C146  C     C_1   0.717342 0.500502 0.500411 -0.213912
C147  C     C_1   0.217342 0.000502 0.000411 -0.213911
C148  C     C_3   0.538343 0.057236 0.731219 -0.036205
C149  C     C_3   0.532763 0.938043 0.269437 -0.033228
C150  C     C_3   0.528384 0.059751 0.270369 -0.030350
C151  C     C_R   0.000184 0.358709 0.999923 0.898724
C152  C     C_3   0.525970 0.936351 0.729436 -0.025347
C153  C     C_3   0.038343 0.557236 0.231219 -0.036204
C154  C     C_3   0.032762 0.438043 0.769437 -0.033228
C155  C     C_3   0.028384 0.559751 0.770369 -0.030350
C156  C     C_3   0.025969 0.436350 0.229436 -0.025348
C157  C     C_3   0.566535 0.992221 0.771328 -0.030367
C158  C     C_3   0.565126 0.000221 0.229338 -0.029797
C159  C     C_3   0.066535 0.492221 0.271328 -0.030367
C160  C     C_3   0.065126 0.500221 0.729338 -0.029797
C161  C     C_3   0.497058 0.998608 0.811461 -0.136594
C162  C     C_1   0.499199 0.282666 0.499865 -0.218413
C163  C     C_3   0.495527 0.999213 0.188470 -0.139335
C164  C     C_3   0.997058 0.498607 0.311461 -0.136593
C165  C     C_3   0.995527 0.499213 0.688470 -0.139335
C166  C     C_3   0.468597 0.063274 0.771689 -0.047883
C167  C     C_3   0.462869 0.937258 0.228269 -0.053351
C168  C     C_3   0.457761 0.057606 0.229716 -0.032988
C169  C     C_3   0.455714 0.943592 0.769534 -0.038894
C170  C     C_3   0.968597 0.563274 0.271689 -0.047884
C171  C     C_3   0.962869 0.437258 0.728269 -0.053352
C172  C     C_3   0.957762 0.557606 0.729716 -0.032988
C173  C     C_1   0.500449 0.717341 0.500129 -0.205592
C174  C     C_3   0.955714 0.443592 0.269534 -0.038894
C175  C     C_3   0.428558 0.008164 0.728601 -0.051084
C176  C     C_3   0.426498 0.995609 0.270762 -0.048829
C177  C     C_3   0.928558 0.508165 0.228601 -0.051084
C178  C     C_3   0.926498 0.495609 0.770762 -0.048829
C179  C     C_3   0.499035 0.001259 0.688873 -0.133826
C180  C     C_3   0.497397 0.997510 0.311132 -0.132642
C181  C     C_3   0.999035 0.501259 0.188873 -0.133825
C182  C     C_3   0.997398 0.497510 0.811132 -0.132642
C183  C     C_1   0.499135 0.217802 0.500017 -0.227399
C184  C     C_1   0.999199 0.782666 0.999865 -0.218414
C185  C     C_1   0.500513 0.782202 0.500036 -0.219407
C186  C     C_1   0.999135 0.717802 0.000017 -0.227400
C187  C     C_1   0.000513 0.282202 0.000036 -0.219407
C188  C     C_R   0.647178 0.978814 0.785494 0.099345
C189  C     C_R   0.698732 0.987321 0.737606 -0.108831
C190  C     C_R   0.772578 0.969586 0.747413 -0.168926
C191  C     C_R   0.795547 0.941240 0.804545 -0.096886
C192  C     C_R   0.744593 0.930427 0.851728 -0.104220
C193  C     C_R   0.670906 0.949585 0.842498 -0.191437
C194  C     C_R   0.646717 0.998647 0.215958 0.108140
C195  C     C_1   0.000449 0.217341 0.000129 -0.205592
C196  C     C_R   0.696536 0.015512 0.264148 -0.105912
C197  C     C_R   0.771956 0.006375 0.255724 -0.172625
C198  C     C_R   0.798460 0.977408 0.200077 -0.087143
C199  C     C_R   0.749500 0.958116 0.152802 -0.106491
C200  C     C_R   0.674150 0.969888 0.160121 -0.191667
C201  C     C_R   0.147178 0.478812 0.285494 0.099344
C202  C     C_R   0.198732 0.487319 0.237606 -0.108832
C203  C     C_R   0.272577 0.469583 0.247412 -0.168926
C204  C     C_R   0.295547 0.441239 0.304544 -0.096887
C205  C     C_R   0.244593 0.430426 0.351728 -0.104219
C206  C     C_R   0.641272 0.999898 0.999635 0.919186
C207  C     C_R   0.170906 0.449584 0.342498 -0.191437
C208  C     C_R   0.146717 0.498646 0.715958 0.108140
C209  C     C_R   0.196536 0.515511 0.764148 -0.105912
C210  C     C_R   0.271956 0.506374 0.755724 -0.172626
C211  C     C_R   0.298460 0.477407 0.700077 -0.087142
C212  C     C_R   0.249500 0.458116 0.652802 -0.106492
C213  C     C_R   0.174150 0.469887 0.660121 -0.191667
C214  C     C_R   0.583980 0.123579 0.715717 0.080362
C215  C     C_R   0.629397 0.154673 0.761765 -0.145860
C216  C     C_R   0.666474 0.220133 0.750467 -0.139099
H1    H     H_    0.681604 0.006722 0.692225 0.147804
H2    H     H_    0.637501 0.952311 0.123699 0.142416
H3    H     H_    0.865623 0.435036 0.372096 0.122361
H4    H     H_    0.296078 0.929952 0.733007 0.145625
H5    H     H_    0.176443 0.968159 0.692868 0.127575
H6    H     H_    0.161568 0.087069 0.638411 0.123873
H7    H     H_    0.268890 0.167794 0.623913 0.125726
H8    H     H_    0.390320 0.130675 0.664014 0.111416
H9    H     H_    0.299463 0.084871 0.266648 0.147766
H10   H     H_    0.178077 0.056503 0.306136 0.124595
H11   H     H_    0.155629 0.938921 0.360176 0.124690
H12   H     H_    0.257336 0.849531 0.374893 0.126567
H13   H     H_    0.181604 0.506720 0.192225 0.147804
H14   H     H_    0.380617 0.876805 0.335616 0.114896
H15   H     H_    0.796079 0.429952 0.233006 0.145625
H16   H     H_    0.676443 0.468159 0.192867 0.127575
H17   H     H_    0.661568 0.587070 0.138411 0.123873
H18   H     H_    0.768891 0.667795 0.123913 0.125726
H19   H     H_    0.890320 0.630676 0.164014 0.111415
H20   H     H_    0.799464 0.584872 0.766649 0.147766
H21   H     H_    0.678077 0.556505 0.806136 0.124595
H22   H     H_    0.655629 0.438923 0.860176 0.124690
H23   H     H_    0.757335 0.349532 0.874892 0.126566
H24   H     H_    0.311762 0.476702 0.210355 0.124846
H25   H     H_    0.880616 0.376805 0.835615 0.114896
H26   H     H_    0.352559 0.426542 0.311931 0.126242
H27   H     H_    0.262063 0.405982 0.395166 0.138594
H28   H     H_    0.132545 0.438384 0.378900 0.152669
H29   H     H_    0.177074 0.534129 0.808961 0.147251
H30   H     H_    0.309688 0.519925 0.792981 0.124724
H31   H     H_    0.356746 0.468449 0.694073 0.127984
H32   H     H_    0.269915 0.432163 0.611103 0.144224
H33   H     H_    0.811762 0.976705 0.710355 0.124846
H34   H     H_    0.137501 0.452311 0.623698 0.142416
H35   H     H_    0.634705 0.129291 0.807030 0.148131
H36   H     H_    0.701037 0.243847 0.786221 0.138437
H37   H     H_    0.684994 0.307395 0.685397 0.146169
H38   H     H_    0.604990 0.254129 0.603933 0.146513
H39   H     H_    0.537298 0.140442 0.624246 0.127859
H40   H     H_    0.598031 0.845652 0.186356 0.141474
H41   H     H_    0.666129 0.730986 0.206114 0.132442
H42   H     H_    0.679311 0.683720 0.313401 0.138005
H43   H     H_    0.625586 0.753175 0.401517 0.138464
H44   H     H_    0.852559 0.926544 0.811931 0.126242
H45   H     H_    0.557466 0.867469 0.382381 0.150910
H46   H     H_    0.591606 0.150193 0.186211 0.148249
H47   H     H_    0.651170 0.269527 0.204123 0.132409
H48   H     H_    0.659405 0.321261 0.310563 0.136701
H49   H     H_    0.608898 0.252426 0.399470 0.144272
H50   H     H_    0.547811 0.134291 0.382062 0.153326
H51   H     H_    0.569310 0.833333 0.813619 0.142690
H52   H     H_    0.629844 0.713958 0.795297 0.124718
H53   H     H_    0.656357 0.672522 0.687877 0.132464
H54   H     H_    0.621769 0.751325 0.598574 0.137209
H55   H     H_    0.762063 0.905982 0.895166 0.138593
H56   H     H_    0.561105 0.869917 0.616162 0.161802
H57   H     H_    0.134709 0.629289 0.307028 0.148131
H58   H     H_    0.201042 0.743844 0.286218 0.138438
H59   H     H_    0.184994 0.807394 0.185395 0.146169
H60   H     H_    0.104986 0.754130 0.103933 0.146515
H61   H     H_    0.037294 0.640444 0.124247 0.127855
H62   H     H_    0.098030 0.345652 0.686356 0.141474
H63   H     H_    0.166128 0.230985 0.706114 0.132442
H64   H     H_    0.179311 0.183720 0.813401 0.138006
H65   H     H_    0.125585 0.253175 0.901517 0.138464
H66   H     H_    0.632545 0.938384 0.878900 0.152669
H67   H     H_    0.057466 0.367469 0.882381 0.150910
H68   H     H_    0.091607 0.650192 0.686211 0.148249
H69   H     H_    0.151171 0.769527 0.704123 0.132410
H70   H     H_    0.159407 0.821260 0.810563 0.136702
H71   H     H_    0.108899 0.752426 0.899470 0.144272
H72   H     H_    0.047811 0.634291 0.882062 0.153326
H73   H     H_    0.069309 0.333333 0.313619 0.142690
H74   H     H_    0.129842 0.213957 0.295297 0.124718
H75   H     H_    0.156355 0.172521 0.187877 0.132463
H76   H     H_    0.121768 0.251325 0.098574 0.137209
H77   H     H_    0.677074 0.034130 0.308961 0.147251
H78   H     H_    0.061105 0.369917 0.116162 0.161801
H79   H     H_    0.487770 0.215025 0.752850 0.153803
H80   H     H_    0.417121 0.315974 0.797750 0.129746
H81   H     H_    0.313778 0.291094 0.868707 0.134442
H82   H     H_    0.281589 0.162788 0.894359 0.125401
H83   H     H_    0.351078 0.060016 0.848873 0.095449
H84   H     H_    0.463379 0.789093 0.263131 0.146947
H85   H     H_    0.393703 0.688655 0.216669 0.135111
H86   H     H_    0.305315 0.712921 0.131172 0.138748
H87   H     H_    0.285715 0.840081 0.093471 0.131895
H88   H     H_    0.809688 0.019926 0.292981 0.124724
H89   H     H_    0.355344 0.941879 0.139301 0.095742
H90   H     H_    0.437132 0.191944 0.287828 0.149170
H91   H     H_    0.360891 0.295622 0.253742 0.136620
H92   H     H_    0.286345 0.286566 0.157468 0.143906
H93   H     H_    0.288217 0.171667 0.095468 0.135732
H94   H     H_    0.364747 0.067427 0.128382 0.118128
H95   H     H_    0.427202 0.813743 0.707778 0.147943
H96   H     H_    0.351126 0.710990 0.741901 0.142835
H97   H     H_    0.283427 0.718608 0.841195 0.143409
H98   H     H_    0.289808 0.831745 0.905255 0.137144
H99   H     H_    0.856746 0.968450 0.194073 0.127985
H100  H     H_    0.365623 0.935035 0.872096 0.122362
H101  H     H_    0.987774 0.715025 0.252854 0.153804
H102  H     H_    0.917126 0.815975 0.297754 0.129745
H103  H     H_    0.813781 0.791095 0.368709 0.134440
H104  H     H_    0.781589 0.662789 0.394359 0.125400
H105  H     H_    0.851077 0.560016 0.348871 0.095449
H106  H     H_    0.963379 0.289094 0.763131 0.146947
H107  H     H_    0.893702 0.188656 0.716669 0.135111
H108  H     H_    0.805314 0.212922 0.631173 0.138748
H109  H     H_    0.785714 0.340082 0.593471 0.131895
H110  H     H_    0.769915 0.932163 0.111104 0.144224
H111  H     H_    0.855344 0.441880 0.639301 0.095741
H112  H     H_    0.937133 0.691945 0.787828 0.149170
H113  H     H_    0.860892 0.795623 0.753741 0.136620
H114  H     H_    0.786346 0.786566 0.657467 0.143906
H115  H     H_    0.788218 0.671667 0.595468 0.135732
H116  H     H_    0.864747 0.567427 0.628382 0.118128
H117  H     H_    0.927202 0.313743 0.207779 0.147943
H118  H     H_    0.851125 0.210990 0.241902 0.142835
H119  H     H_    0.783425 0.218609 0.341196 0.143409
H120  H     H_    0.789807 0.331747 0.405255 0.137144
O1    O     O_R   0.439410 0.107330 0.500000 -0.614036
O2    O     O_R   0.560610 0.892690 0.500000 -0.642371
O3    O     O_R   0.060610 0.607310 0.000000 -0.630475
O4    O     O_R   0.060610 0.392690 0.000000 -0.642372
O5    O     O_R   0.439410 0.000000 0.593020 -0.613193
O6    O     O_R   0.439410 0.000000 0.406980 -0.613800
O7    O     O_R   0.939410 0.500000 0.093020 -0.613193
O8    O     O_R   0.939410 0.500000 0.906980 -0.613801
O9    O     O_R   0.560610 0.000000 0.593010 -0.636736
O10   O     O_R   0.560610 1.000000 0.406990 -0.637720
O11   O     O_R   0.060610 0.500000 0.093010 -0.636735
O12   O     O_R   0.439410 0.892670 0.500000 -0.611277
O13   O     O_R   0.060610 0.500000 0.906990 -0.637721
O14   O     O_R   0.607280 0.939410 0.000000 -0.643649
O15   O     O_R   0.607280 0.060590 0.000000 -0.611635
O16   O     O_R   0.107280 0.439410 0.500000 -0.643649
O17   O     O_R   0.107280 0.560590 0.500000 -0.611635
O18   O     O_R   0.499930 0.939410 0.906960 -0.638722
O19   O     O_R   0.499930 0.060590 0.093040 -0.622806
O20   O     O_R   0.499930 0.939410 0.093040 -0.627283
O21   O     O_R   0.499930 0.060590 0.906960 -0.611679
O22   O     O_R   0.999930 0.439410 0.406960 -0.638722
O23   O     O_R   0.939410 0.607330 0.000000 -0.614036
O24   O     O_R   0.999930 0.560590 0.593040 -0.622806
O25   O     O_R   0.999930 0.439410 0.593040 -0.627283
O26   O     O_R   0.999930 0.560590 0.406960 -0.611678
O27   O     O_R   0.392580 0.939390 0.000000 -0.622808
O28   O     O_R   0.392580 0.060610 0.000000 -0.621387
O29   O     O_R   0.892580 0.439390 0.500000 -0.622808
O30   O     O_R   0.892580 0.560610 0.500000 -0.621386
O31   O     O_R   0.607360 0.500000 0.552500 -0.624716
O32   O     O_R   0.607360 0.500000 0.447500 -0.624945
O33   O     O_R   0.107360 0.000000 0.052500 -0.624716
O34   O     O_R   0.939410 0.392670 0.000000 -0.611277
O35   O     O_R   0.107360 0.000000 0.947500 -0.624944
O36   O     O_R   0.500010 0.392660 0.552500 -0.626304
O37   O     O_R   0.500010 0.607340 0.447500 -0.620679
O38   O     O_R   0.500010 0.392660 0.447500 -0.624963
O39   O     O_R   0.500010 0.607340 0.552500 -0.618883
O40   O     O_R   0.000010 0.892660 0.052500 -0.626304
O41   O     O_R   0.000010 0.107340 0.947500 -0.620679
O42   O     O_R   0.000010 0.892660 0.947500 -0.624962
O43   O     O_R   0.000010 0.107340 0.052500 -0.618883
O44   O     O_R   0.392660 0.500000 0.552510 -0.628748
O45   O     O_R   0.392660 0.500000 0.447490 -0.621859
O46   O     O_R   0.892660 0.000000 0.052510 -0.628749
O47   O     O_R   0.892660 0.000000 0.947490 -0.621859
O48   O     O_R   0.560610 0.107310 0.500000 -0.630476
Zn1   Zn    Zn3+2 0.419080 0.000000 0.500000 0.968160
Zn2   Zn    Zn3+2 0.500000 0.500000 0.429880 0.930968
Zn3   Zn    Zn3+2 0.000000 0.000000 0.070120 0.927519
Zn4   Zn    Zn3+2 0.000000 0.000000 0.929880 0.930968
Zn5   Zn    Zn3+2 0.919080 0.500000 0.000000 0.968161
Zn6   Zn    Zn3+2 0.580940 0.000000 0.500000 0.919524
Zn7   Zn    Zn3+2 0.080940 0.500000 0.000000 0.919525
Zn8   Zn    Zn3+2 0.499940 0.919080 0.000000 0.933929
Zn9   Zn    Zn3+2 0.499940 0.080920 0.000000 0.958433
Zn10  Zn    Zn3+2 0.999940 0.419080 0.500000 0.933929
Zn11  Zn    Zn3+2 0.999940 0.580920 0.500000 0.958434
Zn12  Zn    Zn3+2 0.500000 0.500000 0.570120 0.927519

loop_
_geom_bond_atom_site_label_1
_geom_bond_atom_site_label_2
_ccdc_geom_bond_type
C194  C196  A    
C105  C110  A    
C133  C137  S    
C126  C127  A    
C157  C161  S    
O40   Zn3   S    
C200  H2    S    
C102  H119  S    
O7    Zn5   S    
C19   C20   A    
C157  C188  S    
C34   H63   S    
C114  C115  A    
C155  C182  S    
C87   H107  S    
C143  O10   A    
C206  O14   A    
C111  C118  A    
C113  O37   A    
C87   C88   A    
O30   Zn11  S    
C159  C201  S    
C106  C107  A    
C60   H84   S    
O18   Zn8   S    
C61   H85   S    
C108  C109  A    
C73   C74   A    
C171  C178  S    
O3    Zn7   S    
C196  H77   S    
C59   C60   A    
C121  H16   S    
C9    H42   S    
C215  H35   S    
C41   H69   S    
C20   H51   S    
O42   Zn4   S    
C189  H1    S    
C134  O47   A    
C68   O29   A    
C45   C47   A    
C202  C203  A    
C191  C192  A    
C12   C150  S    
C57   O28   A    
C131  H25   S    
C6    C11   A    
C18   H50   S    
C101  O36   A    
C4    C5    A    
C128  H21   S    
C75   C76   A    
C3    H37   S    
C37   C38   A    
O38   Zn2   S    
C24   O19   A    
C150  C168  S    
C26   C27   A    
C191  H44   S    
C174  C177  S    
C178  C182  S    
C52   C58   A    
C79   O32   A    
C135  C206  S    
C32   C154  S    
C148  C179  S    
C43   C44   A    
C151  O4    A    
C47   H73   S    
C39   C40   A    
C59   C167  S    
C152  C157  S    
C101  C162  S    
O9    Zn6   S    
O33   Zn3   S    
C113  O39   A    
C72   C73   A    
C148  C214  S    
C6    C7    A    
C130  C131  A    
C112  O12   A    
C162  C183  T    
C95   H114  S    
C66   H90   S    
C30   C31   A    
C92   C172  S    
O34   Zn5   S    
C33   C34   A    
C126  C178  S    
C69   C70   A    
C15   H47   S    
C212  C213  A    
C98   C99   A    
C10   H43   S    
C188  C189  A    
C119  C177  S    
C46   O24   A    
C54   H80   S    
O36   Zn12  S    
C165  C171  S    
C23   H54   S    
C208  C213  A    
C46   C165  S    
C7    H40   S    
C89   H109  S    
C164  C170  S    
C4    H38   S    
C212  H32   S    
C91   H111  S    
C128  C129  A    
C1    C183  S    
C7    C8    A    
C67   H91   S    
C90   O35   A    
C103  H120  S    
C65   C168  S    
C173  C185  T    
C90   C147  S    
C36   C37   A    
O8    Zn5   S    
C124  C184  S    
C85   C86   A    
O10   Zn6   S    
C78   C80   A    
C115  C116  A    
C78   C170  S    
C144  O11   A    
O22   Zn10  S    
C211  H31   S    
O47   Zn4   S    
C14   H46   S    
C102  C103  A    
O25   Zn10  S    
C6    C149  S    
O45   Zn2   S    
C194  C200  A    
C99   C100  A    
C153  C170  S    
O14   Zn8   S    
C107  C108  A    
C192  H55   S    
C89   C91   A    
C149  C158  S    
C70   H93   S    
C109  H7    S    
C27   H57   S    
C161  C169  S    
C66   C67   A    
C94   H113  S    
C133  O44   A    
C94   C95   A    
C80   H101  S    
C92   C97   A    
C209  C210  A    
C79   C146  S    
C33   H62   S    
C205  C207  A    
C130  H23   S    
C111  C176  S    
C68   C141  S    
C112  C185  S    
C208  C209  A    
C78   C84   A    
C39   C155  S    
O2    Zn6   S    
C144  O7    A    
C104  H3    S    
C29   C30   A    
C160  C208  S    
C123  H18   S    
O1    Zn1   S    
C83   C84   A    
C17   C18   A    
C45   C156  S    
C20   C21   A    
O37   Zn2   S    
C75   H97   S    
C158  C163  S    
C202  H13   S    
C22   H53   S    
C188  C193  A    
C210  H30   S    
C3    C4    A    
C37   H65   S    
C120  C121  A    
C199  H110  S    
C129  C130  A    
C90   O33   A    
C172  C178  S    
C13   O18   A    
C168  C176  S    
C100  H118  S    
C144  C181  S    
C40   H68   S    
C22   C23   A    
C140  O3    A    
C136  C137  T    
C112  O2    A    
C204  H26   S    
O6    Zn1   S    
C39   C44   A    
C197  H88   S    
C84   H105  S    
C140  C186  S    
C72   C169  S    
C5    H39   S    
C163  C168  S    
O23   Zn5   S    
C117  C118  A    
O26   Zn11  S    
O46   Zn3   S    
C177  C181  S    
C56   C58   A    
C154  C171  S    
C34   C36   A    
C148  C157  S    
C69   H92   S    
C61   C62   A    
O27   Zn8   S    
C145  O13   A    
C10   C11   A    
C63   C64   A    
C199  C200  A    
C76   H98   S    
C204  C205  A    
C49   C50   A    
C105  C175  S    
C14   C15   A    
C26   C153  S    
C21   C22   A    
C29   H59   S    
C106  H4    S    
C55   C56   A    
C117  H12   S    
C30   H60   S    
C148  C166  S    
C41   C42   A    
C149  C167  S    
C110  H8    S    
C68   O30   A    
C52   C53   A    
C151  C187  S    
C156  C174  S    
C166  C175  S    
C158  C194  S    
C198  H99   S    
C140  O23   A    
C28   C29   A    
C57   O27   A    
C132  O41   A    
O16   Zn10  S    
O28   Zn9   S    
C81   H102  S    
C123  C125  A    
C13   O21   A    
C83   H104  S    
C57   C139  S    
C36   H64   S    
C51   H78   S    
C21   H52   S    
O5    Zn1   S    
C24   O20   A    
C155  C172  S    
C55   H81   S    
C16   C17   A    
O31   Zn12  S    
C132  C195  S    
C164  C174  S    
C70   C71   A    
C79   O31   A    
C187  C195  T    
C2    O16   A    
C58   H83   S    
O35   Zn4   S    
C116  H11   S    
C62   H86   S    
O21   Zn9   S    
C86   C87   A    
C170  C177  S    
C3    C216  A    
C53   C54   A    
C190  H33   S    
C60   C61   A    
C62   C63   A    
C28   H58   S    
C211  C212  A    
C35   O22   A    
C50   C51   A    
C169  C175  S    
C85   C171  S    
C160  C165  S    
C86   H106  S    
C64   H89   S    
C71   H94   S    
C121  C122  A    
C141  C146  T    
C101  O38   A    
C119  C125  A    
C48   C49   A    
C153  C181  S    
C24   C163  S    
C42   C43   A    
O41   Zn4   S    
C50   H76   S    
C127  C128  A    
C46   O25   A    
C209  H29   S    
C93   H112  S    
C134  O46   A    
C150  C180  S    
C77   H100  S    
C150  C158  S    
C132  O43   A    
C119  C120  A    
C142  O9    A    
C82   H103  S    
C105  C106  A    
C206  O15   A    
C35   C164  S    
C32   C33   A    
C152  C179  S    
C109  C110  A    
C152  C169  S    
C99   H117  S    
C143  O6    A    
C5    C214  A    
C92   C93   A    
C184  C186  T    
C111  C114  A    
C149  C180  S    
C189  C190  A    
C73   H95   S    
C74   H96   S    
C122  H17   S    
C96   H115  S    
C82   C83   A    
C103  C104  A    
O19   Zn9   S    
C124  O42   A    
O32   Zn2   S    
C207  H28   S    
O17   Zn11  S    
C135  C138  T    
C203  C204  A    
O4    Zn7   S    
C63   H87   S    
C93   C94   A    
C129  H22   S    
C201  C202  A    
C54   C55   A    
O12   Zn1   S    
C95   C96   A    
C215  C216  A    
C81   C82   A    
C85   C91   A    
C151  O34   A    
C139  C147  T    
C127  H20   S    
C125  H19   S    
O39   Zn12  S    
C98   C174  S    
C45   C51   A    
C133  O45   A    
C15   C16   A    
C196  C197  A    
C116  C117  A    
C8    H41   S    
C17   H49   S    
C52   C166  S    
C8    C9    A    
C124  O40   A    
C198  C199  A    
C32   C38   A    
C145  O8    A    
C88   H108  S    
C161  C166  S    
C88   C89   A    
C165  C172  S    
C23   C25   A    
C26   C31   A    
C197  C198  A    
C31   H61   S    
C120  H15   S    
C114  H9    S    
C43   H71   S    
C201  C207  A    
C44   H72   S    
O15   Zn9   S    
C74   C75   A    
C47   C48   A    
C48   H74   S    
C76   C77   A    
C115  H10   S    
C214  C215  A    
C175  C179  S    
C56   H82   S    
C65   C71   A    
C145  C182  S    
C2    C136  S    
O29   Zn10  S    
C67   C69   A    
C153  C159  S    
C163  C167  S    
C154  C160  S    
C72   C77   A    
O48   Zn6   S    
C108  H6    S    
C142  C179  S    
C1    O48   A    
C176  C180  S    
C216  H36   S    
C96   C97   A    
C100  C102  A    
C19   C152  S    
C213  H34   S    
C42   H70   S    
C143  C180  S    
C203  H24   S    
C38   H67   S    
C40   C41   A    
C12   C14   A    
C65   C66   A    
C49   H75   S    
C190  C191  A    
C1    O1    A    
C113  C173  S    
C9    C10   A    
O43   Zn3   S    
C155  C160  S    
C159  C164  S    
O44   Zn12  S    
C156  C159  S    
C2    O17   A    
C80   C81   A    
O13   Zn7   S    
C134  C138  S    
C156  C181  S    
C13   C161  S    
O24   Zn11  S    
C192  C193  A    
C193  H66   S    
C205  H27   S    
C126  C131  A    
C118  H14   S    
C98   C104  A    
C154  C182  S    
C11   H45   S    
C19   C25   A    
C25   H56   S    
C97   H116  S    
C16   H48   S    
C59   C64   A    
O11   Zn7   S    
C210  C211  A    
C12   C18   A    
C27   C28   A    
C35   O26   A    
C122  C123  A    
C53   H79   S    
O20   Zn8   S    
C142  O5    A    
C167  C176  S    
C107  H5    S    
