data_mof_unit_52153.cif
_audit_creation_date              2012-12-10T19:31:22-0500
_audit_creation_method            fapswitch 2.2
_symmetry_space_group_name_H-M    P1
_symmetry_Int_Tables_number       1
_space_group_crystal_system       triclinic
_cell_length_a                    19.069234
_cell_length_b                    15.7412
_cell_length_c                    14.91226
_cell_angle_alpha                 90.021064
_cell_angle_beta                  89.859338
_cell_angle_gamma                 89.652407
_cell_volume                      4476.15605865

loop_
_atom_site_label
_atom_site_type_symbol
_atom_type_description
_atom_site_fract_x
_atom_site_fract_y
_atom_site_fract_z
_atom_type_partial_charge
C1    C     C_R   0.500206 0.337557 0.499935 0.917704
C2    C     C_R   0.499832 0.662386 0.500112 0.910868
C3    C     C_3   0.561354 0.973880 0.465802 0.012147
C4    C     C_3   0.439429 0.025703 0.537627 0.014173
C5    C     C_3   0.504131 0.024471 0.415740 0.011286
C6    C     C_3   0.496660 0.974975 0.587548 0.007806
C7    C     C_1   0.499160 0.248970 0.499541 -0.213168
C8    C     C_1   0.501166 0.750849 0.500942 -0.221355
C9    C     C_3   0.553804 0.033626 0.547800 -0.258446
C10   C     C_3   0.446958 0.965993 0.455561 -0.253758
C11   C     C_3   0.496160 0.083319 0.497440 0.098462
C12   C     C_3   0.504613 0.916284 0.505798 0.097910
C13   C     C_1   0.497668 0.173886 0.498412 -0.102858
C14   C     C_1   0.502910 0.825835 0.503310 -0.112723
C15   C     C_3   0.510949 0.421450 0.969833 -0.151994
C16   C     C_3   0.488318 0.579942 0.030282 -0.156334
C17   C     C_3   0.561910 0.472544 0.029911 -0.156204
C18   C     C_3   0.437341 0.528865 0.970159 -0.162250
C19   C     C_3   0.448716 0.449600 0.030374 -0.155232
C20   C     C_3   0.550537 0.551796 0.969710 -0.146697
C21   C     C_3   0.499681 0.500670 0.089302 0.125559
C22   C     C_3   0.499593 0.500695 0.910762 0.127939
C23   C     C_R   0.364719 0.500150 0.500003 0.848910
C24   C     C_R   0.634973 0.500699 0.499895 0.854780
C25   C     C_1   0.499850 0.500317 0.189651 0.035594
C26   C     C_1   0.499813 0.500352 0.810367 0.027927
C27   C     C_R   0.257031 0.457159 0.577664 -0.214836
C28   C     C_R   0.742300 0.441076 0.435159 -0.213308
C29   C     C_R   0.186277 0.438224 0.578626 -0.177522
C30   C     C_R   0.813347 0.423151 0.439222 -0.168288
C31   C     C_R   0.145924 0.451331 0.501825 0.079173
C32   C     C_R   0.853725 0.456588 0.508761 0.075888
C33   C     C_R   0.176652 0.484378 0.423972 -0.209014
C34   C     C_R   0.822842 0.509817 0.573355 -0.208864
C35   C     C_R   0.247527 0.505816 0.422616 -0.008129
C36   C     C_R   0.751595 0.530084 0.568747 -0.007826
C37   C     C_R   0.288537 0.490390 0.500164 -0.083578
C38   C     C_R   0.710892 0.493232 0.500088 -0.076479
C39   C     C_R   0.929172 0.442577 0.509262 0.289184
C40   C     C_R   0.070430 0.439329 0.505583 0.288014
H1    H     H_    0.287377 0.444151 0.637480 0.162481
H2    H     H_    0.711425 0.412131 0.382568 0.155614
H3    H     H_    0.592492 0.594262 0.944718 0.120786
H4    H     H_    0.406642 0.407325 0.055511 0.122815
H5    H     H_    0.163114 0.413109 0.639424 0.145647
H6    H     H_    0.836597 0.382472 0.388483 0.147172
H7    H     H_    0.144762 0.497318 0.365389 0.149903
H8    H     H_    0.854745 0.538646 0.625029 0.149416
H9    H     H_    0.402896 0.937449 0.417642 0.148663
H10   H     H_    0.597858 0.062159 0.585730 0.152988
H11   H     H_    0.613424 0.449262 0.054585 0.126531
H12   H     H_    0.385790 0.552199 0.945663 0.123735
H13   H     H_    0.520297 0.355883 0.944908 0.124570
H14   H     H_    0.479142 0.645537 0.055205 0.118134
N1    N     N_R   0.033396 0.427489 0.429231 -0.182295
N2    N     N_R   0.966181 0.451934 0.586028 -0.181990
N3    N     N_R   0.963842 0.428772 0.431114 -0.180513
N4    N     N_R   0.035735 0.450093 0.584237 -0.179740
N5    N     N_1   0.500020 0.500000 0.268010 -0.085320
N6    N     N_1   0.499980 0.500000 0.731990 -0.087296
O1    O     O_R   0.500000 0.376780 0.574460 -0.609331
O2    O     O_R   0.500000 0.623220 0.425540 -0.608770
O3    O     O_R   0.500010 0.376780 0.425520 -0.615767
O4    O     O_R   0.499990 0.623220 0.574480 -0.608124
O5    O     O_R   0.398130 0.499990 0.574490 -0.619324
O6    O     O_R   0.601870 0.500010 0.425510 -0.619713
O7    O     O_R   0.398140 0.499990 0.425550 -0.597050
O8    O     O_R   0.601860 0.500010 0.574450 -0.596223
Zn1   Zn    Zn3+2 0.499990 0.500000 0.599450 0.976100
Zn2   Zn    Zn3+2 0.500010 0.500000 0.400550 0.973803
C41   C     C_R   0.276058 0.546714 0.340780 0.134514
C42   C     C_R   0.273929 0.504271 0.257929 -0.148055
C43   C     C_R   0.302225 0.542130 0.181214 -0.138714
C44   C     C_R   0.332412 0.622646 0.186541 -0.115312
C45   C     C_R   0.334211 0.665606 0.268535 -0.122298
C46   C     C_R   0.305866 0.628089 0.345380 -0.107276
H15   H     H_    0.251191 0.441559 0.253062 0.126166
H16   H     H_    0.300902 0.508975 0.117653 0.125047
H17   H     H_    0.354296 0.651785 0.127112 0.118985
H18   H     H_    0.357612 0.727963 0.272580 0.123376
H19   H     H_    0.307673 0.661971 0.408564 0.103853
C47   C     C_R   0.721798 0.592708 0.633088 0.129738
C48   C     C_R   0.728509 0.580034 0.725932 -0.136632
C49   C     C_R   0.699366 0.638560 0.786220 -0.147854
C50   C     C_R   0.663748 0.710290 0.754380 -0.114790
C51   C     C_R   0.657552 0.723916 0.662151 -0.113049
C52   C     C_R   0.686467 0.665513 0.601645 -0.128894
H20   H     H_    0.755517 0.524427 0.751541 0.125645
H21   H     H_    0.704439 0.628287 0.857662 0.121848
H22   H     H_    0.641226 0.755470 0.801163 0.126544
H23   H     H_    0.630485 0.779796 0.637496 0.128089
H24   H     H_    0.681343 0.676943 0.530338 0.094739
C53   C     C_R   0.506627 0.042412 0.316314 0.110933
C54   C     C_R   0.515199 0.974020 0.256556 -0.140482
C55   C     C_R   0.518171 0.988143 0.164093 -0.137158
C56   C     C_R   0.512386 0.070627 0.130367 -0.110956
C57   C     C_R   0.503508 0.139029 0.189106 -0.138713
C58   C     C_R   0.500537 0.125156 0.281686 -0.158336
H25   H     H_    0.519815 0.909678 0.281713 0.133022
H26   H     H_    0.524974 0.935112 0.118611 0.119690
H27   H     H_    0.514690 0.081524 0.058768 0.115697
H28   H     H_    0.498841 0.202928 0.162875 0.129149
H29   H     H_    0.493253 0.179225 0.325090 0.147852
C59   C     C_R   0.494304 0.956079 0.686793 0.114312
C60   C     C_R   0.487705 0.024062 0.747422 -0.136169
C61   C     C_R   0.485373 0.009067 0.839769 -0.133740
C62   C     C_R   0.489762 0.926089 0.872495 -0.111141
C63   C     C_R   0.496382 0.858037 0.812854 -0.147412
C64   C     C_R   0.498607 0.872782 0.720408 -0.169108
H30   H     H_    0.484251 0.088774 0.723043 0.132566
H31   H     H_    0.480189 0.061816 0.885939 0.119768
H32   H     H_    0.488019 0.914533 0.944008 0.114958
H33   H     H_    0.499815 0.793724 0.838260 0.128443
H34   H     H_    0.503726 0.818882 0.676331 0.146586
C65   C     C_R   0.632808 0.953411 0.427390 0.116291
C66   C     C_R   0.672263 0.019055 0.388657 -0.139891
C67   C     C_R   0.738667 0.002381 0.352632 -0.135341
C68   C     C_R   0.766565 0.920193 0.355628 -0.105585
C69   C     C_R   0.728164 0.854681 0.394942 -0.137085
C70   C     C_R   0.661654 0.871085 0.430858 -0.159092
H35   H     H_    0.651460 0.083198 0.386157 0.133113
H36   H     H_    0.768547 0.053244 0.322548 0.130010
H37   H     H_    0.818042 0.907349 0.327866 0.126346
H38   H     H_    0.750037 0.791121 0.397907 0.131781
H39   H     H_    0.633912 0.819409 0.461838 0.130683
C71   C     C_R   0.368264 0.045696 0.577223 0.114297
C72   C     C_R   0.328170 0.978993 0.612710 -0.141060
C73   C     C_R   0.262262 0.995129 0.650454 -0.134012
C74   C     C_R   0.235563 0.077916 0.652672 -0.108284
C75   C     C_R   0.274691 0.144595 0.616921 -0.138487
C76   C     C_R   0.340695 0.128716 0.579202 -0.153681
H40   H     H_    0.348144 0.914428 0.611424 0.132773
H41   H     H_    0.231876 0.943409 0.677937 0.130755
H42   H     H_    0.184498 0.090366 0.681843 0.126495
H43   H     H_    0.253803 0.208698 0.618250 0.133788
H44   H     H_    0.369138 0.181473 0.551472 0.139396

loop_
_geom_bond_atom_site_label_1
_geom_bond_atom_site_label_2
_ccdc_geom_bond_type
C60   H30   S    
C53   C54   A    
C27   C29   A    
C55   C56   A    
C43   C44   A    
C75   H43   S    
C67   H36   S    
C73   C74   A    
C17   H11   S    
C6    C9    S    
C57   C58   A    
C18   H12   S    
C69   H38   S    
C66   C67   A    
C15   C19   S    
C16   C21   S    
C15   H13   S    
C16   C20   S    
C35   C37   A    
C5    C11   S    
C51   H23   S    
C6    C12   S    
C41   C46   A    
C61   C62   A    
C47   C52   A    
C39   N3    A    
C17   C20   S    
C63   C64   A    
O2    Zn2   S    
C18   C19   S    
C62   H32   S    
C32   C39   S    
C23   O7    A    
C72   H40   S    
C3    C12   S    
C33   C35   A    
C31   C40   S    
C68   C69   A    
C15   C22   S    
C39   N2    A    
C36   C47   S    
O8    Zn1   S    
C58   H29   S    
C24   C38   S    
C43   H16   S    
C31   C33   A    
C6    C59   S    
C45   H18   S    
C57   H28   S    
C24   O6    A    
C48   H20   S    
C35   C41   S    
C1    C7    S    
C52   H24   S    
C1    O3    A    
C5    C10   S    
C59   C60   A    
C2    O4    A    
C61   H31   S    
C40   N4    A    
C66   H35   S    
C56   H27   S    
C49   C50   A    
C4    C6    S    
C76   H44   S    
C44   C45   A    
C55   H26   S    
C23   C37   S    
C17   C21   S    
C29   H5    S    
C32   C34   A    
C63   H33   S    
C45   C46   A    
C42   H15   S    
C3    C9    S    
C27   H1    S    
C48   C49   A    
O3    Zn2   S    
C28   C38   A    
C62   C63   A    
C40   N1    A    
C56   C57   A    
C69   C70   A    
O4    Zn1   S    
C4    C11   S    
C9    C11   S    
C50   C51   A    
C10   C12   S    
C64   H34   S    
N6    Zn1   S    
C12   C14   S    
C65   C70   A    
C44   H17   S    
N1    N3    A    
C33   H7    S    
C34   H8    S    
C49   H21   S    
C4    C10   S    
C72   C73   A    
C20   H3    S    
C19   H4    S    
C51   C52   A    
C74   C75   A    
O1    Zn1   S    
C15   C17   S    
C21   C25   S    
C8    C14   T    
C19   C21   S    
C18   C22   S    
C30   H6    S    
C2    C8    S    
C9    H10   S    
C20   C22   S    
C42   C43   A    
C3    C5    S    
C1    O1    A    
C46   H19   S    
C5    C53   S    
C50   H22   S    
C60   C61   A    
C4    C71   S    
O7    Zn2   S    
C54   H25   S    
C23   O5    A    
C28   C30   A    
C75   C76   A    
C41   C42   A    
C29   C31   A    
C3    C65   S    
C73   H41   S    
C36   C38   A    
C30   C32   A    
C11   C13   S    
O6    Zn2   S    
C71   C76   A    
C27   C37   A    
C71   C72   A    
O5    Zn1   S    
C28   H2    S    
C70   H39   S    
N2    N4    A    
C34   C36   A    
C68   H37   S    
C54   C55   A    
C16   H14   S    
C24   O8    A    
N5    Zn2   S    
C74   H42   S    
C2    O2    A    
C7    C13   T    
C16   C18   S    
C47   C48   A    
C22   C26   S    
C59   C64   A    
C25   N5    T    
C67   C68   A    
C10   H9    S    
C26   N6    T    
C53   C58   A    
C65   C66   A    
