data_mof_unit_54716.cif
_audit_creation_date              2012-12-10T17:02:04-0500
_audit_creation_method            fapswitch 2.2
_symmetry_space_group_name_H-M    P1
_symmetry_Int_Tables_number       1
_space_group_crystal_system       triclinic
_cell_length_a                    10.813676
_cell_length_b                    10.976698
_cell_length_c                    9.840431
_cell_angle_alpha                 110.589183
_cell_angle_beta                  97.406145
_cell_angle_gamma                 92.302291
_cell_volume                      1079.70505702

loop_
_atom_site_label
_atom_site_type_symbol
_atom_type_description
_atom_site_fract_x
_atom_site_fract_y
_atom_site_fract_z
_atom_type_partial_charge
C1    C     C_R   0.488216 0.254012 0.441306 0.857640
C2    C     C_R   0.083058 0.613588 0.619684 -0.027058
C3    C     C_R   0.129873 0.512319 0.508918 -0.039140
C4    C     C_R   0.047941 0.419600 0.394359 -0.188238
C5    C     C_R   0.920090 0.421873 0.390571 -0.214431
C6    C     C_R   0.871532 0.520038 0.498008 -0.075814
C7    C     C_2   0.473877 0.114171 0.409793 -0.356071
C8    C     C_2   0.465906 0.069317 0.518235 -0.145500
C9    C     C_2   0.492251 0.884508 0.593617 -0.352198
C10   C     C_2   0.455521 0.929644 0.487289 -0.203942
C11   C     C_2   0.509200 0.517396 0.085294 0.575381
C12   C     C_R   0.262943 0.503997 0.503121 0.767453
C13   C     C_2   0.479511 0.504711 0.925853 -0.210406
C14   C     C_R   0.501325 0.745359 0.559281 0.912865
C15   C     C_R   0.737498 0.507049 0.499551 0.875862
C16   C     C_R   0.162468 0.709975 0.737383 -0.313906
C17   C     C_R   0.112938 0.808546 0.845691 0.486673
C18   C     C_R   0.986043 0.823968 0.823181 -0.272012
C19   C     C_R   0.906998 0.736914 0.700985 0.420653
C20   C     C_R   0.952146 0.622115 0.608076 -0.014051
Cu1   Cu    Cu3+1 0.521920 0.521810 0.644910 0.958694
Cu2   Cu    Cu3+1 0.478080 0.478190 0.355090 0.987406
H1    H     H_    0.083363 0.342306 0.309389 0.157348
H2    H     H_    0.469760 0.047536 0.297215 0.142628
H3    H     H_    0.391958 0.451552 0.861872 0.145605
H4    H     H_    0.643812 0.589136 0.918097 0.233129
H5    H     H_    0.371037 0.383426 0.067576 0.144822
H6    H     H_    0.262793 0.712566 0.746814 0.186412
H7    H     H_    0.949494 0.908830 0.896359 0.174798
H8    H     H_    0.858697 0.344684 0.305156 0.153080
H9    H     H_    0.425394 0.863476 0.375034 0.171238
H10   H     H_    0.472850 0.135711 0.631610 0.185882
H11   H     H_    0.521269 0.951214 0.706167 0.166736
N1    N     N_2   0.445130 0.445430 0.137370 -0.320749
N2    N     N_2   0.554930 0.554500 0.862630 -0.283687
O1    O     O_R   0.511700 0.332330 0.577400 -0.576514
O2    O     O_R   0.474680 0.295500 0.332650 -0.573439
O3    O     O_R   0.338160 0.518420 0.622400 -0.598301
O4    O     O_R   0.301140 0.481590 0.377650 -0.582265
O5    O     O_R   0.525320 0.704500 0.667350 -0.553644
O6    O     O_R   0.488300 0.667670 0.422600 -0.554010
O7    O     O_R   0.698860 0.518410 0.622350 -0.564596
O8    O     O_R   0.661840 0.481580 0.377600 -0.535847
O9    O     O_3   0.610062 0.600954 0.177428 -0.534054
C21   C     C_3   0.598435 0.731314 0.185740 -0.304771
H12   H     H_    0.501620 0.751118 0.150807 0.120376
H13   H     H_    0.664084 0.759448 0.121924 0.153127
H14   H     H_    0.627596 0.797166 0.300984 0.184147
O10   O     O_3   0.187632 0.901467 0.965332 -0.566397
C22   C     C_3   0.272713 0.841430 0.037452 -0.328041
H15   H     H_    0.360004 0.828244 0.987565 0.168830
H16   H     H_    0.232458 0.746536 0.038210 0.154068
H17   H     H_    0.297414 0.906973 0.153697 0.184135
O11   O     O_3   0.792573 0.776036 0.661541 -0.573980
C23   C     C_3   0.811044 0.845813 0.568132 -0.336895
H18   H     H_    0.827178 0.778250 0.458688 0.182087
H19   H     H_    0.889575 0.924614 0.616308 0.161553
H20   H     H_    0.726589 0.895169 0.551832 0.187329

loop_
_geom_bond_atom_site_label_1
_geom_bond_atom_site_label_2
_ccdc_geom_bond_type
C16   H6    S    
C22   H16   S    
C9    C14   S    
Cu1   N2    S    
C7    H2    S    
C6    C20   A    
C9    C10   D    
Cu2   O8    S    
C1    O2    A    
C23   H18   S    
C12   O4    A    
C23   H19   S    
C17   C18   A    
C15   O8    A    
C7    C8    D    
Cu1   O1    S    
C21   H12   S    
C9    H11   S    
C11   C13   S    
C13   H3    S    
C16   C17   A    
Cu1   O5    S    
C14   O6    A    
Cu2   O4    S    
C19   O11   S    
Cu1   Cu2   S    
C13   N2    D    
C2    C3    A    
C21   H13   S    
H5    N1    S    
C12   O3    A    
C5    C6    A    
Cu2   N1    S    
C23   H20   S    
Cu2   O6    S    
Cu1   O3    S    
C14   O5    A    
Cu1   O7    S    
C22   H17   S    
H4    N2    S    
C11   O9    S    
C2    C16   A    
O9    C21   S    
C15   O7    A    
C8    C10   S    
O10   C22   S    
C5    H8    S    
C21   H14   S    
C17   O10   S    
C18   H7    S    
C4    H1    S    
O11   C23   S    
C18   C19   A    
C3    C12   S    
C22   H15   S    
C6    C15   S    
C1    C7    S    
Cu2   O2    S    
C2    C20   A    
C10   H9    S    
C11   N1    D    
C3    C4    A    
C19   C20   A    
C1    O1    A    
C4    C5    A    
C8    H10   S    
