data_mof_unit_14228.cif
_audit_creation_date              2012-12-11T14:03:54-0500
_audit_creation_method            fapswitch 2.2
_symmetry_space_group_name_H-M    P1
_symmetry_Int_Tables_number       1
_space_group_crystal_system       triclinic
_cell_length_a                    19.023572
_cell_length_b                    10.978828
_cell_length_c                    18.71209
_cell_angle_alpha                 90.337198
_cell_angle_beta                  90.047961
_cell_angle_gamma                 89.831408
_cell_volume                      3908.05617945

loop_
_atom_site_label
_atom_site_type_symbol
_atom_type_description
_atom_site_fract_x
_atom_site_fract_y
_atom_site_fract_z
_atom_type_partial_charge
C1    C     C_R   0.239115 0.468278 0.646033 0.571301
C2    C     C_R   0.760007 0.465364 0.352255 0.568254
C3    C     C_R   0.739115 0.968278 0.646033 0.571303
C4    C     C_R   0.260007 0.965364 0.352255 0.568254
C5    C     C_2   0.274833 0.803463 0.527788 -0.174458
C6    C     C_2   0.708311 0.848229 0.461595 -0.163151
C7    C     C_2   0.774833 0.303463 0.527788 -0.174459
C8    C     C_2   0.208311 0.348228 0.461595 -0.163153
C9    C     C_R   0.008549 0.668423 0.424778 -0.015615
C10   C     C_R   0.992259 0.658125 0.574652 -0.007375
C11   C     C_R   0.508549 0.168422 0.424779 -0.015616
C12   C     C_R   0.492258 0.158125 0.574652 -0.007377
C13   C     C_R   0.003781 0.895478 0.434020 0.174117
C14   C     C_R   0.957561 0.874828 0.575906 0.162083
C15   C     C_R   0.503781 0.395478 0.434020 0.174116
C16   C     C_R   0.457561 0.374828 0.575906 0.162083
C17   C     C_R   0.978458 0.996940 0.471175 -0.127651
C18   C     C_R   0.953110 0.985716 0.540443 -0.142083
C19   C     C_R   0.478457 0.496940 0.471174 -0.127652
C20   C     C_R   0.453109 0.485716 0.540442 -0.142085
C21   C     C_R   0.983975 0.770581 0.539594 -0.015479
C22   C     C_R   0.999465 0.778077 0.465160 -0.014534
C23   C     C_R   0.483974 0.270580 0.539595 -0.015481
C24   C     C_R   0.499465 0.278077 0.465160 -0.014535
C25   C     C_R   0.996496 0.550312 0.532869 0.008884
C26   C     C_R   0.018515 0.558068 0.461620 0.004070
C27   C     C_R   0.496495 0.050312 0.532870 0.008883
C28   C     C_R   0.518514 0.058068 0.461620 0.004070
C29   C     C_R   0.982229 0.433794 0.561203 -0.068085
C30   C     C_R   0.043006 0.451574 0.426728 -0.065085
C31   C     C_R   0.482228 0.933794 0.561203 -0.068085
C32   C     C_R   0.543006 0.951574 0.426728 -0.065085
C33   C     C_R   0.001341 0.328672 0.523911 -0.143608
C34   C     C_R   0.033901 0.337688 0.457651 -0.133320
C35   C     C_R   0.501341 0.828672 0.523911 -0.143607
C36   C     C_R   0.533901 0.837687 0.457652 -0.133320
C37   C     C_2   0.238033 0.897815 0.928677 -0.043119
C38   C     C_2   0.761413 0.897192 0.071630 -0.042967
C39   C     C_2   0.738026 0.397785 0.928688 -0.043287
C40   C     C_2   0.261413 0.397165 0.071617 -0.043224
C41   C     C_2   0.246044 0.885201 0.088271 0.120612
C42   C     C_2   0.754624 0.886610 0.911437 0.128314
C43   C     C_2   0.746029 0.385199 0.088277 0.120616
C44   C     C_2   0.254651 0.386602 0.911426 0.128320
C45   C     C_R   0.211620 0.835434 0.639515 0.549258
C46   C     C_R   0.772560 0.875361 0.352033 0.546655
C47   C     C_R   0.711620 0.335433 0.639515 0.549262
C48   C     C_R   0.272560 0.375361 0.352033 0.546663
C49   C     C_2   0.187385 0.898569 0.048678 0.140069
C50   C     C_2   0.812448 0.902790 0.952043 0.140666
C51   C     C_2   0.687366 0.398601 0.048693 0.140075
C52   C     C_2   0.312478 0.402838 0.952024 0.140692
C53   C     C_2   0.186811 0.863469 0.973755 -0.067639
C54   C     C_2   0.813152 0.865259 0.026229 -0.069815
C55   C     C_2   0.686771 0.363586 0.973758 -0.067763
C56   C     C_2   0.313214 0.365438 0.026235 -0.069970
C57   C     C_2   0.989625 0.665701 0.916211 -0.102957
C58   C     C_2   0.988595 0.654786 0.073135 -0.099627
C59   C     C_2   0.489632 0.165712 0.916215 -0.102943
C60   C     C_2   0.488597 0.154780 0.073136 -0.099609
C61   C     C_2   0.958855 0.572045 0.029187 -0.147545
C62   C     C_2   0.972829 0.566565 0.953082 -0.147309
C63   C     C_2   0.458824 0.072091 0.029184 -0.147485
C64   C     C_2   0.472810 0.066588 0.953082 -0.147271
C65   C     C_R   0.027035 0.654074 0.645969 0.569659
C66   C     C_R   0.973424 0.656195 0.353730 0.563749
C67   C     C_R   0.527035 0.154074 0.645969 0.569659
C68   C     C_R   0.473424 0.156195 0.353730 0.563749
C69   C     C_R   0.239940 0.462199 0.849207 0.600027
C70   C     C_R   0.760167 0.461588 0.150765 0.586213
C71   C     C_R   0.739934 0.962209 0.849215 0.600009
C72   C     C_R   0.260170 0.961594 0.150760 0.586203
C73   C     C_R   0.226632 0.872462 0.853867 0.558579
C74   C     C_R   0.773338 0.871910 0.146198 0.545083
C75   C     C_R   0.726622 0.372437 0.853876 0.558602
C76   C     C_R   0.273340 0.371901 0.146192 0.545102
C77   C     C_R   0.027722 0.653181 0.849701 0.569291
C78   C     C_R   0.968576 0.651358 0.147634 0.560867
C79   C     C_R   0.527725 0.153182 0.849703 0.569300
C80   C     C_R   0.468580 0.151358 0.147636 0.560873
C81   C     C_2   0.229515 0.869530 0.567207 -0.101271
C82   C     C_2   0.749916 0.919154 0.421525 -0.111680
C83   C     C_2   0.729515 0.369530 0.567207 -0.101272
C84   C     C_2   0.249916 0.419154 0.421525 -0.111683
C85   C     C_2   0.241878 0.893582 0.414264 -0.097873
C86   C     C_2   0.752252 0.911353 0.577416 -0.090489
C87   C     C_2   0.741878 0.393582 0.414264 -0.097872
C88   C     C_2   0.252252 0.411353 0.577416 -0.090490
C89   C     C_2   0.291025 0.839355 0.454356 -0.167538
C90   C     C_2   0.698710 0.871581 0.537541 -0.163712
C91   C     C_2   0.791025 0.339354 0.454356 -0.167537
C92   C     C_2   0.198711 0.371580 0.537541 -0.163711
Cr1   Cr    Cr6+3 0.113970 0.508630 0.747920 1.067245
Cr2   Cr    Cr6+3 0.886030 0.508630 0.252080 1.069995
Cr3   Cr    Cr6+3 0.613970 0.008630 0.747920 1.067262
Cr4   Cr    Cr6+3 0.386030 0.008630 0.252080 1.070014
Cr5   Cr    Cr6+3 0.269200 0.666740 0.749850 1.093442
Cr6   Cr    Cr6+3 0.730800 0.666740 0.250150 1.099141
Cr7   Cr    Cr6+3 0.769200 0.166740 0.749850 1.093429
Cr8   Cr    Cr6+3 0.230800 0.166740 0.250150 1.099130
Cr9   Cr    Cr6+3 0.112300 0.820070 0.749800 1.108052
Cr10  Cr    Cr6+3 0.887700 0.820070 0.250200 1.118493
Cr11  Cr    Cr6+3 0.612300 0.320070 0.749800 1.108046
Cr12  Cr    Cr6+3 0.387700 0.320070 0.250200 1.118474
H1    H     H_    0.344884 0.829822 0.435825 0.164791
H2    H     H_    0.646733 0.859113 0.560091 0.173622
H3    H     H_    0.844884 0.329822 0.435825 0.164791
H4    H     H_    0.146733 0.359111 0.560091 0.173622
H5    H     H_    0.138954 0.821679 0.953409 0.148294
H6    H     H_    0.861608 0.824842 0.046102 0.155294
H7    H     H_    0.638872 0.321983 0.953399 0.148447
H8    H     H_    0.361750 0.325370 0.046146 0.155612
H9    H     H_    0.925790 0.499995 0.050113 0.198993
H10   H     H_    0.974056 0.476642 0.928517 0.197195
H11   H     H_    0.425721 0.000100 0.050106 0.198966
H12   H     H_    0.474017 0.976666 0.928516 0.197196
H13   H     H_    0.021421 0.728144 0.053798 0.138227
H14   H     H_    0.984859 0.755925 0.939776 0.153806
H15   H     H_    0.521465 0.228076 0.053805 0.138169
H16   H     H_    0.484883 0.255934 0.939783 0.153771
H17   H     H_    0.303159 0.726948 0.550693 0.147951
H18   H     H_    0.682316 0.768686 0.439310 0.164059
H19   H     H_    0.803159 0.226948 0.550693 0.147951
H20   H     H_    0.182317 0.268685 0.439310 0.164059
H21   H     H_    0.187610 0.897538 0.432089 0.144183
H22   H     H_    0.804535 0.919187 0.554728 0.135202
H23   H     H_    0.687610 0.397538 0.432089 0.144182
H24   H     H_    0.304535 0.419188 0.554728 0.135201
H25   H     H_    0.978222 0.085196 0.445988 0.135341
H26   H     H_    0.930439 0.064019 0.567258 0.135529
H27   H     H_    0.478220 0.585195 0.445988 0.135342
H28   H     H_    0.430439 0.564018 0.567258 0.135530
H29   H     H_    0.993080 0.240678 0.547687 0.112786
H30   H     H_    0.051200 0.256626 0.429579 0.127614
H31   H     H_    0.493079 0.740678 0.547688 0.112787
H32   H     H_    0.551200 0.756625 0.429579 0.127615
O1    O     O_R   0.043230 0.549300 0.667990 -0.531820
O2    O     O_R   0.956770 0.549300 0.332010 -0.522146
O3    O     O_R   0.543230 0.049300 0.667990 -0.531820
O4    O     O_R   0.456770 0.049300 0.332010 -0.522148
O5    O     O_R   0.262920 0.788600 0.824420 -0.476224
O6    O     O_R   0.737080 0.788600 0.175580 -0.480497
O7    O     O_R   0.762920 0.288600 0.824420 -0.476231
O8    O     O_R   0.237080 0.288600 0.175580 -0.480499
O9    O     O_R   0.167530 0.905110 0.830340 -0.476634
O10   O     O_R   0.832470 0.905110 0.169660 -0.479938
O11   O     O_R   0.667530 0.405110 0.830340 -0.476675
O12   O     O_R   0.332470 0.405110 0.169660 -0.480001
O13   O     O_R   0.054010 0.748440 0.822860 -0.472373
O14   O     O_R   0.945990 0.748440 0.177140 -0.467292
O15   O     O_R   0.554010 0.248440 0.822860 -0.472391
O16   O     O_R   0.445990 0.248440 0.177140 -0.467318
O17   O     O_3   0.165160 0.665150 0.749190 -0.304190
O18   O     O_3   0.834840 0.665150 0.250810 -0.288689
O19   O     O_3   0.665160 0.165150 0.749190 -0.304193
O20   O     O_3   0.334840 0.165150 0.250810 -0.288679
O21   O     O_R   0.178620 0.457600 0.674100 -0.503091
O22   O     O_R   0.821380 0.457600 0.325900 -0.500070
O23   O     O_R   0.678620 0.957600 0.674100 -0.503089
O24   O     O_R   0.321380 0.957600 0.325900 -0.500070
O25   O     O_R   0.284680 0.542100 0.669460 -0.492333
O26   O     O_R   0.715320 0.542100 0.330540 -0.480030
O27   O     O_R   0.784680 0.042100 0.669460 -0.492336
O28   O     O_R   0.215320 0.042100 0.330540 -0.480034
O29   O     O_R   0.262860 0.790390 0.676650 -0.496829
O30   O     O_R   0.737140 0.790390 0.323350 -0.506003
O31   O     O_R   0.762860 0.290390 0.676650 -0.496825
O32   O     O_R   0.237140 0.290390 0.323350 -0.506001
O33   O     O_R   0.167460 0.907030 0.670940 -0.494717
O34   O     O_R   0.832540 0.907030 0.329060 -0.493510
O35   O     O_R   0.667460 0.407030 0.670940 -0.494709
O36   O     O_R   0.332540 0.407030 0.329060 -0.493502
O37   O     O_R   0.053950 0.750220 0.675100 -0.469029
O38   O     O_R   0.946050 0.750220 0.324900 -0.451779
O39   O     O_R   0.553950 0.250220 0.675100 -0.469026
O40   O     O_R   0.446050 0.250220 0.324900 -0.451776
O41   O     O_R   0.043300 0.547370 0.827390 -0.496279
O42   O     O_R   0.956700 0.547370 0.172610 -0.498656
O43   O     O_R   0.543300 0.047370 0.827390 -0.496254
O44   O     O_R   0.456700 0.047370 0.172610 -0.498626
O45   O     O_R   0.178690 0.455820 0.821860 -0.467891
O46   O     O_R   0.821310 0.455820 0.178140 -0.480957
O47   O     O_R   0.678690 0.955820 0.821860 -0.467883
O48   O     O_R   0.321310 0.955820 0.178140 -0.480954
O49   O     O_R   0.284750 0.540170 0.828860 -0.449878
O50   O     O_R   0.715250 0.540170 0.171140 -0.450841
O51   O     O_R   0.784750 0.040170 0.828860 -0.449885
O52   O     O_R   0.215250 0.040170 0.171140 -0.450846
Br1   Br    Br    0.319064 0.771133 0.060229 -0.482423
Br2   Br    Br    0.683404 0.769168 0.937562 -0.460570
Br3   Br    Br    0.819032 0.271092 0.060241 -0.482491
Br4   Br    Br    0.183459 0.269096 0.937547 -0.460711
H33   H     H_    0.285698 0.942890 0.946548 0.126657
H34   H     H_    0.713072 0.940760 0.054204 0.135781
H35   H     H_    0.785749 0.442624 0.946567 0.126739
H36   H     H_    0.212961 0.440325 0.054162 0.135941
H37   H     H_    0.203697 0.949688 0.545567 0.121440
H38   H     H_    0.775074 0.999591 0.443886 0.108869
H39   H     H_    0.703697 0.449688 0.545567 0.121440
H40   H     H_    0.275074 0.499591 0.443886 0.108869
Br5   Br    Br    0.054218 0.927827 0.346988 -0.493518
Br6   Br    Br    0.915810 0.868597 0.669644 -0.476618
Br7   Br    Br    0.554218 0.427826 0.346988 -0.493498
Br8   Br    Br    0.415810 0.368598 0.669644 -0.476588
H41   H     H_    0.066926 0.456234 0.374281 0.139247
H42   H     H_    0.957011 0.423711 0.612690 0.149794
H43   H     H_    0.566926 0.956233 0.374281 0.139248
H44   H     H_    0.457010 0.923711 0.612690 0.149795
Br9   Br    Br    0.100898 0.971481 0.081881 -0.387719
Br10  Br    Br    0.897065 0.984605 0.922271 -0.382117
Br11  Br    Br    0.600877 0.471459 0.081942 -0.387790
Br12  Br    Br    0.397095 0.484596 0.922187 -0.382193

loop_
_geom_bond_atom_site_label_1
_geom_bond_atom_site_label_2
_ccdc_geom_bond_type
Cr10  O34   S    
C7    C83   D    
Cr6   O18   S    
C59   H16   S    
C6    C82   D    
C87   C91   D    
C86   H22   S    
C14   C18   A    
Cr9   O37   S    
C35   C36   A    
C43   C51   D    
C2    O26   A    
C87   H23   S    
C68   O40   A    
Cr11  O11   S    
C57   C62   D    
Cr12  O40   S    
C73   O5    A    
C84   H40   S    
Cr5   O49   S    
C12   C23   A    
Cr9   O9    S    
C59   C64   D    
C50   C54   S    
C60   C63   D    
Cr3   O23   S    
C80   O44   A    
C14   C21   A    
Cr7   O7    S    
Cr8   O52   S    
C20   H28   S    
C82   H38   S    
C38   C74   S    
C49   C53   S    
C9    C22   A    
C34   H30   S    
C53   H5    S    
C66   O2    A    
C44   Br4   S    
C5    H17   S    
C11   C24   A    
C5    C81   D    
C54   H6    S    
C60   H15   S    
Cr2   O42   S    
Cr12  O12   S    
C9    C66   S    
C72   O52   A    
C46   C82   S    
C85   H21   S    
C70   O46   A    
C39   C55   D    
C88   C92   D    
C29   C33   A    
C67   O39   A    
C47   C83   S    
C40   C56   D    
Cr7   O19   S    
C23   C24   A    
C4    O28   A    
Cr9   O33   S    
C8    C92   S    
C39   C75   S    
C67   O3    A    
Cr10  O18   S    
Cr3   O19   S    
C3    O27   A    
Cr12  O36   S    
C63   H11   S    
C44   C52   D    
C58   C61   D    
C74   O6    A    
C43   Br3   S    
Cr2   O22   S    
C48   O36   A    
C21   C22   A    
Cr6   O6    S    
C3    C86   S    
C25   C29   A    
C4    O24   A    
Cr1   O45   S    
C65   O1    A    
Cr4   O48   S    
C36   H32   S    
C81   H37   S    
C41   C49   D    
C69   O45   A    
Cr6   O26   S    
C92   H4    S    
C9    C26   A    
C17   C18   A    
Cr7   O31   S    
C10   C21   A    
C19   H27   S    
C12   C67   S    
C45   C81   S    
C30   C34   A    
C12   C27   A    
C27   C31   A    
C57   C77   S    
C28   C32   A    
C38   H34   S    
C90   H2    S    
Cr8   O8    S    
C77   O13   A    
C85   C89   D    
C8    H20   S    
C4    C85   S    
C75   O11   A    
C25   C26   A    
C6    C90   S    
C30   H41   S    
C39   H35   S    
C64   H12   S    
C58   H13   S    
Cr12  O20   S    
C29   H42   S    
C48   C84   S    
C76   O12   A    
C73   O9    A    
C37   H33   S    
C15   C19   A    
C65   O37   A    
C71   O47   A    
C47   O31   A    
C42   Br2   S    
C15   Br7   S    
C38   C54   D    
Cr9   O17   S    
C16   C20   A    
C7    C91   S    
Cr11  O39   S    
C33   C34   A    
C2    C87   S    
Cr8   O28   S    
C1    O21   A    
Cr4   O44   S    
C32   H43   S    
Cr1   O21   S    
Cr5   O5    S    
Cr6   O30   S    
C46   O34   A    
C75   O7    A    
C42   C50   D    
C41   C72   S    
Cr7   O27   S    
C76   O8    A    
C10   C25   A    
Cr11  O19   S    
C15   C24   A    
Cr4   O24   S    
Cr10  O14   S    
C26   C30   A    
C16   C23   A    
Cr5   O17   S    
C86   C90   D    
Cr2   O2    S    
C79   O43   A    
C18   H26   S    
Cr10  O38   S    
Cr8   O20   S    
C6    H18   S    
C59   C79   S    
C68   O4    A    
C69   O49   A    
C11   C68   S    
C78   O14   A    
C79   O15   A    
C40   H36   S    
C10   C65   S    
Cr3   O43   S    
C80   O16   A    
C37   C73   S    
C60   C80   S    
Cr1   O41   S    
C46   O30   A    
C55   H7    S    
C78   O42   A    
C72   O48   A    
Cr3   O3    S    
C74   O10   A    
C33   H29   S    
C35   H31   S    
C71   O51   A    
C58   C78   S    
C45   O33   A    
Cr4   O4    S    
C47   O35   A    
C41   Br1   S    
C32   C36   A    
C62   H10   S    
Cr11  O15   S    
C43   C70   S    
Cr5   O25   S    
C13   C17   A    
Cr8   O32   S    
C89   H1    S    
Cr12  O16   S    
C19   C20   A    
Cr1   O17   S    
Cr7   O51   S    
C37   C53   D    
C31   H44   S    
Cr6   O50   S    
Cr10  O10   S    
C61   H9    S    
Cr2   O18   S    
Cr11  O35   S    
Cr3   O47   S    
Cr4   O20   S    
C45   O29   A    
C11   C28   A    
C1    C88   S    
Cr5   O29   S    
C14   Br6   S    
C31   C35   A    
Cr9   O13   S    
C42   C71   S    
C13   Br5   S    
C13   C22   A    
C51   C55   S    
C61   C62   S    
C77   O41   A    
Cr1   O1    S    
C70   O50   A    
C3    O23   A    
C1    O25   A    
C63   C64   S    
C51   Br11  S    
C2    O22   A    
C50   Br10  S    
C88   H24   S    
C8    C84   D    
C40   C76   S    
C49   Br9   S    
C27   C28   A    
C52   Br12  S    
C44   C69   S    
C66   O38   A    
Cr2   O46   S    
C16   Br8   S    
C83   H39   S    
C48   O32   A    
C56   H8    S    
C17   H25   S    
C5    C89   S    
C52   C56   S    
C7    H19   S    
C57   H14   S    
C91   H3    S    
