data_mof_unit_47904.cif
_audit_creation_date              2012-12-11T16:12:48-0500
_audit_creation_method            fapswitch 2.2
_symmetry_space_group_name_H-M    P1
_symmetry_Int_Tables_number       1
_space_group_crystal_system       triclinic
_cell_length_a                    7.051372
_cell_length_b                    21.282974
_cell_length_c                    23.554626
_cell_angle_alpha                 89.999625
_cell_angle_beta                  90.000964
_cell_angle_gamma                 89.997973
_cell_volume                      3534.94087175

loop_
_atom_site_label
_atom_site_type_symbol
_atom_type_description
_atom_site_fract_x
_atom_site_fract_y
_atom_site_fract_z
_atom_type_partial_charge
O1    O     O_R   0.615270 0.806540 0.192260 -0.535596
O2    O     O_R   0.384730 0.193460 0.807740 -0.535596
O3    O     O_R   0.384730 0.193460 0.692260 -0.535596
O4    O     O_R   0.615270 0.806540 0.307740 -0.535596
O5    O     O_R   0.115270 0.693460 0.307740 -0.535595
O6    O     O_R   0.884730 0.306540 0.692260 -0.535595
O7    O     O_R   0.884730 0.306540 0.807740 -0.535594
O8    O     O_R   0.115270 0.693460 0.192260 -0.535594
O9    O     O_R   0.285500 0.813970 0.307340 -0.533936
O10   O     O_R   0.714500 0.186030 0.692660 -0.533936
O11   O     O_R   0.714500 0.186030 0.807340 -0.533939
O12   O     O_R   0.285500 0.813970 0.192660 -0.533939
O13   O     O_R   0.785500 0.686030 0.192660 -0.533934
O14   O     O_R   0.214500 0.313970 0.807340 -0.533934
O15   O     O_R   0.214500 0.313970 0.692660 -0.533933
O16   O     O_R   0.785500 0.686030 0.307340 -0.533933
C1    C     C_R   0.454041 0.828883 0.326635 0.718218
C2    C     C_R   0.545959 0.171117 0.673365 0.718219
C3    C     C_R   0.545961 0.171114 0.826632 0.718225
C4    C     C_R   0.454039 0.828886 0.173368 0.718226
C5    C     C_R   0.954042 0.671118 0.173365 0.718220
C6    C     C_R   0.045958 0.328882 0.826635 0.718219
C7    C     C_R   0.045957 0.328883 0.673366 0.718234
C8    C     C_R   0.954043 0.671117 0.326634 0.718234
O17   O     O_3   0.448760 0.710460 0.250000 -0.370106
O18   O     O_3   0.551240 0.289540 0.750000 -0.370106
O19   O     O_3   0.948760 0.789540 0.250000 -0.370112
O20   O     O_3   0.051240 0.210460 0.750000 -0.370111
V1    V     V_3+5 0.173900 0.757330 0.250000 1.448945
V2    V     V_3+5 0.826100 0.242670 0.750000 1.448945
V3    V     V_3+5 0.673900 0.742670 0.250000 1.448948
V4    V     V_3+5 0.326100 0.257330 0.750000 1.448947
C9    C     C_3   0.093286 0.525993 0.542965 0.366145
C10   C     C_3   0.906711 0.474009 0.457037 0.366142
C11   C     C_3   0.907221 0.473953 0.043033 0.366095
C12   C     C_3   0.092770 0.526049 0.956966 0.366095
C13   C     C_3   0.593171 0.973981 0.957028 0.366137
C14   C     C_3   0.406843 0.026022 0.042976 0.366136
C15   C     C_3   0.406766 0.025995 0.457028 0.366138
C16   C     C_3   0.593231 0.974002 0.542974 0.366137
C17   C     C_3   0.904209 0.549794 0.518250 0.365503
C18   C     C_3   0.095788 0.450207 0.481751 0.365502
C19   C     C_3   0.096288 0.450290 0.018205 0.365541
C20   C     C_3   0.903702 0.549710 0.981795 0.365542
C21   C     C_3   0.404093 0.950227 0.981773 0.365524
C22   C     C_3   0.595921 0.049776 0.018231 0.365526
C23   C     C_3   0.595838 0.049782 0.481754 0.365512
C24   C     C_3   0.404160 0.950216 0.518248 0.365512
C25   C     C_1   0.962790 0.625520 0.372330 -0.179234
C26   C     C_1   0.037209 0.374481 0.627670 -0.179234
C27   C     C_1   0.037210 0.374477 0.872333 -0.179239
C28   C     C_1   0.962789 0.625523 0.127667 -0.179239
C29   C     C_1   0.462780 0.874490 0.127677 -0.179249
C30   C     C_1   0.537223 0.125511 0.872324 -0.179251
C31   C     C_1   0.537214 0.125521 0.627668 -0.179238
C32   C     C_1   0.462786 0.874478 0.372332 -0.179238
C33   C     C_3   0.178067 0.517636 0.482802 -0.408098
C34   C     C_3   0.821930 0.482365 0.517199 -0.408098
C35   C     C_3   0.821930 0.482216 0.982923 -0.408111
C36   C     C_3   0.178063 0.517785 0.017076 -0.408117
C37   C     C_3   0.678072 0.982328 0.017177 -0.408120
C38   C     C_3   0.321941 0.017675 0.982827 -0.408125
C39   C     C_3   0.321927 0.017653 0.517185 -0.408107
C40   C     C_3   0.678072 0.982344 0.482818 -0.408112
C41   C     C_3   0.985969 0.541647 0.457854 -0.035075
C42   C     C_3   0.014028 0.458354 0.542147 -0.035077
C43   C     C_3   0.014018 0.458347 0.957859 -0.035064
C44   C     C_3   0.985975 0.541654 0.042141 -0.035060
C45   C     C_3   0.485973 0.958365 0.042157 -0.035082
C46   C     C_3   0.514041 0.041638 0.957847 -0.035079
C47   C     C_3   0.514021 0.041648 0.542145 -0.035073
C48   C     C_3   0.485978 0.958349 0.457857 -0.035072
C49   C     C_1   0.971524 0.587683 0.410838 0.076362
C50   C     C_1   0.028474 0.412318 0.589162 0.076362
C51   C     C_1   0.028469 0.412312 0.910842 0.076376
C52   C     C_1   0.971527 0.587688 0.089157 0.076377
C53   C     C_1   0.471518 0.912331 0.089173 0.076341
C54   C     C_1   0.528489 0.087671 0.910830 0.076340
C55   C     C_1   0.528472 0.087684 0.589160 0.076372
C56   C     C_1   0.471527 0.912314 0.410841 0.076374
O21   O     O_3   0.805258 0.604544 0.534291 -0.554717
C57   C     C_3   0.756129 0.601772 0.592375 0.095533
H1    H     H_    0.865122 0.579029 0.619468 0.156143
H2    H     H_    0.623691 0.574412 0.597754 0.149710
C58   C     C_3   0.729864 0.668511 0.614236 -0.760409
H3    H     H_    0.619483 0.693216 0.589151 0.232321
H4    H     H_    0.688357 0.667735 0.659681 0.183520
H5    H     H_    0.864735 0.694970 0.610131 0.219938
O22   O     O_3   0.194738 0.395457 0.465709 -0.554717
C59   C     C_3   0.243855 0.398228 0.407625 0.095532
H6    H     H_    0.376291 0.425588 0.402242 0.149707
H7    H     H_    0.134856 0.420970 0.380532 0.156148
C60   C     C_3   0.270119 0.331488 0.385764 -0.760407
H8    H     H_    0.135248 0.305029 0.389870 0.219935
H9    H     H_    0.311626 0.332264 0.340320 0.183522
H10   H     H_    0.380499 0.306784 0.410850 0.232324
O23   O     O_3   0.195769 0.395627 0.034202 -0.554731
C61   C     C_3   0.245207 0.398436 0.092262 0.095554
H11   H     H_    0.136391 0.421210 0.119400 0.156110
H12   H     H_    0.377706 0.425786 0.097558 0.149923
C62   C     C_3   0.271539 0.331708 0.114158 -0.760213
H13   H     H_    0.381934 0.306994 0.089088 0.232189
H14   H     H_    0.313037 0.332517 0.159603 0.183508
H15   H     H_    0.136708 0.305226 0.110074 0.219874
O24   O     O_3   0.804213 0.604373 0.965801 -0.554732
C63   C     C_3   0.754754 0.601563 0.907742 0.095548
H16   H     H_    0.622253 0.574213 0.902451 0.149932
H17   H     H_    0.863561 0.578788 0.880602 0.156101
C64   C     C_3   0.728414 0.668290 0.885846 -0.760201
H18   H     H_    0.863235 0.694776 0.889939 0.219883
H19   H     H_    0.686946 0.667482 0.840400 0.183506
H20   H     H_    0.617997 0.693000 0.910911 0.232178
O25   O     O_3   0.305012 0.895497 0.965755 -0.554728
C65   C     C_3   0.255822 0.898259 0.907675 0.095600
H21   H     H_    0.364758 0.921009 0.880568 0.156139
H22   H     H_    0.123347 0.925605 0.902306 0.149763
C66   C     C_3   0.229599 0.831515 0.885821 -0.760497
H23   H     H_    0.119242 0.806807 0.910909 0.232286
H24   H     H_    0.188084 0.832283 0.840376 0.183525
H25   H     H_    0.364482 0.805060 0.889927 0.219949
O26   O     O_3   0.695004 0.104507 0.034246 -0.554727
C67   C     C_3   0.744194 0.101747 0.092327 0.095588
H26   H     H_    0.876658 0.074396 0.097697 0.149763
H27   H     H_    0.635247 0.079005 0.119435 0.156143
C68   C     C_3   0.770443 0.168493 0.114176 -0.760490
H28   H     H_    0.635572 0.194953 0.110064 0.219950
H29   H     H_    0.811949 0.167727 0.159621 0.183526
H30   H     H_    0.880816 0.193193 0.089087 0.232284
O27   O     O_3   0.694833 0.104521 0.465714 -0.554720
C69   C     C_3   0.744003 0.101739 0.407634 0.095532
H31   H     H_    0.635041 0.078988 0.380536 0.156138
H32   H     H_    0.876458 0.074383 0.402268 0.149735
C70   C     C_3   0.770253 0.168476 0.385762 -0.760377
H33   H     H_    0.880594 0.193190 0.410853 0.232314
H34   H     H_    0.811805 0.167691 0.340322 0.183524
H35   H     H_    0.635366 0.194931 0.389850 0.219914
O28   O     O_3   0.305160 0.895477 0.534286 -0.554719
C71   C     C_3   0.255987 0.898257 0.592366 0.095527
H36   H     H_    0.123539 0.925617 0.597733 0.149737
H37   H     H_    0.364955 0.921003 0.619465 0.156137
C72   C     C_3   0.229718 0.831520 0.614235 -0.760375
H38   H     H_    0.364592 0.805059 0.610139 0.219923
H39   H     H_    0.188191 0.832304 0.659678 0.183522
H40   H     H_    0.119353 0.806813 0.589148 0.232307
O29   O     O_3   0.189646 0.549751 0.590797 -0.554730
C73   C     C_3   0.236750 0.613568 0.582490 0.089326
H41   H     H_    0.125973 0.640840 0.559863 0.157935
H42   H     H_    0.367988 0.617269 0.556845 0.149338
C74   C     C_3   0.264948 0.644047 0.640340 -0.743664
H43   H     H_    0.375551 0.618542 0.664662 0.232170
H44   H     H_    0.307703 0.693826 0.635127 0.184153
H45   H     H_    0.130781 0.642474 0.664940 0.224065
O30   O     O_3   0.810347 0.450250 0.409205 -0.554730
C75   C     C_3   0.763238 0.386435 0.417513 0.089325
H46   H     H_    0.631996 0.382736 0.443157 0.149344
H47   H     H_    0.874011 0.359163 0.440141 0.157932
C76   C     C_3   0.735041 0.355953 0.359664 -0.743667
H48   H     H_    0.869215 0.357519 0.335067 0.224058
H49   H     H_    0.692264 0.306177 0.364878 0.184155
H50   H     H_    0.624455 0.381462 0.335338 0.232174
O31   O     O_3   0.811400 0.450143 0.090939 -0.554721
C77   C     C_3   0.764590 0.386299 0.082669 0.089314
H51   H     H_    0.875533 0.359073 0.060074 0.157920
H52   H     H_    0.633412 0.382507 0.057008 0.149115
C78   C     C_3   0.736447 0.355855 0.140535 -0.743783
H53   H     H_    0.625820 0.381366 0.164841 0.232295
H54   H     H_    0.693731 0.306069 0.135352 0.184183
H55   H     H_    0.870631 0.357466 0.165129 0.224091
O32   O     O_3   0.188585 0.549860 0.909059 -0.554718
C79   C     C_3   0.235375 0.613706 0.917328 0.089313
H56   H     H_    0.366551 0.617502 0.942989 0.149105
H57   H     H_    0.124426 0.640928 0.939922 0.157922
C80   C     C_3   0.263506 0.644149 0.859461 -0.743790
H58   H     H_    0.129322 0.642533 0.834868 0.224095
H59   H     H_    0.306207 0.693937 0.864644 0.184185
H60   H     H_    0.374142 0.618642 0.835156 0.232300
O33   O     O_3   0.689397 0.950185 0.909186 -0.554734
C81   C     C_3   0.736453 0.886367 0.917515 0.089340
H61   H     H_    0.625647 0.859118 0.940148 0.157938
H62   H     H_    0.867683 0.882661 0.943164 0.149278
C82   C     C_3   0.764643 0.855860 0.859677 -0.743648
H63   H     H_    0.875229 0.881356 0.835344 0.232195
H64   H     H_    0.807419 0.806084 0.864908 0.184099
H65   H     H_    0.630467 0.857422 0.835079 0.224060
O34   O     O_3   0.310619 0.049818 0.090818 -0.554734
C83   C     C_3   0.263565 0.113636 0.082490 0.089332
H66   H     H_    0.132331 0.117343 0.056842 0.149283
H67   H     H_    0.374368 0.140885 0.059855 0.157934
C84   C     C_3   0.235389 0.144144 0.140328 -0.743651
H68   H     H_    0.369571 0.142583 0.164923 0.224057
H69   H     H_    0.192610 0.193920 0.135097 0.184102
H70   H     H_    0.124810 0.118648 0.164664 0.232200
O35   O     O_3   0.310465 0.049756 0.409185 -0.554733
C85   C     C_3   0.263374 0.113575 0.417483 0.089325
H71   H     H_    0.374169 0.140846 0.440100 0.157941
H72   H     H_    0.132150 0.117287 0.443134 0.149312
C86   C     C_3   0.235151 0.144043 0.359630 -0.743687
H73   H     H_    0.124587 0.118521 0.335309 0.232197
H74   H     H_    0.192330 0.193817 0.364834 0.184167
H75   H     H_    0.369327 0.142481 0.335033 0.224049
O36   O     O_3   0.689531 0.950241 0.590818 -0.554732
C87   C     C_3   0.736612 0.886421 0.582520 0.089320
H76   H     H_    0.867842 0.882706 0.556873 0.149313
H77   H     H_    0.625819 0.859152 0.559900 0.157938
C88   C     C_3   0.764812 0.855951 0.640374 -0.743686
H78   H     H_    0.630636 0.857523 0.664971 0.224055
H79   H     H_    0.807600 0.806174 0.635170 0.184165
H80   H     H_    0.875393 0.881466 0.664695 0.232195
H81   H     H_    0.677778 0.468075 0.531088 0.165684
H82   H     H_    0.322219 0.531926 0.468913 0.165686
H83   H     H_    0.322219 0.532193 0.030863 0.165696
H84   H     H_    0.677776 0.467807 0.969136 0.165689
H85   H     H_    0.177790 0.031993 0.968956 0.165683
H86   H     H_    0.822223 0.968010 0.031048 0.165681
H87   H     H_    0.822227 0.968040 0.468942 0.165686
H88   H     H_    0.177772 0.031958 0.531061 0.165682

loop_
_geom_bond_atom_site_label_1
_geom_bond_atom_site_label_2
_ccdc_geom_bond_type
O17   V3    S    
C85   H72   S    
C10   O30   S    
O18   V4    S    
C76   H48   S    
C16   C47   S    
O12   V1    S    
O19   V1    S    
O32   C79   S    
C40   H87   S    
C69   H32   S    
C10   C18   S    
C66   H24   S    
C47   C55   S    
C65   H21   S    
C59   H6    S    
C12   C43   S    
C74   H43   S    
O15   V4    S    
C78   H53   S    
C58   H3    S    
O16   V3    S    
C15   O35   S    
O11   C3    A    
C12   O32   S    
C11   O31   S    
C87   H77   S    
C24   O28   S    
C23   O27   S    
O7    C6    A    
O8    V1    S    
C11   C35   S    
C27   C51   T    
C17   C34   S    
C73   H41   S    
C74   H44   S    
C20   C44   S    
C81   H62   S    
C58   H5    S    
C85   C86   S    
C46   C54   S    
C63   H16   S    
C20   C35   S    
C42   C50   S    
O23   C61   S    
C21   C38   S    
O1    V3    S    
C41   C49   S    
C38   C46   S    
O3    C2    A    
O2    V4    S    
O36   C87   S    
C62   H14   S    
C84   H69   S    
C60   H9    S    
C64   H19   S    
C35   C43   S    
O25   C65   S    
C45   C53   S    
C34   C42   S    
C83   C84   S    
O11   V2    S    
C87   C88   S    
C68   H30   S    
C15   C48   S    
C22   O26   S    
C39   H88   S    
C11   C19   S    
C75   H47   S    
C59   C60   S    
O9    V1    S    
O15   C7    A    
C85   H71   S    
C14   C45   S    
O16   C8    A    
O7    V2    S    
C80   H58   S    
C13   C46   S    
C66   H25   S    
C83   H67   S    
C70   H34   S    
C78   H54   S    
C24   C48   S    
C18   C33   S    
C9    C42   S    
O29   C73   S    
C73   H42   S    
C67   H26   S    
C82   H64   S    
O17   V1    S    
C65   C66   S    
O22   C59   S    
C14   C22   S    
C87   H76   S    
C22   C37   S    
O19   V3    S    
C84   H70   S    
O4    V3    S    
C62   H13   S    
C81   H61   S    
O20   V4    S    
C18   C42   S    
C34   H81   S    
C75   C76   S    
C64   H20   S    
O14   V4    S    
C23   C40   S    
C7    C26   S    
C17   C41   S    
C12   C36   S    
C82   H63   S    
C21   C45   S    
C57   H1    S    
O21   C57   S    
C24   C39   S    
C86   H75   S    
C29   C53   T    
C70   H35   S    
C73   C74   S    
C31   C55   T    
O10   V2    S    
C59   H7    S    
C86   H73   S    
C17   O21   S    
O12   C4    A    
O8    C5    A    
C75   H46   S    
O13   C5    A    
C60   H8    S    
C44   C52   S    
O9    C1    A    
C86   H74   S    
C68   H29   S    
C1    C32   S    
C23   C47   S    
O26   C67   S    
C80   H59   S    
C71   H37   S    
C19   C36   S    
O33   C81   S    
O4    C1    A    
C2    C31   S    
C3    C30   S    
C19   C43   S    
C78   H55   S    
O6    V2    S    
C39   C47   S    
C61   H11   S    
C60   H10   S    
C57   H2    S    
C10   C41   S    
C68   H28   S    
C38   H85   S    
C25   C49   T    
C74   H45   S    
C69   C70   S    
C43   C51   S    
C37   H86   S    
C13   C21   S    
C57   C58   S    
O5    V1    S    
C13   O33   S    
C35   H84   S    
C20   O24   S    
C15   C23   S    
O27   C69   S    
O24   C63   S    
C88   H80   S    
C37   C45   S    
C84   H68   S    
C16   C24   S    
C88   H78   S    
C33   H82   S    
O1    C4    A    
C9    C33   S    
C13   C37   S    
C82   H65   S    
O2    C3    A    
C77   C78   S    
O13   V3    S    
C19   O23   S    
C33   C41   S    
C4    C29   S    
C28   C52   T    
C71   C72   S    
C16   C40   S    
C65   H22   S    
O18   V2    S    
C72   H40   S    
C76   H50   S    
C77   H51   S    
C14   O34   S    
C15   C39   S    
O28   C71   S    
C61   H12   S    
C32   C56   T    
C61   C62   S    
C18   O22   S    
C9    C17   S    
O14   C6    A    
C67   C68   S    
C72   H39   S    
C69   H31   S    
C83   H66   S    
C48   C56   S    
C77   H52   S    
O31   C77   S    
C66   H23   S    
C26   C50   T    
O34   C83   S    
C70   H33   S    
O5    C8    A    
C63   H17   S    
C11   C44   S    
O10   C2    A    
O6    C7    A    
C8    C25   S    
O20   V2    S    
C80   H60   S    
C40   C48   S    
O3    V4    S    
C36   H83   S    
C22   C46   S    
C81   C82   S    
C12   C20   S    
C71   H36   S    
C21   O25   S    
C58   H4    S    
C16   O36   S    
C36   C44   S    
C76   H49   S    
O35   C85   S    
C79   H56   S    
C64   H18   S    
C10   C34   S    
C62   H15   S    
C79   H57   S    
C30   C54   T    
O30   C75   S    
C72   H38   S    
C88   H79   S    
C67   H27   S    
C63   C64   S    
C5    C28   S    
C9    O29   S    
C6    C27   S    
C14   C38   S    
C79   C80   S    
