data_mof_unit_61141.cif
_audit_creation_date              2012-12-10T19:18:17-0500
_audit_creation_method            fapswitch 2.2
_symmetry_space_group_name_H-M    P1
_symmetry_Int_Tables_number       1
_space_group_crystal_system       triclinic
_cell_length_a                    15.886858
_cell_length_b                    16.006032
_cell_length_c                    14.768759
_cell_angle_alpha                 90.038865
_cell_angle_beta                  90.022677
_cell_angle_gamma                 89.990701
_cell_volume                      3755.48090887

loop_
_atom_site_label
_atom_site_type_symbol
_atom_type_description
_atom_site_fract_x
_atom_site_fract_y
_atom_site_fract_z
_atom_type_partial_charge
C1    C     C_R   0.500025 0.340865 0.499946 0.818300
C2    C     C_R   0.499975 0.659135 0.500054 0.818300
C3    C     C_R   0.499956 0.912737 0.500937 0.067242
C4    C     C_R   0.500044 0.087263 0.499063 0.067242
C5    C     C_R   0.502305 0.955586 0.418434 -0.380386
C6    C     C_R   0.497695 0.044414 0.581566 -0.380386
C7    C     C_1   0.499960 0.823192 0.500472 0.051076
C8    C     C_1   0.500040 0.176808 0.499528 0.051076
C9    C     C_1   0.500034 0.251806 0.499815 -0.165746
C10   C     C_1   0.499966 0.748194 0.500185 -0.165747
C11   C     C_R   0.556137 0.550739 0.952166 -0.150247
C12   C     C_R   0.443863 0.449261 0.047834 -0.150247
C13   C     C_R   0.499980 0.500014 0.902865 0.049881
C14   C     C_R   0.500019 0.499986 0.097135 0.049881
C15   C     C_R   0.443844 0.449275 0.952051 -0.157336
C16   C     C_R   0.556156 0.550724 0.047949 -0.157336
C17   C     C_1   0.499970 0.500020 0.802716 0.123051
C18   C     C_1   0.500030 0.499980 0.197284 0.123051
C19   C     C_R   0.339402 0.499987 0.499976 0.826145
C20   C     C_R   0.660597 0.500013 0.500024 0.826145
C21   C     C_3   0.971826 0.430340 0.541640 -0.196576
C22   C     C_3   0.028174 0.569660 0.458360 -0.196566
C23   C     C_3   0.028186 0.431691 0.455703 -0.196557
C24   C     C_3   0.971814 0.568310 0.544296 -0.196550
C25   C     C_1   0.249807 0.499987 0.499932 -0.172874
C26   C     C_1   0.750193 0.500013 0.500068 -0.172874
C27   C     C_3   0.027522 0.498661 0.584869 0.211091
C28   C     C_3   0.972478 0.501340 0.415130 0.211078
C29   C     C_3   0.082798 0.499995 0.499910 0.106172
C30   C     C_3   0.917202 0.500005 0.500089 0.106169
C31   C     C_1   0.174362 0.499990 0.499871 -0.064936
C32   C     C_1   0.825638 0.500010 0.500129 -0.064937
C33   C     C_R   0.497630 0.956625 0.583197 0.439347
C34   C     C_R   0.502370 0.043375 0.416803 0.439348
Cu1   Cu    Cu3+1 0.500020 0.500000 0.589220 0.987062
Cu2   Cu    Cu3+1 0.499980 0.500000 0.410780 0.987062
H1    H     H_    0.052316 0.376108 0.418960 0.143174
H2    H     H_    0.947683 0.623892 0.581040 0.143171
H3    H     H_    0.947707 0.373637 0.576222 0.142779
H4    H     H_    0.052293 0.626364 0.423778 0.142778
H5    H     H_    0.495918 0.079358 0.644447 0.155276
H6    H     H_    0.504082 0.920642 0.355553 0.155276
H7    H     H_    0.600207 0.590518 0.083663 0.130856
H8    H     H_    0.399793 0.409482 0.916337 0.130856
H9    H     H_    0.600174 0.590541 0.916541 0.134247
H10   H     H_    0.399826 0.409459 0.083458 0.134247
N1    N     N_1   0.500030 0.499980 0.276710 -0.149866
N2    N     N_1   0.499970 0.500020 0.723290 -0.149866
O1    O     O_R   0.500040 0.380310 0.575320 -0.576313
O2    O     O_R   0.499960 0.619690 0.424680 -0.576313
O3    O     O_R   0.500000 0.380310 0.424640 -0.558214
O4    O     O_R   0.500000 0.619690 0.575360 -0.558214
O5    O     O_R   0.379100 0.499990 0.575330 -0.572597
O6    O     O_R   0.620900 0.500010 0.424670 -0.572597
O7    O     O_R   0.379060 0.499990 0.424640 -0.569803
O8    O     O_R   0.620940 0.500010 0.575360 -0.569803
C35   C     C_3   0.938521 0.502868 0.318396 -0.408460
C36   C     C_3   0.009773 0.503943 0.249246 -0.825873
H11   H     H_    0.049504 0.560379 0.258618 0.251601
H12   H     H_    0.049493 0.447225 0.256431 0.251770
H13   H     H_    0.982962 0.505049 0.179823 0.244086
H14   H     H_    0.898797 0.446707 0.307149 0.207830
H15   H     H_    0.898797 0.559361 0.309312 0.205615
C37   C     C_3   0.061480 0.497132 0.681601 -0.408474
C38   C     C_3   0.990226 0.496077 0.750749 -0.825877
H16   H     H_    0.950517 0.552803 0.743554 0.251768
H17   H     H_    0.950484 0.439648 0.741381 0.251605
H18   H     H_    0.017038 0.494974 0.820172 0.244092
H19   H     H_    0.101191 0.440630 0.690692 0.205615
H20   H     H_    0.101217 0.553285 0.692847 0.207833
O9    O     O_3   0.495336 0.912727 0.663665 -0.722884
H21   H     H_    0.493889 0.952954 0.714746 0.322073
O10   O     O_3   0.504664 0.087273 0.336335 -0.722884
H22   H     H_    0.506111 0.047046 0.285254 0.322073

loop_
_geom_bond_atom_site_label_1
_geom_bond_atom_site_label_2
_ccdc_geom_bond_type
C25   C31   T    
C7    C10   T    
C5    H6    S    
C26   C32   T    
C22   C29   S    
Cu1   O5    S    
O10   H22   S    
C14   C18   S    
Cu1   Cu2   S    
C17   N2    T    
C4    C8    S    
C18   N1    T    
C35   H14   S    
C28   C35   S    
C23   C29   S    
C15   H8    S    
C3    C7    S    
C27   C29   S    
C3    C33   A    
C36   H12   S    
Cu2   N1    S    
C2    O2    A    
C8    C9    T    
C38   H17   S    
C6    H5    S    
Cu1   O1    S    
C24   H2    S    
C24   C27   S    
C37   H20   S    
C20   O8    A    
C19   O5    A    
C36   H13   S    
C21   C27   S    
C22   C28   S    
C20   O6    A    
Cu1   N2    S    
C35   H15   S    
C21   C23   S    
C4    C34   A    
C1    C9    S    
C12   H10   S    
C36   H11   S    
C23   C28   S    
C11   C16   A    
C21   H3    S    
C12   C15   A    
C38   H18   S    
C22   H4    S    
C5    C34   A    
C37   H19   S    
C1    O3    A    
C16   H7    S    
Cu2   O3    S    
C2    O4    A    
C4    C6    A    
C12   C14   A    
C13   C15   A    
C22   C24   S    
C11   H9    S    
C2    C10   S    
Cu2   O2    S    
C19   O7    A    
Cu1   O8    S    
C3    C5    A    
C21   C30   S    
C6    C33   A    
C13   C17   S    
C37   C38   S    
C28   C30   S    
O9    H21   S    
C29   C31   S    
Cu2   O7    S    
C23   H1    S    
C30   C32   S    
C11   C13   A    
C35   C36   S    
C20   C26   S    
C14   C16   A    
C19   C25   S    
C24   C30   S    
Cu2   O6    S    
C27   C37   S    
C33   O9    S    
C34   O10   S    
C38   H16   S    
Cu1   O4    S    
C1    O1    A    
