data_mof_unit_22334.cif
_audit_creation_date              2012-12-11T14:32:51-0500
_audit_creation_method            fapswitch 2.2
_symmetry_space_group_name_H-M    P1
_symmetry_Int_Tables_number       1
_space_group_crystal_system       triclinic
_cell_length_a                    6.956834
_cell_length_b                    13.744604
_cell_length_c                    18.112256
_cell_angle_alpha                 111.972889
_cell_angle_beta                  95.100131
_cell_angle_gamma                 89.893676
_cell_volume                      1598.78925679

loop_
_atom_site_label
_atom_site_type_symbol
_atom_type_description
_atom_site_fract_x
_atom_site_fract_y
_atom_site_fract_z
_atom_type_partial_charge
O1    O     O_R   0.484560 0.544530 0.414330 -0.538567
O2    O     O_R   0.197040 0.638810 0.585080 -0.545471
O3    O     O_R   0.026800 0.455470 0.585670 -0.530061
C1    C     C_R   0.372764 0.679933 0.608587 0.666730
O4    O     O_R   0.155000 0.556150 0.414940 -0.539817
O5    O     O_R   0.984450 0.372220 0.414320 -0.529154
C2    C     C_R   0.318032 0.565236 0.386765 0.772172
O6    O     O_R   0.526900 0.627780 0.585680 -0.549661
O7    O     O_3   0.339170 0.439750 0.499990 -0.356189
V1    V     V_3+5 0.064350 0.511180 0.500000 1.452676
O8    O     O_R   0.654880 0.361190 0.414920 -0.529815
C3    C     C_R   0.817801 0.325400 0.385792 0.776002
O9    O     O_R   0.696930 0.443850 0.585060 -0.558837
C4    C     C_R   0.869491 0.406022 0.590865 0.742015
V2    V     V_3+5 0.564340 0.488820 0.500000 1.455180
O10   O     O_3   0.839390 0.560250 0.500010 -0.393845
C5    C     C_R   0.038972 0.840849 0.814870 -0.062627
C6    C     C_R   0.897804 0.357843 0.651003 -0.048113
C7    C     C_R   0.908544 0.784194 0.676740 -0.117536
C8    C     C_R   0.968202 0.760875 0.743472 -0.153797
C9    C     C_R   0.040471 0.944453 0.819985 -0.215682
C10   C     C_R   0.969336 0.970184 0.753775 0.103137
C11   C     C_R   0.911905 0.887956 0.681017 0.090904
C12   C     C_R   0.954293 0.075119 0.758453 0.065080
C13   C     C_R   0.913086 0.099517 0.687822 -0.012937
C14   C     C_R   0.868871 0.011558 0.613735 -0.040316
C15   C     C_R   0.860191 0.909258 0.612911 -0.253285
C16   C     C_R   0.967378 0.155705 0.833928 -0.168389
C17   C     C_R   0.971524 0.258196 0.842444 -0.169843
C18   C     C_R   0.969620 0.286458 0.776326 0.074734
C19   C     C_R   0.918233 0.209789 0.697719 0.066577
C20   C     C_R   0.005581 0.392195 0.788453 -0.043606
C21   C     C_R   0.967699 0.425510 0.725678 -0.180083
C22   C     C_R   0.871552 0.249911 0.635847 -0.184406
H1    H     H_    0.821128 0.843919 0.556870 0.135714
H2    H     H_    0.993788 0.506956 0.734398 0.136774
H3    H     H_    0.967415 0.315102 0.902426 0.158422
H4    H     H_    0.858407 0.721183 0.621736 0.159266
H5    H     H_    0.958452 0.680513 0.739493 0.104679
H6    H     H_    0.099774 0.002822 0.876144 0.102410
H7    H     H_    0.964507 0.141751 0.888599 0.124996
H8    H     H_    0.824530 0.045465 0.171491 0.199858
C23   C     C_2   0.127386 0.040993 0.179216 -0.311189
C24   C     C_2   0.958286 0.087032 0.201968 -0.165129
C25   C     C_2   0.818577 0.218503 0.321402 -0.231118
C26   C     C_2   0.941467 0.196143 0.261873 -0.065321
H9    H     H_    0.263790 0.081727 0.207268 0.198946
C27   C     C_R   0.404671 0.786637 0.674074 -0.051499
C28   C     C_R   0.543619 0.474309 0.825748 -0.053819
C29   C     C_R   0.514558 0.887812 0.812812 -0.138061
C30   C     C_R   0.471345 0.791733 0.750454 -0.133055
C31   C     C_R   0.390625 0.882169 0.660377 -0.205308
C32   C     C_R   0.437301 0.982825 0.723879 0.105407
C33   C     C_R   0.494166 0.982519 0.800906 0.119103
C34   C     C_R   0.431780 0.083462 0.714761 0.016022
C35   C     C_R   0.476800 0.179816 0.782742 0.077836
C36   C     C_R   0.516977 0.172958 0.858194 -0.157083
C37   C     C_R   0.529017 0.076703 0.866583 -0.223982
C38   C     C_R   0.384970 0.090649 0.639967 -0.201079
C39   C     C_R   0.379894 0.186955 0.629784 -0.059609
C40   C     C_R   0.429759 0.281942 0.696110 0.021729
C41   C     C_R   0.481801 0.279753 0.773322 0.092187
C42   C     C_R   0.434620 0.379207 0.686419 -0.126037
C43   C     C_R   0.488573 0.472723 0.749709 -0.152967
C44   C     C_R   0.540298 0.377979 0.837605 -0.174773
H10   H     H_    0.567017 0.076076 0.925768 0.124458
H11   H     H_    0.582324 0.382703 0.897543 0.098414
H12   H     H_    0.486168 0.544904 0.738905 0.096606
H13   H     H_    0.563762 0.888086 0.871332 0.138251
H14   H     H_    0.489740 0.720690 0.762277 0.094474
H15   H     H_    0.344819 0.875278 0.600165 0.110871
H16   H     H_    0.544000 0.241148 0.912462 0.130567
H17   H     H_    0.347965 0.020971 0.587664 0.187265
H18   H     H_    0.398957 0.385535 0.629529 0.183116
H19   H     H_    0.615099 0.590071 0.307267 0.161594
C45   C     C_2   0.315173 0.602896 0.319507 -0.335900
C46   C     C_2   0.476912 0.611000 0.285339 -0.087107
H20   H     H_    0.772404 0.635858 0.206126 0.129909
C47   C     C_2   0.634380 0.656033 0.183489 -0.324762
C48   C     C_2   0.472657 0.647592 0.217553 -0.117320
H21   H     H_    0.177379 0.623553 0.297058 0.123750
O11   O     O_R   0.421600 0.630430 0.917010 -0.514732
O12   O     O_R   0.793840 0.702190 0.087630 -0.544459
O13   O     O_R   0.964010 0.886170 0.088190 -0.539630
C49   C     C_R   0.631010 0.693273 0.115989 0.746821
O14   O     O_R   0.751460 0.619510 0.917500 -0.522810
O15   O     O_R   0.921330 0.802900 0.916840 -0.539569
C50   C     C_R   0.575818 0.579118 0.892999 0.689291
O16   O     O_R   0.464290 0.713700 0.088350 -0.546247
O17   O     O_3   0.609200 0.818520 0.002630 -0.381181
V3    V     V_3+5 0.884140 0.747190 0.002530 1.451676
O18   O     O_R   0.251150 0.814630 0.917340 -0.545015
C51   C     C_R   0.074795 0.817633 0.887227 0.737255
O19   O     O_R   0.293530 0.897310 0.087470 -0.535198
C52   C     C_R   0.129701 0.934778 0.114865 0.742258
V4    V     V_3+5 0.384070 0.769710 0.002370 1.441807
O20   O     O_3   0.109180 0.698190 0.002460 -0.348274
C53   C     C_2   0.090615 0.472318 0.864114 0.747229
O21   O     O_2   0.084058 0.563364 0.870481 -0.531488
O22   O     O_R   0.189383 0.446792 0.924844 -0.687918
H22   H     H_    0.239227 0.510400 0.973166 0.292836
C54   C     C_2   0.042365 0.282194 0.247364 0.789365
O23   O     O_2   0.202954 0.269635 0.223474 -0.563626
O24   O     O_R   0.949315 0.376081 0.257643 -0.671975
H23   H     H_    0.029129 0.426770 0.243145 0.281530
C55   C     C_2   0.700389 0.135772 0.333064 0.755914
O25   O     O_2   0.672281 0.144832 0.400945 -0.556414
O26   O     O_R   0.617096 0.049913 0.268249 -0.676564
H24   H     H_    0.539983 0.000710 0.285336 0.297952
C56   C     C_2   0.321273 0.182963 0.547391 0.821803
O27   O     O_2   0.214863 0.248042 0.536491 -0.575187
O28   O     O_R   0.374903 0.098819 0.481347 -0.606332
H25   H     H_    0.317695 0.101413 0.428647 0.318656
H26   H     H_    0.810858 0.202291 0.576902 0.159339
H27   H     H_    0.334314 0.668094 0.195433 0.149033
C57   C     C_2   0.837091 0.015622 0.533570 0.772214
O29   O     O_2   0.684069 0.982295 0.493077 -0.523757
O30   O     O_R   0.988466 0.045822 0.500561 -0.664179
H28   H     H_    0.953120 0.038775 0.443253 0.318895

loop_
_geom_bond_atom_site_label_1
_geom_bond_atom_site_label_2
_ccdc_geom_bond_type
C13   C19   A    
C34   C35   A    
C34   C38   A    
C4    C6    S    
O2    C1    A    
C7    C8    A    
C1    O6    A    
C21   H2    S    
O17   V3    S    
C32   C33   A    
C35   C36   A    
C26   C54   S    
C14   C15   A    
C29   C33   A    
C28   C44   A    
C43   H12   S    
O18   C51   A    
C16   C17   A    
C29   H13   S    
O15   V3    S    
O14   V3    S    
O5    C3    A    
C18   C19   A    
O14   C50   A    
C55   O25   D    
V2    O10   S    
C16   H7    S    
O18   V4    S    
C5    C8    A    
O26   H24   S    
C40   C42   A    
O30   H28   S    
O28   H25   S    
C56   O27   D    
O8    V2    S    
C37   H10   S    
C27   C30   A    
C57   O30   S    
C44   H11   S    
C23   C52   S    
O1    V2    S    
C30   H14   S    
C11   C15   A    
O7    V1    S    
C38   H17   S    
O19   V4    S    
C38   C39   A    
C28   C43   A    
O9    C4    A    
C28   C50   S    
C54   O23   D    
H8    C24   S    
O24   H23   S    
C24   C26   S    
C14   C57   S    
C45   C46   D    
C32   C34   A    
O11   V4    S    
C12   C13   A    
O4    C2    A    
C8    H5    S    
C49   O16   A    
H20   C47   S    
C15   H1    S    
C13   C14   A    
C25   C26   D    
C5    C9    A    
C42   C43   A    
C39   C40   A    
O13   C52   A    
C7    C11   A    
C23   C24   D    
C17   C18   A    
C7    H4    S    
H19   C46   S    
C48   H27   S    
V4    O20   S    
C29   C30   A    
C19   C22   A    
O19   C52   A    
C31   C32   A    
V3    O20   S    
C54   O24   S    
C6    C22   A    
O3    C4    A    
O12   C49   A    
O6    V2    S    
C53   O22   S    
O9    V2    S    
C10   C12   A    
C5    C51   S    
O2    V1    S    
C47   C49   S    
C25   C55   S    
C1    C27   S    
C33   C37   A    
C46   C48   S    
C41   C44   A    
O1    C2    A    
C12   C16   A    
C3    C25   S    
C45   H21   S    
O5    V1    S    
O8    C3    A    
O17   V4    S    
C2    C45   S    
C42   H18   S    
C22   H26   S    
O12   V3    S    
C20   C21   A    
O16   V4    S    
O7    V2    S    
O4    V1    S    
O3    V1    S    
V1    O10   S    
C18   C20   A    
C36   C37   A    
C9    H6    S    
C55   O26   S    
O13   V3    S    
O11   C50   A    
O15   C51   A    
O22   H22   S    
C20   C53   S    
C57   O29   D    
C35   C41   A    
C36   H16   S    
C40   C41   A    
C6    C21   A    
C56   O28   S    
C39   C56   S    
C47   C48   D    
C27   C31   A    
C53   O21   D    
C17   H3    S    
C31   H15   S    
C10   C11   A    
C9    C10   A    
C23   H9    S    
