data_mof_unit_66778.cif
_audit_creation_date              2013-03-05T15:41:04-0500
_audit_creation_method            fapswitch 2.2
_symmetry_space_group_name_H-M    P1
_symmetry_Int_Tables_number       1
_space_group_crystal_system       triclinic
_cell_length_a                    8.857175
_cell_length_b                    15.050922
_cell_length_c                    15.571689
_cell_angle_alpha                 94.211765
_cell_angle_beta                  99.200239
_cell_angle_gamma                 93.163902
_cell_volume                      2038.87352314

loop_
_atom_site_label
_atom_site_type_symbol
_atom_site_description
_atom_site_fract_x
_atom_site_fract_y
_atom_site_fract_z
_atom_type_partial_charge
P1    P     P_3+3 0.947560 0.714050 0.560480 0.525348
O1    O     O_2   0.113690 0.728200 0.532750 -0.293339
O2    O     O_3   0.871900 0.612110 0.540440 -0.423851
O3    O     O_3   0.325660 0.668890 0.372600 -0.234015
O4    O     O_2   0.268921 0.821054 0.453327 -0.375099
O5    O     O_3   0.983897 0.763381 0.671331 -0.602146
O6    O     O_3   0.272728 0.832584 0.293376 -0.515614
C1    C     C_3   0.245830 0.833404 0.136527 -0.718473
H1    H     H_    0.126381 0.807536 0.133532 0.238640
P2    P     P_3+3 0.325150 0.423860 0.297970 0.521982
P3    P     P_3+3 0.854512 0.604043 0.215161 0.440250
O7    O     O_2   0.147570 0.451710 0.282630 -0.303578
O8    O     O_3   0.905540 0.621350 0.329600 -0.364656
O9    O     O_2   0.987401 0.551351 0.193154 -0.351354
O10   O     O_3   0.299642 0.307533 0.275027 -0.603544
O11   O     O_3   0.885706 0.700258 0.160814 -0.624308
C2    C     C_3   0.851002 0.780519 0.203205 0.956699
H2    H     H_    0.752557 0.769305 0.237754 -0.091122
C3    C     C_3   0.813168 0.850602 0.132607 -0.615523
H3    H     H_    0.896821 0.908741 0.147503 0.226478
C4    C     C_3   0.773418 0.266978 0.260256 0.841670
H4    H     H_    0.697487 0.319897 0.275410 -0.021533
C5    C     C_3   0.679238 0.190126 0.199680 0.097016
H5    H     H_    0.585615 0.164069 0.232533 0.122645
Ba1   Ba    Ba6+2 0.142880 0.544780 0.454020 1.649982
C6    C     C_3   0.010772 0.708341 0.739660 0.948498
C7    C     C_3   0.978794 0.753331 0.828125 -0.453269
H6    H     H_    0.853663 0.753873 0.827585 0.277207
C8    C     C_3   0.250534 0.262895 0.342271 0.270010
H7    H     H_    0.170913 0.302551 0.374875 0.037591
C9    C     C_3   0.163108 0.173700 0.304566 -0.556860
H8    H     H_    0.045878 0.185927 0.280733 0.220495
H9    H     H_    0.159460 0.125164 0.354878 0.190470
P4    P     P_3+3 0.862730 0.285940 0.439440 0.529621
O12   O     O_2   0.696600 0.271740 0.467230 -0.354296
O13   O     O_3   0.938380 0.387880 0.459490 -0.333632
O14   O     O_3   0.484630 0.331100 0.627330 -0.442641
O15   O     O_3   0.833607 0.228421 0.335541 -0.646176
P5    P     P_3+3 0.986658 0.363719 0.780801 0.433049
O16   O     O_3   0.389110 0.548970 0.605210 -0.294150
O17   O     O_3   0.904740 0.378630 0.670330 -0.346018
O18   O     O_2   0.881170 0.417896 0.832373 -0.407233
O19   O     O_3   0.939088 0.254719 0.805986 -0.639042
Ba2   Ba    Ba6+2 0.667290 0.455210 0.545900 1.663028
P6    P     P_3+3 0.366232 0.786317 0.386332 0.581836
C10   C     C_3   0.339403 0.806407 0.220959 1.120165
H10   H     H_    0.455839 0.839803 0.232598 -0.116267
H11   H     H_    0.288215 0.800996 0.079468 0.119940
O20   O     O_3   0.421180 0.451020 0.394720 -0.407686
C11   C     C_3   0.535539 0.773519 0.712417 0.825666
C12   C     C_3   0.484892 0.846415 0.776783 -0.010216
H12   H     H_    0.579052 0.859583 0.833700 0.197436
H13   H     H_    0.384555 0.820721 0.803131 0.113027
P7    P     P_3+3 0.492312 0.578336 0.717212 0.596132
O21   O     O_2   0.662730 0.548230 0.717350 -0.355288
O22   O     O_3   0.521161 0.693780 0.756251 -0.528551
C13   C     C_3   0.041838 0.193764 0.778931 0.823802
H14   H     H_    0.155506 0.228077 0.776257 0.052198
C14   C     C_3   0.076621 0.119661 0.844464 -0.019177
H15   H     H_    0.105205 0.060012 0.805726 0.135059
P8    P     P_3+3 0.444883 0.216121 0.627464 0.425027
C15   C     C_3   0.532770 0.273615 0.788307 0.295618
H16   H     H_    0.444198 0.321813 0.773150 0.106275
O23   O     O_2   0.566541 0.172135 0.580813 -0.366095
O24   O     O_3   0.491268 0.192007 0.737037 -0.573878
H17   H     H_    0.644987 0.302198 0.776313 0.179041
H18   H     H_    0.556545 0.330111 0.921018 0.184474
C16   C     C_3   0.539515 0.263100 0.885009 -0.753629
H19   H     H_    0.430300 0.231492 0.895513 0.298270
C17   C     C_R   0.016757 0.951344 0.546071 -0.144162
C18   C     C_R   0.831504 0.806515 0.502521 0.149758
C19   C     C_R   0.677023 0.776300 0.470621 -0.431043
C20   C     C_R   0.571059 0.831773 0.427675 0.112087
C21   C     C_R   0.616170 0.923201 0.422335 -0.231026
C22   C     C_R   0.765917 0.961302 0.459942 0.010662
C23   C     C_R   0.874948 0.904480 0.502946 -0.095648
C24   C     C_R   0.947176 0.101098 0.496209 -0.010462
C25   C     C_R   0.056320 0.044481 0.536730 0.094982
C26   C     C_R   0.984583 0.199292 0.501749 0.281903
C27   C     C_R   0.136036 0.231041 0.541912 -0.438076
C28   C     C_R   0.245984 0.173180 0.574856 0.193303
C29   C     C_R   0.205896 0.082188 0.571631 -0.122511
C30   C     C_R   0.804222 0.056731 0.457145 -0.153472
H20   H     H_    0.294889 0.040590 0.598097 0.153964
H21   H     H_    0.719775 0.098554 0.426891 0.189907
C31   C     C_R   0.272583 0.459908 0.772968 -0.571598
C32   C     C_R   0.191876 0.410459 0.826743 0.077042
C33   C     C_R   0.264662 0.405573 0.915382 0.483409
C34   C     C_R   0.389455 0.469471 0.952520 -0.070584
C35   C     C_R   0.431196 0.536083 0.897184 -0.135459
C36   C     C_R   0.401704 0.517101 0.803982 0.244584
C37   C     C_R   0.613714 0.510541 0.080796 0.419865
C38   C     C_R   0.670453 0.532520 0.171483 -0.048603
C39   C     C_R   0.429591 0.470668 0.209864 0.173061
C40   C     C_R   0.363382 0.467300 0.119681 0.433295
C41   C     C_R   0.456569 0.478974 0.052005 -0.223435
C42   C     C_R   0.583484 0.502613 0.232991 -0.613791
H22   H     H_    0.226890 0.463698 0.706887 0.223414
O25   O     O_3   0.337106 0.713035 0.211014 -0.599971
C43   C     C_3   0.469054 0.688333 0.179937 -0.406081
H23   H     H_    0.555530 0.676650 0.236529 0.156438
H24   H     H_    0.515146 0.734651 0.137091 0.095064
H25   H     H_    0.436518 0.628936 0.136685 0.166303
O26   O     O_3   0.624477 0.218426 0.116715 -0.648742
C44   C     C_3   0.481891 0.254689 0.115255 -0.166081
H26   H     H_    0.481215 0.302420 0.172291 0.115823
H27   H     H_    0.389961 0.201120 0.110614 0.165827
H28   H     H_    0.460589 0.291942 0.056932 0.218642
C45   C     C_2   0.777639 0.113800 0.184858 0.652777
H29   H     H_    0.802118 0.095233 0.120056 0.119786
O27   O     O_2   0.832691 0.072717 0.245643 -0.637127
C46   C     C_2   0.176552 0.691145 0.751577 0.145575
H30   H     H_    0.248168 0.693973 0.814272 0.044229
O28   O     O_2   0.229017 0.669738 0.687579 -0.538670
O29   O     O_3   0.904829 0.635328 0.719436 -0.623365
C47   C     C_3   0.969246 0.556509 0.699897 0.125287
H31   H     H_    0.047891 0.557437 0.651743 0.129835
H32   H     H_    0.875007 0.516019 0.664354 0.239368
H33   H     H_    0.020775 0.533033 0.761464 0.125663
C48   C     C_2   0.047313 0.847269 0.848175 0.505703
H34   H     H_    0.165988 0.863661 0.843756 0.022125
O30   O     O_2   0.970496 0.905446 0.873153 -0.579220
C49   C     C_2   0.036828 0.699191 0.902833 0.262495
H35   H     H_    0.115721 0.729062 0.959306 0.047624
O31   O     O_2   0.000610 0.619606 0.898470 -0.609035
C50   C     C_2   0.388073 0.246169 0.405782 0.468361
H36   H     H_    0.443899 0.301027 0.449462 0.099070
O32   O     O_2   0.439741 0.172845 0.408356 -0.546660
C51   C     C_2   0.221377 0.132857 0.227532 0.758248
H37   H     H_    0.162441 0.141260 0.162317 0.022378
O33   O     O_2   0.337508 0.092982 0.237387 -0.630287
O34   O     O_3   0.691173 0.790134 0.702991 -0.663740
C52   C     C_3   0.729642 0.880719 0.690908 -0.293060
H38   H     H_    0.739343 0.923115 0.752841 0.197808
H39   H     H_    0.651950 0.907939 0.637719 0.135219
H40   H     H_    0.842981 0.887076 0.672515 0.230139
C53   C     C_2   0.438381 0.775645 0.624647 0.420872
H41   H     H_    0.428065 0.838456 0.595792 0.021390
O35   O     O_2   0.384111 0.708726 0.580552 -0.469970
O36   O     O_3   0.445212 0.924945 0.736184 -0.679369
C54   C     C_3   0.455834 0.998144 0.799007 -0.004092
H42   H     H_    0.436762 0.979017 0.864222 0.097779
H43   H     H_    0.367851 0.044457 0.776362 0.201732
H44   H     H_    0.569950 0.033945 0.804877 0.160659
C55   C     C_2   0.253431 0.930781 0.126477 0.539719
H45   H     H_    0.362834 0.967073 0.128038 0.086185
O37   O     O_2   0.135622 0.968999 0.111067 -0.601742
C56   C     C_2   0.659130 0.887522 0.133857 0.462732
H46   H     H_    0.563608 0.869174 0.081507 0.067352
O38   O     O_2   0.638701 0.938200 0.194731 -0.638956
O39   O     O_3   0.984730 0.157544 0.692733 -0.656281
C57   C     C_3   0.846143 0.105518 0.688533 -0.163847
H47   H     H_    0.763538 0.137803 0.725250 0.179022
H48   H     H_    0.871757 0.039393 0.709983 0.096068
H49   H     H_    0.789285 0.093318 0.620664 0.207797
O40   O     O_3   0.206263 0.149365 0.907687 -0.622419
C58   C     C_3   0.261750 0.080948 0.959483 -0.079608
H50   H     H_    0.224366 0.090177 0.023631 0.196418
H51   H     H_    0.388059 0.087916 0.972376 0.177045
H52   H     H_    0.225494 0.012058 0.930188 0.124497
C59   C     C_2   0.940649 0.093049 0.887779 0.669524
H53   H     H_    0.835347 0.063534 0.849368 -0.031329
O41   O     O_2   0.948694 0.100746 0.967034 -0.560836
C60   C     C_2   0.668110 0.211059 0.921604 0.753630
H54   H     H_    0.783376 0.240153 0.928021 0.019088
O42   O     O_2   0.643875 0.138395 0.948337 -0.591999
O43   O     O_3   0.981634 0.809293 0.265634 -0.578523
C61   C     C_3   0.967121 0.891882 0.311144 -0.060576
H55   H     H_    0.033526 0.892080 0.377270 0.193333
H56   H     H_    0.846955 0.904727 0.315845 0.136727
H57   H     H_    0.021792 0.946810 0.280706 0.192139
C62   C     C_2   0.621341 0.693559 0.505096 0.665475
H58   H     H_    0.651939 0.685332 0.573845 0.078916
O44   O     O_2   0.551423 0.630637 0.461027 -0.549305
C63   C     C_2   0.503730 0.981039 0.378885 0.659754
H59   H     H_    0.534886 0.019797 0.327850 0.111846
O45   O     O_2   0.379803 0.988919 0.402445 -0.544538
C64   C     C_2   0.184224 0.326174 0.548244 0.623635
H60   H     H_    0.271537 0.352731 0.515103 -0.016500
O46   O     O_2   0.124560 0.378223 0.592231 -0.579300
C65   C     C_2   0.115281 0.911860 0.615580 0.589445
H61   H     H_    0.193722 0.864867 0.600659 0.100127
O47   O     O_2   0.118265 0.938985 0.691483 -0.637053
O48   O     O_3   0.714079 0.510470 0.021167 -0.647670
C66   C     C_3   0.752188 0.598299 0.002398 0.051573
H62   H     H_    0.873849 0.616683 0.025109 0.159061
H63   H     H_    0.689735 0.650519 0.033383 0.089013
H64   H     H_    0.732817 0.601284 0.930658 0.214850
O49   O     O_3   0.242291 0.329836 0.958698 -0.649944
C67   C     C_3   0.097815 0.321169 0.985414 0.052978
H65   H     H_    0.035203 0.260297 0.954302 0.171325
H66   H     H_    0.024885 0.377816 0.973356 0.130900
H67   H     H_    0.114968 0.308594 0.055400 0.157408
O50   O     O_3   0.206859 0.457575 0.101231 -0.639282
C68   C     C_3   0.146818 0.532317 0.062251 -0.104788
H68   H     H_    0.181294 0.544409 0.999816 0.109285
H69   H     H_    0.172023 0.594274 0.106385 0.208684
H70   H     H_    0.022981 0.516130 0.045285 0.205445
C69   C     C_2   0.433160 0.629582 0.936004 0.426954
H71   H     H_    0.376100 0.643839 0.991256 -0.005696
O51   O     O_2   0.500395 0.692013 0.910029 -0.576314
C70   C     C_2   0.652564 0.515391 0.324036 0.818973
H72   H     H_    0.666069 0.581750 0.354071 0.030314
O52   O     O_2   0.706010 0.454368 0.362796 -0.572160
C71   C     C_2   0.829054 0.817092 0.040723 0.633699
H73   H     H_    0.929164 0.783691 0.029791 0.022047
O53   O     O_2   0.733378 0.828761 0.977596 -0.574726
O54   O     O_3   0.897868 0.293812 0.219509 -0.680465
C72   C     C_3   0.866461 0.369523 0.176055 -0.093098
H74   H     H_    0.761317 0.360189 0.126479 0.136769
H75   H     H_    0.962253 0.386199 0.141509 0.212739
H76   H     H_    0.858611 0.422964 0.226502 0.183961

loop_
_geom_bond_atom_site_label_1
_geom_bond_atom_site_label_2
_geom_bond_distance
_ccdc_geom_bond_type
Ba2   O20   2.935929 S    
C1    H1    1.099615 S    
C32   C33   1.435873 A    
C67   H65   1.083709 S    
C6    C46   1.489746 S    
C17   C25   1.449478 A    
C20   C21   1.423676 A    
C3    H3    1.100984 S    
P5    C32   1.918242 S    
C42   C70   1.445999 S    
C10   O25   1.401155 S    
C66   H63   1.110923 S    
C46   O28   1.195964 D    
O3    Ba1   2.896210 S    
C13   H14   1.114090 S    
C11   C53   1.497615 S    
C49   H35   1.083728 S    
C63   O45   1.220741 D    
C65   H61   1.057674 S    
O48   C66   1.409189 S    
C51   O33   1.213657 D    
C44   H27   1.103822 S    
C6    C7    1.563739 S    
C50   H36   1.074113 S    
C70   O52   1.212432 D    
O6    P6    1.759100 S    
C4    O54   1.411691 S    
O40   C58   1.415458 S    
C28   C29   1.390931 A    
C56   O38   1.215295 D    
P1    O1    1.605939 D    
C31   C36   1.391327 A    
C45   O27   1.219701 D    
Ba1   O16   2.936686 S    
C55   H45   1.081670 S    
C18   C23   1.502414 A    
P3    O9    1.524421 D    
C61   H56   1.105021 S    
C49   O31   1.216954 D    
C24   C30   1.421210 A    
O29   C47   1.379356 S    
C37   C41   1.435334 A    
C72   H76   1.095319 S    
C47   H31   1.102352 S    
P6    C20   1.897005 S    
P4    O12   1.606415 D    
C10   H10   1.103945 S    
C6    O29   1.388572 S    
C46   H30   1.072455 S    
C67   H67   1.107741 S    
C55   O37   1.218071 D    
C16   H19   1.095457 S    
C54   H42   1.111352 S    
C61   H57   1.108768 S    
C4    O15   1.389066 S    
C40   C41   1.453264 A    
C62   O44   1.206325 D    
O54   C72   1.386290 S    
C2    H2    1.106930 S    
C52   H40   1.088254 S    
C50   O32   1.218748 D    
O39   C57   1.408850 S    
C9    H9    1.112657 S    
P4    O13   1.627804 S    
C19   C20   1.411724 A    
C68   H70   1.095725 S    
C12   O36   1.415894 S    
P3    C38   1.903490 S    
C24   C26   1.489811 A    
O50   C68   1.407065 S    
C14   H15   1.108306 S    
C58   H51   1.102282 S    
C11   O34   1.419973 S    
C8    C50   1.486825 S    
P1    Ba1   3.607612 S    
O8    Ba1   2.965449 S    
C39   C40   1.428804 A    
C1    C55   1.484329 S    
H18   C16   1.107921 S    
Ba1   Ba2   4.815828 S    
O26   C44   1.400748 S    
C59   O41   1.221294 D    
C48   O30   1.217076 D    
O10   C8    1.397746 S    
P5    O18   1.552617 D    
C1    C10   1.532242 S    
O3    P6    1.774345 S    
C16   C60   1.480550 S    
C33   O49   1.387216 S    
C5    C45   1.506141 S    
C44   H28   1.098391 S    
P7    O22   1.788857 S    
O2    Ba2   2.911104 S    
C21   C22   1.431541 A    
C15   H17   1.109874 S    
C12   H12   1.113525 S    
O6    C10   1.396046 S    
C64   H60   1.071422 S    
O2    Ba1   3.114387 S    
P4    Ba2   3.608241 S    
O36   C54   1.407265 S    
P5    O17   1.792072 S    
C70   H72   1.063431 S    
C65   O47   1.217480 D    
O43   C61   1.407567 S    
C7    C49   1.508579 S    
C31   C32   1.410787 A    
O11   C2    1.406489 S    
C66   H64   1.107394 S    
P5    O19   1.758914 S    
C35   C69   1.488300 S    
C39   C42   1.401443 A    
C11   C12   1.564011 S    
C24   C25   1.426068 A    
O4    P6    1.536778 D    
C43   H25   1.075585 S    
C11   O22   1.433083 S    
P1    O5    1.800596 S    
C58   H50   1.103261 S    
C12   H13   1.099836 S    
C27   C64   1.463004 S    
P8    O23   1.544504 D    
C22   C23   1.442546 A    
C1    H11   1.109737 S    
C8    H7    1.108060 S    
C14   C59   1.520508 S    
P4    C26   1.952785 S    
C53   O35   1.206812 D    
P3    O11   1.760746 S    
C25   C29   1.419177 A    
C17   C65   1.461473 S    
C64   O46   1.201981 D    
C9    H8    1.075930 S    
C7    C48   1.498198 S    
C57   H49   1.093308 S    
O16   Ba2   3.136102 S    
C5    H5    1.110113 S    
C15   H16   1.107312 S    
C43   H24   1.105348 S    
C72   H74   1.105761 S    
P1    C18   1.963087 S    
C56   H46   1.084978 S    
O12   Ba2   2.979483 S    
P2    O7    1.635233 D    
P2    Ba1   3.571053 S    
C61   H55   1.100862 S    
C30   H21   1.077253 S    
C57   H48   1.096843 S    
C40   O50   1.367476 S    
O16   P7    1.845270 S    
C4    C5    1.550854 S    
C37   O48   1.384306 S    
C52   H38   1.105285 S    
O17   Ba2   2.966220 S    
C26   C27   1.426888 A    
O13   Ba2   3.115141 S    
P2    O20   1.619158 S    
C35   C36   1.437301 A    
C38   C42   1.405088 A    
C62   H58   1.079454 S    
C69   O51   1.213355 D    
C51   H37   1.084605 S    
C53   H41   1.078321 S    
C71   H73   1.073702 S    
P7    O21   1.599469 D    
C60   H54   1.075002 S    
C67   H66   1.106773 S    
C15   O24   1.411893 S    
P4    O15   1.752058 S    
C27   C28   1.403349 A    
O14   P8    1.747063 S    
C14   O40   1.415914 S    
C54   H44   1.106082 S    
C58   H52   1.110502 S    
C2    O43   1.412263 S    
C44   H26   1.101530 S    
C29   H20   1.082423 S    
C3    C56   1.503727 S    
C47   H33   1.086226 S    
C15   C16   1.517684 S    
O7    Ba1   2.929053 S    
P2    O10   1.755762 S    
O14   Ba2   2.895667 S    
C54   H43   1.107121 S    
P7    C36   1.940906 S    
C9    C51   1.485883 S    
C63   H59   1.080945 S    
P8    C28   1.878133 S    
O25   C43   1.393061 S    
C17   C23   1.445340 A    
P3    O8    1.763219 S    
Ba2   O21   2.929346 S    
C22   C30   1.462884 A    
C66   H62   1.092540 S    
O5    C6    1.394720 S    
C59   H53   1.077879 S    
C34   C41   1.561179 S    
C13   O39   1.414090 S    
C60   O42   1.218602 D    
C37   C38   1.429076 A    
C72   H75   1.102040 S    
C47   H32   1.058768 S    
O34   C52   1.420289 S    
O1    Ba1   2.978922 S    
C69   H71   1.079633 S    
C5    O26   1.410307 S    
O49   C67   1.409748 S    
C31   H22   1.050648 S    
Ba1   O20   3.136955 S    
C13   C14   1.576312 S    
O19   C13   1.416117 S    
Ba1   O13   2.910565 S    
C68   H68   1.089206 S    
C2    C3    1.589023 S    
P8    O24   1.759272 S    
C21   C63   1.474499 S    
C18   C19   1.416513 A    
C33   C34   1.441389 A    
C8    C9    1.539692 S    
C45   H29   1.085617 S    
C7    H6    1.107479 S    
C3    C71   1.512462 S    
C52   H39   1.107282 S    
P2    C39   1.926181 S    
C48   H34   1.080498 S    
C43   H23   1.102704 S    
C57   H47   1.109290 S    
P1    O2    1.627825 S    
C34   C35   1.439500 A    
C4    H4    1.106640 S    
C71   O53   1.220928 D    
C19   C62   1.482350 S    
C68   H69   1.107036 S    
