data_mof_unit_12326.cif
_audit_creation_date              2012-12-10T18:43:09-0500
_audit_creation_method            fapswitch 2.2
_symmetry_space_group_name_H-M    P1
_symmetry_Int_Tables_number       1
_space_group_crystal_system       triclinic
_cell_length_a                    10.53982
_cell_length_b                    9.819779
_cell_length_c                    10.752561
_cell_angle_alpha                 90.019455
_cell_angle_beta                  90.035336
_cell_angle_gamma                 90.352224
_cell_volume                      1112.85481277

loop_
_atom_site_label
_atom_site_type_symbol
_atom_type_description
_atom_site_fract_x
_atom_site_fract_y
_atom_site_fract_z
_atom_type_partial_charge
C1    C     C_R   0.261291 0.499447 0.521082 0.906287
C2    C     C_R   0.931804 0.378228 0.590601 -0.013387
C3    C     C_R   0.870445 0.502383 0.563964 -0.165775
C4    C     C_R   0.130318 0.498701 0.565130 -0.165433
C5    C     C_R   0.936628 0.626923 0.581397 -0.090128
C6    C     C_R   0.068886 0.623593 0.589330 -0.032788
C7    C     C_R   0.542291 0.072174 0.601090 -0.065684
C8    C     C_R   0.456217 0.071674 0.399441 -0.038318
C9    C     C_R   0.542679 0.928330 0.600956 -0.015757
C10   C     C_R   0.456095 0.927719 0.399494 -0.047817
C11   C     C_2   0.133095 0.245260 0.607802 0.414594
C12   C     C_R   0.739091 0.500655 0.520318 0.905956
C13   C     C_2   0.859714 0.258874 0.639268 0.434676
C14   C     C_2   0.867676 0.756468 0.603069 0.412312
C15   C     C_2   0.140612 0.745600 0.634025 0.444903
C16   C     C_R   0.497272 0.499797 0.262466 0.958721
C17   C     C_R   0.502921 0.499883 0.737546 0.936278
C18   C     C_2   0.497895 0.384885 0.933006 -0.125058
C19   C     C_2   0.505083 0.385054 0.066865 -0.153939
C20   C     C_2   0.515302 0.499840 0.868891 -0.275418
C21   C     C_2   0.485726 0.499463 0.130999 -0.329906
C22   C     C_R   0.064113 0.374517 0.583967 -0.095932
H1    H     H_    0.479071 0.288159 0.887198 0.168219
H2    H     H_    0.880385 0.156341 0.608650 0.151284
H3    H     H_    0.789730 0.758686 0.668895 0.063362
H4    H     H_    0.115497 0.847194 0.604157 0.153468
H5    H     H_    0.525131 0.288923 0.112703 0.172710
H6    H     H_    0.542049 0.595830 0.911562 0.142344
H7    H     H_    0.457974 0.594701 0.088267 0.153331
H8    H     H_    0.575201 0.126507 0.682361 0.172022
H9    H     H_    0.420919 0.125841 0.319139 0.133080
H10   H     H_    0.576672 0.874264 0.681810 0.121880
H11   H     H_    0.420666 0.873047 0.319242 0.132777
H12   H     H_    0.214076 0.245085 0.670276 0.082623
N1    N     N_R   0.500000 0.857200 0.500000 -0.079516
N2    N     N_R   0.500000 0.142810 0.500000 -0.089282
O1    O     O_R   0.316770 0.614620 0.499990 -0.588305
O2    O     O_2   0.777791 0.275054 0.718035 -0.600761
O3    O     O_2   0.893552 0.859122 0.544076 -0.573752
O4    O     O_2   0.227213 0.733127 0.708621 -0.573707
O5    O     O_R   0.683230 0.614620 0.500010 -0.623834
O6    O     O_R   0.316800 0.385290 0.500000 -0.629744
O7    O     O_R   0.683200 0.385290 0.500000 -0.588905
O8    O     O_R   0.500000 0.614630 0.319080 -0.623317
O9    O     O_R   0.500000 0.614630 0.680920 -0.617829
O10   O     O_R   0.500030 0.385300 0.319080 -0.620943
O11   O     O_R   0.499970 0.385300 0.680920 -0.625401
O12   O     O_2   0.103763 0.140102 0.554138 -0.578497
Zn1   Zn    Zn3+2 0.500000 0.653120 0.500000 0.990152
Zn2   Zn    Zn3+2 0.500000 0.346880 0.500000 0.978156

loop_
_geom_bond_atom_site_label_1
_geom_bond_atom_site_label_2
_ccdc_geom_bond_type
O8    Zn1   S    
N1    Zn1   S    
O7    Zn2   S    
C2    C22   A    
C16   C21   S    
O9    Zn1   S    
O11   Zn2   S    
O1    Zn1   S    
C7    N2    A    
O10   Zn2   S    
C11   C22   S    
C1    O1    A    
C1    C4    S    
C2    C3    A    
C5    C14   S    
C7    H8    S    
C11   O12   D    
C10   N1    A    
O6    Zn2   S    
O5    Zn1   S    
C19   H5    S    
C19   C21   D    
C17   O9    A    
C10   H11   S    
C18   C20   D    
C14   H3    S    
C5    C6    A    
C14   O3    D    
C15   O4    D    
C4    C6    A    
C18   H1    S    
C7    C9    A    
C1    O6    A    
C17   C20   S    
N2    Zn2   S    
C12   O5    A    
C8    C10   A    
C18   C19   S    
C8    N2    A    
C16   O10   A    
C9    N1    A    
C2    C13   S    
C4    C22   A    
C15   H4    S    
C3    C12   S    
C20   H6    S    
C9    H10   S    
C6    C15   S    
C8    H9    S    
C21   H7    S    
C12   O7    A    
C16   O8    A    
C11   H12   S    
C13   O2    D    
C17   O11   A    
C13   H2    S    
C3    C5    A    
