data_mof_unit_53197.cif
_audit_creation_date              2012-12-11T15:47:04-0500
_audit_creation_method            fapswitch 2.2
_symmetry_space_group_name_H-M    P1
_symmetry_Int_Tables_number       1
_space_group_crystal_system       triclinic
_cell_length_a                    11.524225
_cell_length_b                    11.490723
_cell_length_c                    19.546366
_cell_angle_alpha                 90.349
_cell_angle_beta                  89.911075
_cell_angle_gamma                 60.171658
_cell_volume                      2245.38206311

loop_
_atom_site_label
_atom_site_type_symbol
_atom_type_description
_atom_site_fract_x
_atom_site_fract_y
_atom_site_fract_z
_atom_type_partial_charge
C1    C     C_R   0.640434 0.117446 0.599240 0.546235
C2    C     C_1   0.652999 0.149919 0.668586 0.003815
C3    C     C_R   0.649645 0.691277 0.187037 0.012335
C4    C     C_R   0.612445 0.745662 0.598594 0.546173
C5    C     C_R   0.530481 0.723671 0.221567 0.028908
C6    C     C_R   0.525427 0.733407 0.291160 0.042048
C7    C     C_R   0.744540 0.710471 0.293925 -0.156639
C8    C     C_R   0.750770 0.700394 0.222605 -0.150510
C9    C     C_3   0.444353 0.658945 0.222298 -0.264238
C10   C     C_3   0.441224 0.669401 0.299287 -0.274368
C11   C     C_R   0.635616 0.714699 0.328826 0.013715
C12   C     C_1   0.641136 0.703346 0.667922 0.004245
C13   C     C_R   0.160843 0.188400 0.187394 0.014427
C14   C     C_R   0.191654 0.274087 0.223858 0.021107
C15   C     C_R   0.216253 0.256953 0.292545 0.040982
C16   C     C_R   0.238473 0.146346 0.597590 0.547474
C17   C     C_R   0.204088 0.054115 0.290068 -0.163170
C18   C     C_R   0.180443 0.070290 0.219414 -0.163839
C19   C     C_3   0.118396 0.423790 0.231188 -0.257196
C20   C     C_3   0.146790 0.404143 0.307033 -0.269820
C21   C     C_R   0.211452 0.154304 0.328139 0.015752
C22   C     C_R   0.667380 0.175461 0.189932 -0.008100
C23   C     C_1   0.064445 0.234008 0.850989 0.001644
C24   C     C_R   0.754533 0.052485 0.221080 0.076431
C25   C     C_R   0.747475 0.036352 0.290043 0.006367
C26   C     C_R   0.551030 0.254568 0.298292 -0.157202
C27   C     C_R   0.557299 0.271620 0.227751 -0.169074
C28   C     C_R   0.643212 0.111326 0.401542 0.546157
C29   C     C_3   0.904889 0.970296 0.222545 0.099728
C30   C     C_3   0.895069 0.953682 0.298644 -0.196479
C31   C     C_R   0.653913 0.140281 0.330702 -0.000353
C32   C     C_R   0.025289 0.263106 0.921598 0.555897
C33   C     C_R   0.684056 0.604683 0.929513 0.540399
C34   C     C_1   0.134988 0.189465 0.721846 -0.029279
C35   C     C_R   0.708566 0.206621 0.930098 0.541652
C36   C     C_R   0.085797 0.234487 0.124326 0.554173
C37   C     C_R   0.680676 0.615923 0.123991 0.547996
C38   C     C_R   0.707382 0.209450 0.126091 0.543083
C39   C     C_R   0.614652 0.743425 0.400869 0.542811
C40   C     C_R   0.248477 0.138594 0.399822 0.543867
C41   C     C_1   0.670978 0.646419 0.860081 0.003437
C42   C     C_1   0.654957 0.683117 0.728348 -0.031021
C43   C     C_1   0.663986 0.666336 0.799605 -0.031522
C44   C     C_1   0.095522 0.212591 0.791349 -0.030024
C45   C     C_1   0.176059 0.170101 0.663723 0.000089
C46   C     C_1   0.678980 0.191210 0.860721 0.004585
C47   C     C_1   0.658737 0.167426 0.728968 -0.030453
C48   C     C_1   0.666047 0.180954 0.800276 -0.030173
Cr1   Cr    Cr6+3 0.404720 0.198220 0.499960 1.025398
Cr2   Cr    Cr6+3 0.698290 0.897110 0.500380 1.024985
Cr3   Cr    Cr6+3 0.396970 0.904720 0.499610 1.026415
Cr4   Cr    Cr6+3 0.926290 0.152010 0.028150 1.018163
Cr5   Cr    Cr6+3 0.921440 0.451830 0.027490 1.029704
Cr6   Cr    Cr6+3 0.626370 0.446880 0.028730 1.023491
H1    H     H_    0.826345 0.709438 0.321537 0.134684
H2    H     H_    0.210778 0.967436 0.315048 0.125589
H3    H     H_    0.010336 0.469233 0.219695 0.156410
H4    H     H_    0.055198 0.439036 0.338931 0.135237
H5    H     H_    0.468621 0.332137 0.327480 0.130925
H6    H     H_    0.957157 0.026580 0.209797 0.134139
H7    H     H_    0.961992 0.867176 0.138712 0.341896
H8    H     H_    0.927058 0.849219 0.314219 0.167211
H9    H     H_    0.345025 0.723357 0.198557 0.143071
H10   H     H_    0.167012 0.996428 0.191370 0.127514
H11   H     H_    0.170927 0.470266 0.205080 0.152894
H12   H     H_    0.216827 0.438085 0.324674 0.139723
H13   H     H_    0.482296 0.363214 0.204249 0.123955
H14   H     H_    0.936822 0.005172 0.330020 0.090757
H15   H     H_    0.840035 0.685533 0.196513 0.175911
H16   H     H_    0.496871 0.552958 0.204949 0.164297
H17   H     H_    0.340282 0.738724 0.320332 0.141834
H18   H     H_    0.495243 0.570314 0.324931 0.133291
O1    O     O_R   0.267750 0.231960 0.575440 -0.504588
O2    O     O_R   0.596230 0.579400 0.952760 -0.501112
O3    O     O_R   0.639160 0.321170 0.958690 -0.493005
O4    O     O_R   0.527290 0.186640 0.570530 -0.493820
O5    O     O_R   0.821370 0.124220 0.104400 -0.533676
O6    O     O_R   0.037020 0.167050 0.097880 -0.507357
O7    O     O_R   0.056310 0.349620 0.102920 -0.511555
O8    O     O_R   0.797790 0.564880 0.097980 -0.505773
O9    O     O_R   0.596000 0.584270 0.104310 -0.521512
O10   O     O_R   0.638950 0.325690 0.099180 -0.501599
O11   O     O_3   0.824700 0.350240 0.028120 -0.271510
O12   O     O_R   0.685950 0.784660 0.430010 -0.507895
O13   O     O_R   0.728110 0.003450 0.576380 -0.504650
O14   O     O_R   0.682980 0.789190 0.570500 -0.493367
O15   O     O_R   0.499300 0.771880 0.575540 -0.504672
O16   O     O_R   0.285350 0.030870 0.569740 -0.492682
O17   O     O_R   0.270960 0.227070 0.423890 -0.518603
O18   O     O_R   0.530270 0.182120 0.430040 -0.506370
O19   O     O_R   0.731320 0.998570 0.424830 -0.518926
O20   O     O_3   0.952808 0.848269 0.187236 -0.725485
O21   O     O_R   0.502510 0.767000 0.423980 -0.517846
O22   O     O_R   0.288320 0.026340 0.429250 -0.505832
O23   O     O_3   0.499990 0.000020 0.499980 -0.252420
O24   O     O_R   0.821590 0.119350 0.952850 -0.511198
O25   O     O_R   0.037230 0.162540 0.957390 -0.487568
O26   O     O_R   0.056530 0.344750 0.951370 -0.497150
O27   O     O_R   0.798000 0.560370 0.957490 -0.509391

loop_
_geom_bond_atom_site_label_1
_geom_bond_atom_site_label_2
_ccdc_geom_bond_type
C25   C31   A    
C19   C20   S    
C7    H1    S    
Cr1   O18   S    
Cr2   O12   S    
C7    C8    A    
C4    O15   A    
C35   O24   A    
C19   H3    S    
C7    C11   A    
C35   O3    A    
C8    H15   S    
C13   C18   A    
C20   H12   S    
Cr5   O7    S    
C39   O12   A    
C5    C6    A    
Cr2   O23   S    
C4    O14   A    
C22   C38   S    
Cr4   O25   S    
C32   O25   A    
C1    C2    S    
C24   C29   S    
C39   O21   A    
C12   C42   T    
Cr2   O13   S    
Cr6   O2    S    
C19   H11   S    
C40   O17   A    
C4    C12   S    
C9    C10   S    
H7    O20   S    
C10   H17   S    
C26   C31   A    
C13   C14   A    
C38   O10   A    
C41   C43   T    
C37   O9    A    
Cr4   O6    S    
Cr6   O11   S    
C1    O13   A    
C15   C20   S    
C37   O8    A    
C46   C48   T    
C16   O1    A    
Cr5   O8    S    
C34   C44   S    
C24   C25   A    
C13   C36   S    
C3    C8    A    
Cr3   O15   S    
C6    C11   A    
Cr5   O27   S    
C23   C44   T    
Cr6   O3    S    
C33   O27   A    
Cr3   O16   S    
Cr4   O11   S    
C5    C9    S    
C29   C30   S    
Cr2   O19   S    
C47   C48   S    
C29   H6    S    
C17   C18   A    
C26   C27   A    
Cr1   O4    S    
C34   C45   T    
Cr1   O23   S    
C11   C39   S    
C17   H2    S    
Cr3   O21   S    
C22   C27   A    
C30   H8    S    
Cr5   O26   S    
Cr1   O1    S    
C42   C43   S    
C20   H4    S    
Cr4   O5    S    
Cr6   O10   S    
C26   H5    S    
C25   C30   S    
Cr1   O17   S    
C9    H9    S    
C1    O4    A    
C14   C19   S    
C28   C31   S    
C40   O22   A    
C3    C5    A    
C36   O7    A    
C16   C45   S    
C6    C10   S    
C38   O5    A    
C2    C47   T    
Cr5   O11   S    
C33   C41   S    
C23   C32   S    
C36   O6    A    
C18   H10   S    
C21   C40   S    
C32   O26   A    
Cr4   O24   S    
C28   O19   A    
C22   C24   A    
Cr6   O9    S    
C17   C21   A    
C27   H13   S    
Cr2   O14   S    
Cr3   O22   S    
C9    H16   S    
C33   O2    A    
C15   C21   A    
C3    C37   S    
C16   O16   A    
C14   C15   A    
C28   O18   A    
C35   C46   S    
C29   O20   S    
C30   H14   S    
Cr3   O23   S    
C10   H18   S    
