data_mof_unit_19861.cif
_audit_creation_date              2012-12-10T18:12:36-0500
_audit_creation_method            fapswitch 2.2
_symmetry_space_group_name_H-M    P1
_symmetry_Int_Tables_number       1
_space_group_crystal_system       triclinic
_cell_length_a                    9.421927
_cell_length_b                    10.754939
_cell_length_c                    17.271487
_cell_angle_alpha                 89.591436
_cell_angle_beta                  86.282411
_cell_angle_gamma                 89.543571
_cell_volume                      1746.38210785

loop_
_atom_site_label
_atom_site_type_symbol
_atom_type_description
_atom_site_fract_x
_atom_site_fract_y
_atom_site_fract_z
_atom_type_partial_charge
C1    C     C_R   0.499643 0.740045 0.499801 0.781885
C2    C     C_R   0.525563 0.526550 0.266402 -0.050306
C3    C     C_3   0.378870 0.929320 0.559039 -0.139234
C4    C     C_R   0.481652 0.500381 0.650095 0.829016
C5    C     C_3   0.381567 0.073104 0.559249 -0.433741
C6    C     C_3   0.644931 0.926993 0.523252 -0.408457
C7    C     C_3   0.474878 0.930152 0.416807 -0.201775
C8    C     C_3   0.498220 0.878315 0.500078 0.045635
C9    C     C_3   0.500775 0.122233 0.500709 0.063730
C10   C     C_3   0.644698 0.069250 0.525889 -0.367793
C11   C     C_3   0.472174 0.075093 0.417936 -0.178672
C12   C     C_R   0.338089 0.507946 0.775849 -0.244144
C13   C     C_3   0.923047 0.400440 0.447405 -0.187446
C14   C     C_3   0.089871 0.394314 0.451477 -0.199276
C15   C     C_3   0.920027 0.618462 0.468656 -0.227465
C16   C     C_R   0.500222 0.260066 0.501862 0.796981
C17   C     C_3   0.908265 0.480734 0.578047 -0.002192
C18   C     C_3   0.087651 0.614809 0.466401 -0.173010
C19   C     C_3   0.075540 0.483065 0.578194 -0.223403
C20   C     C_R   0.518061 0.504831 0.350114 0.821023
C21   C     C_R   0.471526 0.504526 0.734910 -0.053255
C22   C     C_R   0.595384 0.507941 0.775449 -0.185173
C23   C     C_R   0.411369 0.602562 0.153241 0.019881
C24   C     C_R   0.586318 0.516260 0.855703 -0.198964
C25   C     C_R   0.453051 0.523320 0.896970 0.150578
C26   C     C_R   0.327885 0.517952 0.856644 0.276381
C27   C     C_1   0.391460 0.879027 0.638261 0.218708
C28   C     C_1   0.343948 0.883561 0.384572 0.212783
C29   C     C_1   0.575437 0.125812 0.357862 0.211356
C30   C     C_1   0.855706 0.363724 0.614384 0.243367
C31   C     C_3   0.139142 0.650700 0.908223 -0.648895
C32   C     C_1   0.288576 0.660917 0.122068 0.234079
C33   C     C_R   0.406425 0.576543 0.232326 -0.235413
C34   C     C_R   0.652045 0.505913 0.220999 -0.175934
C35   C     C_R   0.657254 0.530172 0.141565 -0.156147
C36   C     C_R   0.536476 0.575315 0.106921 0.126839
C37   C     C_2   0.443703 0.528997 0.982185 -0.174843
C38   C     C_2   0.542399 0.584706 0.022078 -0.248370
Cu1   Cu    Cu3+1 0.357600 0.500140 0.499960 0.910034
Cu2   Cu    Cu3+1 0.642400 0.499860 0.500040 0.923955
H1    H     H_    0.699700 0.504133 0.745302 0.151929
H2    H     H_    0.309897 0.597696 0.267605 0.160512
H3    H     H_    0.731082 0.895723 0.480430 0.172788
H4    H     H_    0.735212 0.104735 0.487630 0.180213
H5    H     H_    0.878205 0.308181 0.463782 0.154240
H6    H     H_    0.896932 0.416681 0.386237 0.148563
H7    H     H_    0.119519 0.302732 0.476264 0.144866
H8    H     H_    0.141268 0.398254 0.391743 0.152144
H9    H     H_    0.884615 0.639222 0.409695 0.157264
H10   H     H_    0.131660 0.627211 0.405584 0.166836
H11   H     H_    0.865716 0.557159 0.616171 0.101139
H12   H     H_    0.754315 0.510070 0.106620 0.142118
H13   H     H_    0.745838 0.469450 0.246633 0.152204
H14   H     H_    0.118160 0.397836 0.605804 0.150011
H15   H     H_    0.106470 0.562161 0.614594 0.136600
H16   H     H_    0.881395 0.696699 0.506324 0.143179
H17   H     H_    0.123325 0.695486 0.499693 0.154275
H18   H     H_    0.635010 0.627656 0.992696 0.156753
H19   H     H_    0.241327 0.505385 0.745264 0.141346
H20   H     H_    0.353570 0.484495 0.013210 0.183297
H21   H     H_    0.684165 0.514892 0.885228 0.139815
H22   H     H_    0.116946 0.468892 0.873691 0.245853
H23   H     H_    0.273335 0.899667 0.540712 0.131732
H24   H     H_    0.038333 0.649190 0.945261 0.230902
H25   H     H_    0.118393 0.694317 0.851463 0.218878
H26   H     H_    0.217635 0.707481 0.937414 0.260026
H27   H     H_    0.275937 0.108599 0.543304 0.162524
H28   H     H_    0.398011 0.109987 0.618142 0.171277
H29   H     H_    0.670722 0.888818 0.580792 0.183270
H30   H     H_    0.661530 0.099097 0.586036 0.200706
H31   H     H_    0.564672 0.895828 0.377217 0.132456
H32   H     H_    0.365705 0.111134 0.403502 0.130770
N1    N     N_3   0.856560 0.499750 0.498270 -0.140114
N2    N     N_3   0.143860 0.496700 0.498910 -0.129857
N3    N     N_1   0.401299 0.839424 0.700181 -0.293197
N4    N     N_1   0.241566 0.847982 0.358840 -0.319255
N5    N     N_1   0.656176 0.165742 0.310972 -0.293592
N6    N     N_1   0.815561 0.272393 0.643675 -0.334788
N7    N     N_2   0.191516 0.524985 0.896883 -0.455614
N8    N     N_1   0.189820 0.707871 0.097666 -0.290966
O1    O     O_R   0.379740 0.682430 0.499960 -0.592723
O2    O     O_R   0.620260 0.682190 0.500020 -0.601956
O3    O     O_R   0.365800 0.500150 0.613560 -0.598678
O4    O     O_R   0.606310 0.499910 0.613620 -0.592421
O5    O     O_R   0.379740 0.317810 0.499980 -0.601362
O6    O     O_R   0.620260 0.317570 0.500040 -0.581719
O7    O     O_R   0.393690 0.500090 0.386380 -0.593552
O8    O     O_R   0.634200 0.499850 0.386440 -0.591009

loop_
_geom_bond_atom_site_label_1
_geom_bond_atom_site_label_2
_ccdc_geom_bond_type
C31   H26   S    
C17   N1    S    
C24   H21   S    
C15   C18   S    
C1    C8    S    
Cu2   O4    S    
C35   C36   A    
Cu1   O7    S    
C5    H27   S    
C17   H11   S    
C7    C8    S    
C7    C11   S    
C33   H2    S    
C14   N2    S    
C9    C16   S    
C7    H31   S    
C13   H6    S    
C22   H1    S    
C1    O1    A    
C20   O7    A    
Cu2   N1    S    
C34   C35   A    
Cu1   N2    S    
Cu2   O6    S    
C25   C37   S    
C38   H18   S    
C12   H19   S    
C23   C33   A    
C9    C10   S    
C6    H29   S    
C2    C34   A    
C18   N2    S    
C13   C14   S    
C16   O6    A    
C17   C30   S    
C5    H28   S    
C27   N3    T    
C2    C20   S    
Cu2   O2    S    
H22   N7    S    
C24   C25   A    
Cu1   O1    S    
C3    C8    S    
Cu1   Cu2   S    
C11   H32   S    
C14   H8    S    
C1    O2    A    
C10   H4    S    
C12   C21   A    
C7    C28   S    
C12   C26   A    
C5    C9    S    
C37   C38   D    
C32   N8    T    
C18   H17   S    
C4    O4    A    
C19   H14   S    
C9    C11   S    
C10   H30   S    
C2    C33   A    
C15   N1    S    
C13   N1    S    
C6    H3    S    
C16   O5    A    
C22   C24   A    
Cu1   O5    S    
C28   N4    T    
C18   H10   S    
C19   H15   S    
C31   H25   S    
C31   H24   S    
C19   N2    S    
C3    C5    S    
C6    C10   S    
C6    C8    S    
C31   N7    S    
C14   H7    S    
C3    H23   S    
C26   N7    S    
C23   C32   S    
Cu2   O8    S    
C3    C27   S    
C25   C26   A    
Cu1   O3    S    
C15   H16   S    
C13   H5    S    
C4    C21   S    
C4    O3    A    
C20   O8    A    
C36   C38   S    
C17   C19   S    
C15   H9    S    
C37   H20   S    
C30   N6    T    
C29   N5    T    
C11   C29   S    
C34   H13   S    
C23   C36   A    
C35   H12   S    
C21   C22   A    
