data_mof_unit_22996.cif
_audit_creation_date              2013-03-05T15:54:49-0500
_audit_creation_method            fapswitch 2.2
_symmetry_space_group_name_H-M    P1
_symmetry_Int_Tables_number       1
_space_group_crystal_system       triclinic
_cell_length_a                    18.757432
_cell_length_b                    10.562147
_cell_length_c                    9.961047
_cell_angle_alpha                 89.703602
_cell_angle_beta                  90.499389
_cell_angle_gamma                 93.678254
_cell_volume                      1969.30909353

loop_
_atom_site_label
_atom_site_type_symbol
_atom_site_description
_atom_site_fract_x
_atom_site_fract_y
_atom_site_fract_z
_atom_type_partial_charge
O1    O     O_R   0.500000 0.316780 0.614690 -0.559021
O2    O     O_R   0.499990 0.316750 0.385360 -0.574465
C1    C     C_R   0.514791 0.265598 0.500356 0.982191
O3    O     O_R   0.398140 0.500000 0.614700 -0.614560
O4    O     O_R   0.398130 0.499970 0.385370 -0.576185
C2    C     C_R   0.366797 0.517833 0.499129 1.025524
Zn1   Zn    Zn3+2 0.500000 0.500020 0.653130 0.966543
Zn2   Zn    Zn3+2 0.500000 0.499980 0.346870 1.009736
O5    O     O_R   0.500010 0.683250 0.614640 -0.642716
O6    O     O_R   0.500000 0.683220 0.385310 -0.584297
O7    O     O_R   0.601870 0.500030 0.614630 -0.642237
O8    O     O_R   0.601860 0.500000 0.385300 -0.641397
C3    C     C_R   0.499392 0.742060 0.500732 0.884734
C4    C     C_R   0.635336 0.503516 0.500500 0.787158
C5    C     C_R   0.258401 0.573674 0.617994 -0.251563
H1    H     H_    0.281380 0.540761 0.710788 0.201017
C6    C     C_R   0.190067 0.615774 0.620587 -0.191907
H2    H     H_    0.160912 0.608337 0.713907 0.192391
C7    C     C_R   0.158066 0.658251 0.502745 -0.072384
C8    C     C_R   0.198900 0.673777 0.384809 0.262484
C9    C     C_R   0.268797 0.632438 0.382545 0.205416
C10   C     C_R   0.296041 0.571016 0.497602 -0.217218
N1    N     N_R   0.043510 0.647877 0.383598 -0.096453
N2    N     N_R   0.972816 0.631316 0.383155 -0.159219
C11   C     C_R   0.936108 0.632532 0.499597 0.271250
N3    N     N_R   0.972545 0.655988 0.615996 -0.168627
N4    N     N_R   0.043360 0.672827 0.616313 -0.162482
C12   C     C_R   0.080268 0.667636 0.500133 0.359856
C13   C     C_R   0.822278 0.586549 0.622205 -0.157501
H3    H     H_    0.849209 0.606123 0.717142 0.155069
C14   C     C_R   0.749781 0.549949 0.622775 -0.194713
H4    H     H_    0.722238 0.544495 0.717946 0.147688
C15   C     C_R   0.713092 0.524893 0.501482 -0.018046
C16   C     C_R   0.750280 0.533565 0.379961 -0.200273
H5    H     H_    0.723205 0.514864 0.284943 0.151866
C17   C     C_R   0.822716 0.570042 0.379396 -0.152334
H6    H     H_    0.849923 0.576795 0.283950 0.155962
C18   C     C_R   0.859181 0.598085 0.500385 0.091341
C19   C     C_R   0.571390 0.128250 0.739664 -0.129410
H7    H     H_    0.600131 0.220506 0.735713 0.142891
C20   C     C_R   0.569220 0.061883 0.859965 -0.121857
H8    H     H_    0.596474 0.104054 0.946481 0.136867
C21   C     C_R   0.529419 0.945278 0.869714 0.181814
C22   C     C_R   0.490298 0.897708 0.756439 0.178482
C23   C     C_R   0.510313 0.948029 0.627878 0.055055
C24   C     C_R   0.540141 0.072543 0.623975 0.054056
C25   C     C_R   0.538874 0.137762 0.502202 -0.173619
C26   C     C_R   0.547639 0.071212 0.383151 0.210286
H9    H     H_    0.536421 0.887774 0.295013 0.174492
C27   C     C_R   0.529781 0.941556 0.385057 -0.185479
C28   C     C_R   0.506964 0.879957 0.504154 -0.133736
H10   H     H_    0.606270 0.573244 0.125355 0.136267
C29   C     C_R   0.380300 0.391997 0.138886 0.329232
C30   C     C_R   0.315318 0.384119 0.071180 -0.206840
H11   H     H_    0.267992 0.357255 0.129033 0.198042
C31   C     C_R   0.315733 0.353083 0.935857 0.003761
C32   C     C_R   0.381164 0.373471 0.864936 0.305818
C33   C     C_R   0.440546 0.445284 0.927660 -0.011911
C34   C     C_R   0.440628 0.448563 0.071991 0.052101
N5    N     N_R   0.499340 0.498800 0.142780 -0.107061
C35   C     C_R   0.558256 0.540819 0.071802 -0.100449
H12   H     H_    0.605370 0.577206 0.876417 0.133266
C36   C     C_R   0.557924 0.542460 0.929233 -0.106167
N6    N     N_R   0.499320 0.498720 0.857170 -0.114908
C37   C     C_3   0.530043 0.873424 0.000687 -0.405528
C38   C     C_3   0.606465 0.842846 0.039306 -0.919435
H13   H     H_    0.628861 0.782298 0.961757 0.258654
H14   H     H_    0.642884 0.929204 0.048094 0.256199
H15   H     H_    0.606575 0.792985 0.137375 0.255252
H16   H     H_    0.506126 0.931202 0.078829 0.235064
H17   H     H_    0.497245 0.782385 0.994555 0.226671
C39   C     C_3   0.417146 0.828670 0.780800 -0.413348
C40   C     C_3   0.359327 0.863273 0.680061 -0.722781
H18   H     H_    0.358391 0.967926 0.669787 0.302370
H19   H     H_    0.368130 0.821145 0.580452 0.250296
H20   H     H_    0.306252 0.825746 0.716242 0.254345
H21   H     H_    0.420243 0.724427 0.786752 0.230815
H22   H     H_    0.397409 0.857112 0.880493 0.235895
N7    N     N_R   0.388671 0.289613 0.231233 0.237650
O9    O     O_R   0.341735 0.267831 0.325511 -0.356397
O10   O     O_R   0.423943 0.194953 0.190881 -0.403523
C41   C     C_3   0.254961 0.259982 0.888453 -0.290011
C42   C     C_3   0.202622 0.319678 0.793592 -0.799330
H23   H     H_    0.226523 0.333973 0.693033 0.292626
H24   H     H_    0.154076 0.254702 0.781570 0.256559
H25   H     H_    0.186347 0.410691 0.835073 0.260774
H26   H     H_    0.275637 0.174922 0.841305 0.255979
H27   H     H_    0.223574 0.221072 0.975284 0.213536
N8    N     N_R   0.394867 0.278585 0.768821 0.238391
O11   O     O_R   0.426844 0.180665 0.812258 -0.416013
O12   O     O_R   0.355214 0.265090 0.661291 -0.386321
N9    N     N_R   0.171241 0.738737 0.270792 0.239419
O13   O     O_R   0.152944 0.854833 0.283137 -0.348487
O14   O     O_R   0.153639 0.676143 0.162045 -0.331107
N10   N     N_R   0.314557 0.669489 0.272345 0.215230
O15   O     O_R   0.294657 0.644830 0.149437 -0.367870
O16   O     O_R   0.368491 0.750743 0.293046 -0.394288
C43   C     C_3   0.585578 0.132151 0.262749 -0.377931
C44   C     C_3   0.661297 0.182747 0.299382 -0.901641
H28   H     H_    0.660205 0.258113 0.376334 0.252298
H29   H     H_    0.692624 0.104676 0.338808 0.269601
H30   H     H_    0.688198 0.223639 0.208687 0.253395
H31   H     H_    0.590150 0.061827 0.183028 0.201557
H32   H     H_    0.556347 0.209033 0.216781 0.267813

loop_
_geom_bond_atom_site_label_1
_geom_bond_atom_site_label_2
_geom_bond_distance
_ccdc_geom_bond_type
C38   H14   1.107310 S    
C20   C21   1.402032 A    
C20   H8    1.081428 S    
C7    C8    1.411113 A    
C4    C15   1.461440 S    
C29   C34   1.415534 A    
C19   C20   1.384735 A    
C23   C24   1.396269 A    
Zn1   O7    1.952190 S    
C8    N9    1.434273 S    
N3    N4    1.328782 A    
C13   H3    1.082834 S    
C32   N8    1.426306 S    
C42   H23   1.106662 S    
C17   H6    1.082825 S    
C29   N7    1.431510 S    
H10   C35   1.080237 S    
O4    C2    1.301195 A    
O7    C4    1.302648 A    
C43   H32   1.103903 S    
C38   H15   1.107430 S    
C23   C28   1.428905 A    
C37   H16   1.107101 S    
C2    C10   1.473926 S    
C31   C32   1.425273 A    
Zn1   O5    1.970957 S    
C16   H5    1.083252 S    
C40   H18   1.110813 S    
C35   C36   1.420116 A    
O5    C3    1.291044 A    
C39   H22   1.112295 S    
C39   H21   1.107538 S    
C24   C25   1.392617 A    
C5    C10   1.398235 A    
N10   O15   1.299581 A    
C29   C30   1.385901 A    
C13   C18   1.403136 A    
N1    N2    1.326337 A    
C14   C15   1.403155 A    
N8    O12   1.301880 A    
Zn2   O8    1.945315 S    
C26   C27   1.388860 A    
C38   H13   1.107887 S    
C34   N5    1.380928 A    
C3    C28   1.454854 S    
C9    C10   1.421323 A    
C40   H19   1.107512 S    
O3    Zn1   1.945318 S    
C6    H2    1.082562 S    
C33   N6    1.398756 A    
C30   C31   1.389099 A    
C25   C26   1.397945 A    
N2    C11   1.354546 A    
O3    C2    1.306354 A    
C19   H7    1.083630 S    
N7    O10   1.301005 A    
C9    N10   1.436574 S    
C27   C28   1.406762 A    
C11   N3    1.356560 A    
C37   H17   1.109445 S    
N7    O9    1.302351 A    
N5    C35   1.365860 A    
O1    C1    1.302836 A    
C21   C22   1.417103 A    
H12   C36   1.080622 S    
C11   C18   1.465395 S    
C44   H28   1.109193 S    
C21   C37   1.506257 S    
C44   H30   1.110531 S    
N9    O14   1.301023 A    
C15   C16   1.401997 A    
N1    C12   1.355180 A    
C7    C12   1.468984 S    
C19   C24   1.403123 A    
C44   H29   1.110980 S    
O8    C4    1.302825 A    
C41   C42   1.520304 S    
C40   H20   1.110071 S    
C41   H26   1.109231 S    
C22   C23   1.427971 A    
C5    C6    1.383897 A    
C30   H11   1.084228 S    
C42   H24   1.110533 S    
O1    Zn1   1.974864 S    
C14   H4    1.083096 S    
O2    Zn2   1.970955 S    
C39   C40   1.531279 S    
O6    C3    1.310249 A    
O4    Zn2   1.952193 S    
N10   O16   1.299727 A    
C31   C41   1.530014 S    
C26   C43   1.518959 S    
C17   C18   1.404044 A    
O2    C1    1.299389 A    
C33   C34   1.438271 A    
C13   C14   1.389726 A    
C43   H31   1.097790 S    
Zn2   N5    2.032978 S    
C32   C33   1.445930 A    
C41   H27   1.112548 S    
C1    C25   1.450984 S    
N9    O13   1.301086 A    
C6    C7    1.398674 A    
C43   C44   1.526937 S    
C22   C39   1.532637 S    
C16   C17   1.388349 A    
C37   C38   1.534817 S    
Zn1   N6    2.032572 S    
C36   N6    1.364408 A    
C42   H25   1.109941 S    
C8    C9    1.408606 A    
Zn2   O6    1.974863 S    
H9    C27   1.076558 S    
N4    C12   1.356851 A    
N8    O11   1.298872 A    
C5    H1    1.081647 S    
