data_mof_unit_5098.cif
_audit_creation_date              2012-12-10T20:35:50-0500
_audit_creation_method            fapswitch 2.2
_symmetry_space_group_name_H-M    P1
_symmetry_Int_Tables_number       1
_space_group_crystal_system       triclinic
_cell_length_a                    15.754124
_cell_length_b                    10.679172
_cell_length_c                    9.866045
_cell_angle_alpha                 89.162888
_cell_angle_beta                  88.081878
_cell_angle_gamma                 90.946035
_cell_volume                      1658.52613632

loop_
_atom_site_label
_atom_site_type_symbol
_atom_type_description
_atom_site_fract_x
_atom_site_fract_y
_atom_site_fract_z
_atom_type_partial_charge
C1    C     C_R   0.505458 0.260275 0.500501 0.980942
C2    C     C_3   0.944060 0.382337 0.579491 0.800164
C3    C     C_3   0.917054 0.499485 0.488328 -0.245541
C4    C     C_3   0.947850 0.627264 0.554344 0.620074
C5    C     C_3   0.048305 0.636369 0.544291 0.756574
C6    C     C_1   0.825453 0.502069 0.486481 0.130762
C7    C     C_1   0.173817 0.503258 0.504503 0.150476
C8    C     C_1   0.249165 0.501431 0.505048 -0.124415
C9    C     C_R   0.515629 0.061230 0.621774 -0.126435
C10   C     C_R   0.523934 0.129899 0.501239 -0.202428
C11   C     C_R   0.553853 0.070276 0.382528 0.318508
C12   C     C_R   0.338178 0.499884 0.501912 0.904870
C13   C     C_R   0.547120 0.938610 0.377549 0.396574
C14   C     C_R   0.520442 0.871824 0.496850 -0.226119
C15   C     C_R   0.514240 0.933946 0.619244 -0.190503
C16   C     C_3   0.452255 0.920635 0.737996 0.226704
C17   C     C_3   0.453369 0.063969 0.741862 0.853867
C18   C     C_R   0.425961 0.485913 0.075973 0.182689
C19   C     C_R   0.572395 0.524410 0.067696 -0.115387
C20   C     C_R   0.572442 0.524227 0.923931 -0.158007
C21   C     C_R   0.425386 0.487142 0.933139 0.144867
C22   C     C_3   0.365787 0.376564 0.935070 0.265995
C23   C     C_R   0.504170 0.740131 0.498587 0.955067
C24   C     C_3   0.367575 0.375960 0.089629 0.129087
C25   C     C_R   0.661609 0.501405 0.497611 0.874357
C26   C     C_3   0.044065 0.395169 0.598718 0.686231
C27   C     C_3   0.055509 0.476774 0.355435 -0.576074
C28   C     C_3   0.957566 0.490939 0.338425 0.897922
C29   C     C_1   0.750231 0.502831 0.491272 -0.201471
C30   C     C_3   0.081603 0.503779 0.502873 -0.189888
H1    H     H_    0.480340 0.874472 0.827276 0.127534
H2    H     H_    0.631106 0.542311 0.118287 0.166459
H3    H     H_    0.631309 0.542102 0.867085 0.177851
H4    H     H_    0.395328 0.295216 0.885202 0.150349
H5    H     H_    0.397441 0.292155 0.135482 0.095376
H6    H     H_    0.093510 0.538876 0.284614 0.226753
H7    H     H_    0.074585 0.380384 0.327405 0.248987
N1    N     N_R   0.499430 0.499140 0.142800 -0.131384
N2    N     N_R   0.499430 0.499180 0.857150 -0.135822
O1    O     O_R   0.500010 0.316790 0.614690 -0.612048
O2    O     O_R   0.500000 0.316760 0.385350 -0.574820
O3    O     O_R   0.377150 0.500020 0.614720 -0.567576
O4    O     O_R   0.377140 0.499990 0.385380 -0.592105
O5    O     O_R   0.500000 0.683240 0.614650 -0.592736
O6    O     O_R   0.499990 0.683210 0.385310 -0.588503
O7    O     O_R   0.622860 0.500010 0.614620 -0.630875
O8    O     O_R   0.622850 0.499980 0.385280 -0.619909
Zn1   Zn    Zn3+2 0.500010 0.500020 0.653130 0.996265
Zn2   Zn    Zn3+2 0.499990 0.499980 0.346870 1.000775
O9    O     O_3   0.927686 0.267156 0.510835 -0.586959
C31   C     C_3   0.841751 0.224245 0.513996 -0.218586
H8    H     H_    0.799226 0.267129 0.591452 0.164712
H9    H     H_    0.840613 0.121814 0.534497 0.170409
H10   H     H_    0.814190 0.238879 0.413673 0.190323
O10   O     O_3   0.060669 0.425307 0.734239 -0.812635
H11   H     H_    0.122839 0.435034 0.741989 0.375470
O11   O     O_3   0.897441 0.388428 0.707180 -0.620640
C32   C     C_3   0.906128 0.285289 0.797285 -0.260528
H12   H     H_    0.956254 0.304714 0.870618 0.206022
H13   H     H_    0.916905 0.194820 0.747233 0.163281
H14   H     H_    0.845863 0.273856 0.857929 0.159316
O12   O     O_3   0.915901 0.730595 0.481864 -0.657490
H15   H     H_    0.855743 0.742812 0.511241 0.358045
O13   O     O_3   0.585799 0.141297 0.273542 -0.771769
H16   H     H_    0.617414 0.086452 0.210249 0.351871
O14   O     O_3   0.566305 0.876304 0.258444 -0.603435
C33   C     C_3   0.497426 0.887151 0.171095 -0.254253
H17   H     H_    0.436688 0.852959 0.220688 0.161326
H18   H     H_    0.510014 0.828155 0.081249 0.187199
H19   H     H_    0.490327 0.985089 0.134183 0.192227
O15   O     O_3   0.373241 0.866542 0.705748 -0.747984
H20   H     H_    0.356716 0.898926 0.615651 0.340090
O16   O     O_3   0.376069 0.117043 0.706779 -0.799427
H21   H     H_    0.334692 0.093862 0.781263 0.330014
O17   O     O_3   0.481754 0.110585 0.867934 -0.669997
C34   C     C_3   0.570814 0.125104 0.874111 -0.402708
H22   H     H_    0.595294 0.198170 0.800866 0.202519
H23   H     H_    0.603236 0.034657 0.857572 0.166026
H24   H     H_    0.586082 0.157446 0.976824 0.217466
O18   O     O_3   0.087394 0.283668 0.558581 -0.599977
C35   C     C_3   0.080185 0.181547 0.651330 -0.233546
H25   H     H_    0.073679 0.207827 0.759239 0.150021
H26   H     H_    0.139015 0.126337 0.641186 0.162972
H27   H     H_    0.027505 0.117918 0.623560 0.202683
O19   O     O_3   0.285685 0.408045 0.886229 -0.523961
C36   C     C_3   0.233534 0.299113 0.884010 -0.250211
H28   H     H_    0.230457 0.266738 0.778085 0.189915
H29   H     H_    0.168875 0.322774 0.921997 0.197934
H30   H     H_    0.254179 0.220013 0.949635 0.117034
O20   O     O_3   0.290252 0.409521 0.152570 -0.690162
H31   H     H_    0.260807 0.329866 0.179944 0.331749
O21   O     O_3   0.926971 0.381155 0.272014 -0.603962
C37   C     C_3   0.854957 0.399267 0.191582 -0.254586
H32   H     H_    0.875424 0.415687 0.084111 0.170069
H33   H     H_    0.813360 0.476396 0.225362 0.183767
H34   H     H_    0.815889 0.311982 0.193798 0.166692
O22   O     O_3   0.939819 0.603780 0.264462 -0.577415
C38   C     C_3   0.979769 0.612986 0.133512 -0.199575
H35   H     H_    0.031300 0.685084 0.134336 0.199655
H36   H     H_    0.932463 0.644851 0.060249 0.182611
H37   H     H_    0.006685 0.523756 0.095806 0.164313
O23   O     O_3   0.081646 0.671018 0.670410 -0.791136
H38   H     H_    0.056098 0.751978 0.696380 0.346079
O24   O     O_3   0.072491 0.724891 0.438089 -0.569758
C39   C     C_3   0.143201 0.802928 0.465099 -0.184125
H39   H     H_    0.196325 0.751099 0.509379 0.171543
H40   H     H_    0.123543 0.880557 0.532275 0.163963
H41   H     H_    0.167503 0.845637 0.367961 0.166744
O25   O     O_3   0.915520 0.636161 0.689893 -0.773706
H42   H     H_    0.951395 0.589524 0.752764 0.390440

loop_
_geom_bond_atom_site_label_1
_geom_bond_atom_site_label_2
_ccdc_geom_bond_type
C28   O22   S    
C4    O25   S    
C37   H32   S    
C23   O6    A    
C18   C21   A    
O16   H21   S    
C19   C20   A    
C34   H24   S    
O10   H11   S    
C3    C6    S    
C26   O10   S    
O22   C38   S    
O20   H31   S    
C2    O11   S    
C7    C8    T    
O8    Zn2   S    
N1    Zn2   S    
O19   C36   S    
C16   H1    S    
C39   H40   S    
C18   C24   S    
C3    C28   S    
C34   H23   S    
C12   O4    A    
C36   H29   S    
C32   H13   S    
C15   C16   S    
C4    O12   S    
C22   O19   S    
C12   O3    A    
C2    O9    S    
C1    O1    A    
C16   C17   S    
C9    C10   A    
C25   O8    A    
C32   H14   S    
O14   C33   S    
C5    O24   S    
C37   H33   S    
C7    C30   S    
C21   C22   S    
C27   C30   S    
C17   O16   S    
C16   O15   S    
C19   H2    S    
O2    Zn2   S    
O24   C39   S    
C35   H26   S    
C35   H25   S    
C13   O14   S    
C25   C29   S    
C22   H4    S    
C39   H41   S    
O7    Zn1   S    
C24   H5    S    
C33   H17   S    
C34   H22   S    
C28   O21   S    
C11   O13   S    
C20   N2    A    
C36   H28   S    
O4    Zn2   S    
C32   H12   S    
C26   O18   S    
C23   O5    A    
C31   H8    S    
C33   H18   S    
C14   C23   S    
O17   C34   S    
O12   H15   S    
C19   N1    A    
C21   N2    A    
O6    Zn2   S    
C8    C12   S    
O9    C31   S    
C2    C26   S    
O3    Zn1   S    
C20   H3    S    
C9    C17   S    
C26   C30   S    
C37   H34   S    
C38   H36   S    
C22   C24   S    
C3    C4    S    
C35   H27   S    
C5    C30   S    
C1    O2    A    
O1    Zn1   S    
C5    O23   S    
C1    C10   S    
O18   C35   S    
C36   H30   S    
C24   O20   S    
C27   H6    S    
C38   H37   S    
C39   H39   S    
C31   H10   S    
O13   H16   S    
C33   H19   S    
C2    C3    S    
C18   N1    A    
O15   H20   S    
O25   H42   S    
C11   C13   A    
O11   C32   S    
C27   H7    S    
O21   C37   S    
C9    C15   A    
O23   H38   S    
C10   C11   A    
C4    C5    S    
C6    C29   T    
C38   H35   S    
C27   C28   S    
C17   O17   S    
C14   C15   A    
C31   H9    S    
C13   C14   A    
C25   O7    A    
O5    Zn1   S    
N2    Zn1   S    
