data_mof_unit_58218.cif
_audit_creation_date              2012-12-10T17:11:46-0500
_audit_creation_method            fapswitch 2.2
_symmetry_space_group_name_H-M    P1
_symmetry_Int_Tables_number       1
_space_group_crystal_system       triclinic
_cell_length_a                    19.051507
_cell_length_b                    9.907827
_cell_length_c                    10.181208
_cell_angle_alpha                 89.879116
_cell_angle_beta                  90.052448
_cell_angle_gamma                 88.787019
_cell_volume                      1921.35919042

loop_
_atom_site_label
_atom_site_type_symbol
_atom_type_description
_atom_site_fract_x
_atom_site_fract_y
_atom_site_fract_z
_atom_type_partial_charge
C1    C     C_R   0.501094 0.255398 0.499941 0.957759
C2    C     C_R   0.853044 0.431673 0.515211 -0.029085
C3    C     C_2   0.417249 0.936692 0.415815 0.301970
C4    C     C_R   0.365651 0.495367 0.500165 0.878372
C5    C     C_2   0.424445 0.833644 0.501204 0.197628
C6    C     C_2   0.475746 0.032947 0.396859 0.261946
C7    C     C_2   0.490889 0.108227 0.503501 -0.460653
C8    C     C_2   0.554318 0.511786 0.931053 0.443396
C9    C     C_2   0.552485 0.464160 0.071257 0.595045
C10   C     C_R   0.486472 0.740315 0.500224 0.712068
C11   C     C_R   0.633989 0.498415 0.500048 0.891758
C12   C     C_R   0.289836 0.478889 0.502315 -0.007103
C13   C     C_R   0.254295 0.482166 0.622793 -0.163640
C14   C     C_R   0.183186 0.457265 0.627837 -0.173670
C15   C     C_R   0.146339 0.428853 0.512399 0.090669
C16   C     C_R   0.181754 0.425035 0.391611 -0.158425
C17   C     C_R   0.253138 0.450763 0.386551 -0.223460
C18   C     C_3   0.356564 0.829337 0.685914 0.155567
C19   C     C_3   0.315411 0.963005 0.691130 -0.855559
C20   C     C_3   0.521878 0.971008 0.199260 0.138237
C21   C     C_3   0.523406 0.006650 0.053814 -0.650759
C22   C     C_3   0.402907 0.638991 0.150499 0.320483
C23   C     C_R   0.928915 0.413870 0.519977 0.351552
C24   C     C_3   0.364308 0.743935 0.065776 -0.858656
C25   C     C_3   0.824965 0.200341 0.265229 0.101017
C26   C     C_3   0.784052 0.070911 0.249020 -0.786749
C27   C     C_3   0.330445 0.096469 0.344284 0.165289
C28   C     C_3   0.323249 0.126665 0.198123 -0.750016
C29   C     C_R   0.070399 0.413802 0.517724 0.280344
C30   C     C_R   0.822763 0.546696 0.574488 -0.214876
C31   C     C_R   0.751021 0.570895 0.566611 -0.109500
C32   C     C_R   0.709151 0.479562 0.500714 -0.066128
C33   C     C_R   0.738537 0.363527 0.443322 -0.219149
C34   C     C_R   0.811186 0.339951 0.446816 0.502229
H1    H     H_    0.281297 0.503521 0.713640 0.200009
H2    H     H_    0.326253 0.753155 0.740697 0.169809
H3    H     H_    0.264346 0.953379 0.639677 0.277779
H4    H     H_    0.305447 0.991197 0.795071 0.213636
H5    H     H_    0.345669 0.044314 0.643946 0.241867
H6    H     H_    0.492416 0.875876 0.208537 0.153023
H7    H     H_    0.576719 0.952439 0.233662 0.167781
H8    H     H_    0.552235 0.101054 0.037954 0.310990
H9    H     H_    0.550018 0.923960 0.998240 0.236662
H10   H     H_    0.469214 0.020186 0.015311 0.232577
H11   H     H_    0.694112 0.747475 0.992822 0.379678
H12   H     H_    0.478518 0.068163 0.600148 0.134393
H13   H     H_    0.363701 0.248775 0.805569 0.354056
H14   H     H_    0.696545 0.224492 0.022506 0.374671
H15   H     H_    0.403609 0.684426 0.248749 0.181561
H16   H     H_    0.373128 0.543794 0.151374 0.184059
H17   H     H_    0.307130 0.742211 0.086591 0.227756
H18   H     H_    0.383399 0.846416 0.087867 0.240786
H19   H     H_    0.373263 0.724676 0.960054 0.273361
H20   H     H_    0.875291 0.188208 0.211136 0.179097
H21   H     H_    0.795828 0.285787 0.216980 0.173316
H22   H     H_    0.732385 0.079993 0.298779 0.259960
H23   H     H_    0.157095 0.461013 0.722269 0.158688
H24   H     H_    0.775199 0.050996 0.143085 0.211559
H25   H     H_    0.814149 0.984334 0.292031 0.266700
H26   H     H_    0.364785 0.170918 0.392132 0.125671
H27   H     H_    0.277991 0.112751 0.389760 0.155266
H28   H     H_    0.283762 0.059716 0.153576 0.234390
H29   H     H_    0.306083 0.233273 0.183160 0.215031
H30   H     H_    0.374085 0.109811 0.147758 0.297449
H31   H     H_    0.154210 0.404687 0.300938 0.155766
H32   H     H_    0.279528 0.447452 0.292551 0.149671
H33   H     H_    0.854828 0.619082 0.625215 0.178101
H34   H     H_    0.728143 0.660237 0.612113 0.190005
H35   H     H_    0.704766 0.289762 0.399487 0.190127
H36   H     H_    0.407697 0.838786 0.738415 0.134548
N1    N     N_R   0.034438 0.369367 0.411853 -0.177697
N2    N     N_R   0.964735 0.369303 0.413018 -0.136834
N3    N     N_R   0.964828 0.455697 0.626632 -0.168913
N4    N     N_R   0.034399 0.455188 0.625637 -0.174077
N5    N     N_2   0.500750 0.501330 0.852150 -0.000652
N6    N     N_2   0.500770 0.501360 0.147810 0.023294
O1    O     O_R   0.499990 0.319060 0.613040 -0.552863
O2    O     O_3   0.490866 0.078557 0.271385 -0.536775
O3    O     O_2   0.685493 0.522198 0.840153 -0.267426
O4    O     O_2   0.606501 0.713544 0.784482 -0.333136
O5    O     O_3   0.653454 0.694799 0.022586 -0.560277
O6    O     O_2   0.444451 0.309075 0.015006 -0.360732
O7    O     O_2   0.366006 0.481867 0.919813 -0.374036
O8    O     O_3   0.408614 0.287980 0.777032 -0.526342
O9    O     O_2   0.681883 0.446405 0.169846 -0.300313
O10   O     O_2   0.603089 0.262939 0.228304 -0.319480
O11   O     O_3   0.652872 0.270518 0.991873 -0.577082
O12   O     O_R   0.500010 0.319100 0.386900 -0.515216
O13   O     O_3   0.471466 0.619027 0.101925 -0.614213
O14   O     O_3   0.840959 0.220429 0.399685 -0.613264
O15   O     O_3   0.350072 0.959042 0.363145 -0.572706
O16   O     O_R   0.398130 0.499970 0.613110 -0.547434
O17   O     O_R   0.398150 0.500010 0.386970 -0.682916
O18   O     O_R   0.499990 0.680900 0.613100 -0.548930
O19   O     O_R   0.500010 0.680940 0.386960 -0.629806
O20   O     O_R   0.601850 0.499990 0.613030 -0.550774
O21   O     O_R   0.601870 0.500030 0.386890 -0.546729
O22   O     O_3   0.363566 0.783505 0.555032 -0.587630
S1    S     S_3+6 0.626456 0.611945 0.888287 0.041634
S2    S     S_3+6 0.430349 0.395833 0.896303 0.059076
S3    S     S_3+6 0.623607 0.359225 0.122160 0.024253
Zn1   Zn    Zn3+2 0.499990 0.499970 0.650990 1.118395
Zn2   Zn    Zn3+2 0.500010 0.500030 0.349010 1.061901

loop_
_geom_bond_atom_site_label_1
_geom_bond_atom_site_label_2
_ccdc_geom_bond_type
C11   O20   A    
C24   H18   S    
C18   H36   S    
O20   Zn1   S    
C1    O1    A    
N3    N4    A    
C3    C6    S    
O17   Zn2   S    
C20   H7    S    
C25   O14   S    
O3    S1    D    
C8    S1    S    
C13   H1    S    
C27   H26   S    
C30   C31   A    
C20   H6    S    
C5    O22   S    
C6    O2    S    
C10   O18   A    
C15   C16   A    
C3    O15   S    
C18   C19   S    
C19   H3    S    
O11   S3    S    
C8    C9    S    
C12   C17   A    
N5    Zn1   S    
C27   O15   S    
C9    N6    D    
C4    C12   S    
C27   H27   S    
C26   H25   S    
C30   H33   S    
O16   Zn1   S    
N6    O13   S    
C22   H16   S    
C2    C34   A    
C24   H17   S    
C21   H9    S    
C13   C14   A    
O1    Zn1   S    
C23   N3    A    
O19   Zn2   S    
C15   C29   S    
C31   H34   S    
C11   O21   A    
O8    S2    S    
C7    H12   S    
C25   H20   S    
C16   C17   A    
C29   N4    A    
O5    S1    S    
C1    O12   A    
C25   C26   S    
C8    N5    D    
C4    O17   A    
C34   O14   S    
C19   H4    S    
C21   H10   S    
C31   C32   A    
C33   C34   A    
C17   H32   S    
H14   O11   S    
H13   O8    S    
C12   C13   A    
C26   H24   S    
O21   Zn2   S    
C19   H5    S    
C22   H15   S    
C28   H30   S    
C11   C32   S    
O7    S2    D    
O4    S1    D    
C22   C24   S    
C2    C23   S    
O12   Zn2   S    
O9    S3    D    
C14   H23   S    
C1    C7    S    
O6    S2    D    
C23   N2    A    
H11   O5    S    
C25   H21   S    
C3    C5    D    
C26   H22   S    
C6    C7    D    
C33   H35   S    
C20   O2    S    
C2    C30   A    
C32   C33   A    
C24   H19   S    
C5    C10   S    
C10   O19   A    
N6    Zn2   S    
N5    S2    S    
C22   O13   S    
C21   H8    S    
C28   H29   S    
N1    N2    A    
C20   C21   S    
O18   Zn1   S    
C9    S3    S    
C27   C28   S    
C14   C15   A    
C16   H31   S    
C18   O22   S    
C29   N1    A    
O10   S3    D    
C18   H2    S    
C4    O16   A    
C28   H28   S    
