data_mof_unit_13019.cif
_audit_creation_date              2012-12-10T19:02:40-0500
_audit_creation_method            fapswitch 2.2
_symmetry_space_group_name_H-M    P1
_symmetry_Int_Tables_number       1
_space_group_crystal_system       triclinic
_cell_length_a                    9.581106
_cell_length_b                    10.832618
_cell_length_c                    13.864139
_cell_angle_alpha                 90.401264
_cell_angle_beta                  85.271758
_cell_angle_gamma                 89.42595
_cell_volume                      1433.92454326

loop_
_atom_site_label
_atom_site_type_symbol
_atom_type_description
_atom_site_fract_x
_atom_site_fract_y
_atom_site_fract_z
_atom_type_partial_charge
C1    C     C_R   0.499944 0.737984 0.498647 0.871555
C2    C     C_3   0.232638 0.933970 0.539882 -0.435919
C3    C     C_R   0.937738 0.474264 0.417529 0.156320
C4    C     C_R   0.477561 0.499060 0.682835 0.811787
C5    C     C_R   0.916076 0.545911 0.577691 0.498035
C6    C     C_R   0.066079 0.546900 0.575966 -0.219914
C7    C     C_R   0.083512 0.474790 0.417576 0.188307
C8    C     C_3   0.101881 0.366201 0.351325 -0.516769
C9    C     C_3   0.942522 0.366064 0.349901 0.174173
C10   C     C_R   0.499942 0.262860 0.508974 0.821388
C11   C     C_R   0.522278 0.499367 0.317169 0.817325
C12   C     C_1   0.463313 0.496944 0.785889 -0.194262
C13   C     C_1   0.534838 0.496415 0.214087 -0.162010
C14   C     C_2   0.549913 0.489366 0.023606 -0.240296
C15   C     C_2   0.432805 0.496246 0.977476 0.492154
C16   C     C_1   0.449179 0.495969 0.872705 -0.175619
C17   C     C_1   0.543599 0.493237 0.127275 0.076334
C18   C     C_3   0.188931 0.489115 0.976089 0.084116
C19   C     C_3   0.053959 0.493663 0.042080 -0.806013
C20   C     C_3   0.858642 0.863900 0.473159 0.110446
C21   C     C_3   0.957421 0.788172 0.404090 -0.789731
C22   C     C_3   0.790716 0.107125 0.622413 0.052233
C23   C     C_R   0.386192 0.936211 0.551266 0.006416
C24   C     C_3   0.731113 0.213101 0.686722 -0.781031
C25   C     C_3   0.169516 0.230882 0.666680 0.124563
C26   C     C_3   0.104897 0.259510 0.768190 -0.853912
C27   C     C_3   0.858153 0.568336 0.742859 0.049247
C28   C     C_3   0.793459 0.660782 0.817060 -0.777784
C29   C     C_R   0.502010 0.871849 0.508002 -0.232422
C30   C     C_R   0.629727 0.936309 0.491432 0.296167
C31   C     C_R   0.631466 0.063388 0.514561 0.431942
C32   C     C_R   0.503752 0.129940 0.527410 -0.298131
C33   C     C_R   0.386209 0.062305 0.559669 -0.010227
C34   C     C_3   0.231340 0.073869 0.556803 0.291642
Cu1   Cu    Cu3+1 0.359330 0.500020 0.500000 0.924511
Cu2   Cu    Cu3+1 0.640670 0.499980 0.500000 1.020374
H1    H     H_    0.117204 0.589814 0.633845 0.160883
H2    H     H_    0.182620 0.561849 0.920216 0.152020
H3    H     H_    0.041064 0.585670 0.077737 0.254223
H4    H     H_    0.963140 0.477047 0.998986 0.193868
H5    H     H_    0.056460 0.421507 0.098463 0.241702
H6    H     H_    0.893881 0.194946 0.343385 0.332689
H7    H     H_    0.837256 0.812303 0.541783 0.176067
H8    H     H_    0.913529 0.950676 0.487601 0.172221
H9    H     H_    0.000599 0.846914 0.343652 0.236266
H10   H     H_    0.045115 0.750587 0.442707 0.198811
H11   H     H_    0.900031 0.710999 0.373153 0.258573
H12   H     H_    0.156378 0.390748 0.280279 0.184961
H13   H     H_    0.906089 0.108966 0.622291 0.208785
H14   H     H_    0.757739 0.016856 0.654913 0.102122
H15   H     H_    0.615142 0.215476 0.689976 0.221574
H16   H     H_    0.761033 0.200642 0.761625 0.188209
H17   H     H_    0.773311 0.301718 0.658161 0.263157
H18   H     H_    0.109942 0.282044 0.613816 0.160739
H19   H     H_    0.279413 0.262961 0.663647 0.169611
H20   H     H_    0.167945 0.215231 0.822376 0.252971
H21   H     H_    0.102625 0.360875 0.780529 0.187776
H22   H     H_    0.996710 0.224304 0.777700 0.248942
H23   H     H_    0.145900 0.284507 0.386536 0.211597
H24   H     H_    0.807014 0.477698 0.755556 0.158971
H25   H     H_    0.970108 0.558550 0.756457 0.108680
H26   H     H_    0.680110 0.673192 0.808371 0.255966
H27   H     H_    0.807078 0.627545 0.891284 0.195461
H28   H     H_    0.845789 0.751375 0.807121 0.241605
H29   H     H_    0.903522 0.388344 0.278495 0.098668
H30   H     H_    0.652005 0.480081 0.983693 0.106336
H31   H     H_    0.194601 0.127400 0.495423 0.088375
H32   H     H_    0.173725 0.881051 0.598127 0.211650
H33   H     H_    0.210703 0.908321 0.464954 0.158660
H34   H     H_    0.197700 0.396266 0.941130 0.146179
N1    N     N_R   0.852140 0.499070 0.499400 -0.197769
N2    N     N_R   0.148050 0.499110 0.499400 -0.201775
O1    O     O_R   0.381190 0.680360 0.500000 -0.583496
O2    O     O_3   0.882990 0.261184 0.393306 -0.631538
O3    O     O_3   0.734814 0.886457 0.427566 -0.560599
O4    O     O_3   0.756725 0.121245 0.525342 -0.529337
O5    O     O_3   0.164675 0.102661 0.649245 -0.583427
O6    O     O_3   0.836033 0.611316 0.649005 -0.568619
O7    O     O_R   0.618770 0.680320 0.499990 -0.537116
O8    O     O_R   0.364410 0.500000 0.637850 -0.606297
O9    O     O_R   0.602000 0.499960 0.637840 -0.545068
O10   O     O_R   0.381230 0.319680 0.500010 -0.622378
O11   O     O_R   0.618810 0.319640 0.500000 -0.475248
O12   O     O_R   0.398000 0.500040 0.362160 -0.562249
O13   O     O_R   0.635590 0.500000 0.362150 -0.580760
O14   O     O_3   0.303651 0.509926 0.031693 -0.567636

loop_
_geom_bond_atom_site_label_1
_geom_bond_atom_site_label_2
_ccdc_geom_bond_type
C24   H16   S    
C18   H34   S    
Cu1   O8    S    
Cu1   Cu2   S    
C22   O4    S    
C27   O6    S    
C7    C8    S    
C6    N2    A    
C18   O14   S    
C25   O5    S    
C23   C29   A    
C4    O8    A    
C3    C7    A    
C27   H24   S    
C8    H23   S    
C5    C6    A    
Cu2   O11   S    
C15   C16   S    
C10   O11   A    
C18   C19   S    
C27   H25   S    
C4    O9    A    
C12   C16   T    
C8    C9    S    
C23   C33   A    
C4    C12   S    
C2    H33   S    
Cu2   N1    S    
C22   H14   S    
C2    C34   S    
C24   H15   S    
C14   C17   S    
C20   H8    S    
Cu1   O10   S    
C21   H9    S    
H6    O2    S    
C25   H18   S    
C7    N2    A    
C24   H17   S    
C10   O10   A    
C20   O3    S    
C3    N1    A    
C8    H12   S    
C29   C30   A    
C3    C9    S    
C31   C32   A    
Cu2   O9    S    
C1    C29   S    
C33   C34   S    
C14   H30   S    
C6    H1    S    
C25   C26   S    
C26   H22   S    
C19   H3    S    
C22   H13   S    
C28   H28   S    
Cu1   N2    S    
C15   O14   S    
C11   O12   A    
C22   C24   S    
C9    O2    S    
C2    C23   S    
C20   H7    S    
C21   H10   S    
Cu1   O1    S    
C25   H19   S    
Cu2   O7    S    
C26   H20   S    
C34   H31   S    
Cu1   O12   S    
Cu2   O13   S    
C2    H32   S    
C13   C17   T    
C1    O1    A    
C32   C33   A    
C18   H2    S    
C34   O5    S    
C30   O3    S    
C11   C13   S    
C31   O4    S    
C30   C31   A    
C11   O13   A    
C1    O7    A    
C26   H21   S    
C9    H29   S    
C19   H4    S    
C28   H27   S    
C10   C32   S    
C20   C21   S    
C5    N1    A    
C27   C28   S    
C14   C15   D    
C5    O6    S    
C19   H5    S    
C21   H11   S    
C28   H26   S    
