data_mof_unit_32334.cif
_audit_creation_date              2013-03-05T15:52:26-0500
_audit_creation_method            fapswitch 2.2
_symmetry_space_group_name_H-M    P1
_symmetry_Int_Tables_number       1
_space_group_crystal_system       triclinic
_cell_length_a                    27.812321
_cell_length_b                    10.860062
_cell_length_c                    9.567457
_cell_angle_alpha                 90.397808
_cell_angle_beta                  89.962504
_cell_angle_gamma                 92.567323
_cell_volume                      2886.81819441

loop_
_atom_site_label
_atom_site_type_symbol
_atom_site_description
_atom_site_fract_x
_atom_site_fract_y
_atom_site_fract_z
_atom_type_partial_charge
O1    O     O_R   0.500000 0.319640 0.618810 -0.587800
O2    O     O_R   0.500000 0.319660 0.381240 -0.580555
C1    C     C_R   0.503862 0.263074 0.500316 0.811208
O3    O     O_R   0.430260 0.500010 0.618770 -0.579370
O4    O     O_R   0.430270 0.500030 0.381200 -0.576823
C2    C     C_R   0.407479 0.499809 0.500070 0.842377
Cu1   Cu    Cu3+1 0.500000 0.499990 0.640660 0.929924
Cu2   Cu    Cu3+1 0.500000 0.500010 0.359340 0.939525
O5    O     O_R   0.500000 0.680340 0.618760 -0.614095
O6    O     O_R   0.500000 0.680360 0.381190 -0.597512
O7    O     O_R   0.569730 0.499970 0.618800 -0.606405
O8    O     O_R   0.569740 0.499990 0.381230 -0.599455
C3    C     C_R   0.497353 0.737634 0.501582 0.786659
C4    C     C_R   0.592511 0.500812 0.499986 0.774902
C5    C     C_R   0.176005 0.392771 0.511012 0.613280
O9    O     O_2   0.198936 0.286480 0.523631 -0.498745
N1    N     N_R   0.202074 0.501907 0.499296 -0.455532
C6    C     C_R   0.180100 0.610896 0.482441 0.610016
C7    C     C_R   0.279014 0.507989 0.629613 0.477587
C8    C     C_R   0.329307 0.506767 0.627730 -0.267408
C9    C     C_R   0.328707 0.494855 0.374529 -0.187537
C10   C     C_R   0.278654 0.495406 0.375524 -0.155533
C11   C     C_R   0.253599 0.501808 0.502081 0.229987
C12   C     C_R   0.101960 0.502315 0.495355 -0.042115
C13   C     C_R   0.125509 0.391020 0.510404 -0.026410
C14   C     C_R   0.098314 0.280607 0.523976 -0.123480
C15   C     C_R   0.129677 0.613196 0.480435 -0.026243
C16   C     C_R   0.354497 0.500369 0.500640 -0.122210
H1    H     H_    0.347140 0.489807 0.275041 0.181203
H2    H     H_    0.259133 0.490734 0.277602 0.162852
H3    H     H_    0.115554 0.193539 0.533511 0.189815
C17   C     C_R   0.645479 0.502653 0.499866 -0.036170
C18   C     C_R   0.972451 0.391926 0.521487 0.043632
C19   C     C_R   0.976585 0.614777 0.469757 0.044389
C20   C     C_R   0.949270 0.503599 0.496062 0.069069
C21   C     C_R   0.943531 0.285415 0.554303 -0.201864
C22   C     C_R   0.893652 0.287516 0.556892 -0.142993
C23   C     C_R   0.870510 0.395747 0.527408 -0.021288
C24   C     C_R   0.898140 0.504103 0.497027 -0.043724
C25   C     C_R   0.874501 0.612963 0.467653 -0.019901
C26   C     C_R   0.823985 0.611396 0.468920 0.534123
N2    N     N_R   0.797947 0.505064 0.498974 -0.469025
C27   C     C_R   0.820082 0.398280 0.528088 0.535429
C28   C     C_R   0.721273 0.514059 0.373400 -0.103280
C29   C     C_R   0.671120 0.512581 0.373427 -0.221269
C30   C     C_R   0.670947 0.494791 0.626166 -0.222967
C31   C     C_R   0.721102 0.495812 0.625743 -0.102596
C32   C     C_R   0.746400 0.505304 0.499424 0.358788
O10   O     O_2   0.793339 0.294678 0.556478 -0.534431
C33   C     C_R   0.023485 0.390442 0.514661 0.044318
C34   C     C_R   0.050833 0.502700 0.495072 0.074697
C35   C     C_R   0.027686 0.615339 0.475362 0.042743
C36   C     C_R   0.048375 0.280010 0.525858 -0.197342
H4    H     H_    0.652502 0.519279 0.274571 0.163487
H5    H     H_    0.740670 0.521276 0.275413 0.141108
H6    H     H_    0.873244 0.203334 0.582430 0.189429
H7    H     H_    0.958241 0.198769 0.581486 0.140610
H8    H     H_    0.030390 0.190481 0.533709 0.136977
O11   O     O_2   0.207012 0.716629 0.468449 -0.502699
C37   C     C_R   0.106625 0.723846 0.465293 -0.120301
H9    H     H_    0.348863 0.511156 0.725525 0.210844
H10   H     H_    0.127123 0.810584 0.455499 0.192461
C38   C     C_R   0.951579 0.721803 0.437878 -0.201983
C39   C     C_R   0.901625 0.720680 0.437146 -0.145172
O12   O     O_2   0.801045 0.715420 0.441362 -0.536470
C40   C     C_R   0.056721 0.725220 0.463047 -0.195768
H11   H     H_    0.969454 0.808179 0.410270 0.139404
H12   H     H_    0.652180 0.487364 0.725184 0.162534
H13   H     H_    0.884314 0.805234 0.412340 0.187287
H14   H     H_    0.740378 0.489309 0.723527 0.140920
H15   H     H_    0.042121 0.814958 0.454257 0.137922
H16   H     H_    0.497926 0.109323 0.279100 0.162294
C41   C     C_R   0.531475 0.122736 0.754928 -0.151664
H17   H     H_    0.550988 0.211026 0.753816 0.162948
C42   C     C_R   0.525934 0.064930 0.883787 -0.155528
H18   H     H_    0.538833 0.110892 0.978221 0.137976
C43   C     C_R   0.502157 0.950094 0.891261 -0.131411
H19   H     H_    0.495240 0.907855 0.991902 0.141662
C44   C     C_R   0.488421 0.887840 0.768766 -0.146886
H20   H     H_    0.468197 0.801641 0.781673 0.175200
C45   C     C_R   0.498785 0.939676 0.635620 0.093173
C46   C     C_R   0.513250 0.065510 0.630951 0.098325
C47   C     C_R   0.508206 0.129293 0.503031 -0.117671
C48   C     C_R   0.500681 0.062964 0.378504 -0.200284
H21   H     H_    0.493346 0.887149 0.280989 0.165565
C49   C     C_R   0.496550 0.935762 0.380057 -0.200480
C50   C     C_R   0.495502 0.872331 0.507091 -0.109045
H22   H     H_    0.445769 0.359893 0.128464 0.144373
C51   C     C_R   0.564033 0.664162 0.145381 -0.165830
H23   H     H_    0.567287 0.671886 0.255520 0.203023
C52   C     C_R   0.595233 0.744387 0.073462 -0.221075
H24   H     H_    0.619611 0.807156 0.130195 0.164599
C53   C     C_R   0.595277 0.744165 0.929498 -0.191630
H25   H     H_    0.619583 0.806999 0.873499 0.164354
C54   C     C_R   0.564055 0.663881 0.856642 -0.153395
H26   H     H_    0.566963 0.672027 0.746578 0.204213
C55   C     C_R   0.531465 0.580702 0.925623 0.191630
C56   C     C_R   0.531451 0.580736 0.075406 0.209866
N3    N     N_R   0.500460 0.501210 0.147910 -0.200697
C57   C     C_R   0.470178 0.422971 0.073436 -0.060347
H27   H     H_    0.445807 0.359914 0.869330 0.154157
C58   C     C_R   0.470193 0.423004 0.925325 -0.054000
N4    N     N_R   0.500480 0.501290 0.852040 -0.207244
S1    S     S_3+6 0.248750 0.517567 0.791740 0.023226
O13   O     O_2   0.216136 0.624201 0.789573 -0.267926
O14   O     O_2   0.219105 0.400439 0.815172 -0.256984
O15   O     O_3   0.288520 0.537900 0.923239 -0.552020
H28   H     H_    0.268631 0.549366 0.007868 0.374495

loop_
_geom_bond_atom_site_label_1
_geom_bond_atom_site_label_2
_geom_bond_distance
_ccdc_geom_bond_type
C53   H25   1.083024 S    
C26   N2    1.367501 A    
C20   C24   1.422343 A    
C54   H26   1.060094 S    
C12   C15   1.408454 A    
S1    O14   1.502619 D    
C55   C56   1.433038 A    
Cu1   Cu2   2.691519 S    
C43   H19   1.082848 S    
Cu1   O7    1.950471 S    
N1    C11   1.433335 S    
C47   C48   1.398948 A    
C21   C22   1.388662 A    
Cu2   N3    2.023008 S    
C48   C49   1.381240 A    
C15   C37   1.395569 A    
C23   C24   1.408255 A    
O7    C4    1.300925 A    
C5    C13   1.403717 A    
C52   C53   1.377358 A    
C5    O9    1.349730 S    
C18   C21   1.415935 A    
C37   H10   1.083596 S    
C19   C20   1.421294 A    
C17   C29   1.406185 A    
C8    H9    1.082242 S    
O5    C3    1.289701 A    
C22   H6    1.083555 S    
C2    C16   1.473835 S    
C7    C8    1.399548 A    
O15   H28   0.990598 S    
C51   C52   1.387561 A    
C12   C34   1.422181 A    
C37   C40   1.388857 A    
C14   H3    1.083611 S    
C53   C54   1.387314 A    
Cu1   N4    2.022370 S    
C9    C10   1.392411 A    
C41   C42   1.392700 A    
O3    Cu1   1.951054 S    
S1    O13   1.502920 D    
C45   C46   1.408153 A    
C43   C44   1.393912 A    
C41   H17   1.080514 S    
C38   H11   1.076264 S    
H16   C48   1.083517 S    
C33   C36   1.416080 A    
C34   C35   1.421377 A    
H27   C58   1.081768 S    
C12   C13   1.408545 A    
O3    C2    1.300745 A    
C21   H7    1.076338 S    
C52   H24   1.083021 S    
C44   C45   1.420450 A    
C49   C50   1.400844 A    
C27   O10   1.349784 S    
N2    C32   1.433756 S    
C8    C16   1.405774 A    
C33   C34   1.421198 A    
C18   C33   1.421651 A    
H21   C49   1.083503 S    
C9    H1    1.083053 S    
C44   H20   1.078105 S    
O1    C1    1.292381 A    
C7    C11   1.410203 A    
C42   H18   1.082714 S    
C31   H14   1.082861 S    
C30   H12   1.083090 S    
C22   C23   1.395708 A    
C55   N4    1.381226 A    
C7    S1    1.768950 S    
C31   C32   1.400136 A    
Cu2   O8    1.951049 S    
C3    C50   1.466600 S    
C57   C58   1.417056 A    
N1    C6    1.366767 A    
C45   C50   1.427262 A    
C39   H13   1.083555 S    
C42   C43   1.387450 A    
H22   C57   1.081759 S    
C40   H15   1.076281 S    
C25   C26   1.404331 A    
C9    C16   1.403620 A    
O8    C4    1.300931 A    
C29   H4    1.083019 S    
C56   N3    1.382345 A    
C1    C47   1.463676 S    
N2    C27   1.367534 A    
C14   C36   1.388730 A    
C41   C46   1.418612 A    
C24   C25   1.408323 A    
C35   C40   1.416155 A    
C28   C29   1.394256 A    
Cu1   O5    1.971234 S    
C30   C31   1.394475 A    
C10   H2    1.082871 S    
O1    Cu1   1.968293 S    
C17   C30   1.406102 A    
O2    Cu2   1.971234 S    
C6    C15   1.403867 A    
C4    C17   1.472400 S    
O6    C3    1.308854 A    
O4    Cu2   1.950474 S    
C26   O12   1.349729 S    
C36   H8    1.076385 S    
C54   C55   1.416786 A    
C5    N1    1.366660 A    
C19   C35   1.422016 A    
C25   C39   1.395750 A    
N3    C57   1.366467 A    
C51   C56   1.417411 A    
O2    C1    1.304941 A    
C13   C14   1.395540 A    
C23   C27   1.404020 A    
C28   H5    1.082873 S    
O4    C2    1.301608 A    
C19   C38   1.416072 A    
C18   C20   1.421264 A    
C58   N4    1.366502 A    
C38   C39   1.388893 A    
C6    O11   1.349699 S    
Cu2   O6    1.968293 S    
C46   C47   1.420579 A    
C10   C11   1.399491 A    
C51   H23   1.060108 S    
S1    O15   1.682589 S    
C28   C32   1.399935 A    
