data_mof_unit_28324.cif
_audit_creation_date              2012-12-11T14:41:09-0500
_audit_creation_method            fapswitch 2.2
_symmetry_space_group_name_H-M    P1
_symmetry_Int_Tables_number       1
_space_group_crystal_system       triclinic
_cell_length_a                    24.746818
_cell_length_b                    17.563993
_cell_length_c                    15.533118
_cell_angle_alpha                 90.053048
_cell_angle_beta                  129.469695
_cell_angle_gamma                 89.968727
_cell_volume                      5211.90372064

loop_
_atom_site_label
_atom_site_type_symbol
_atom_type_description
_atom_site_fract_x
_atom_site_fract_y
_atom_site_fract_z
_atom_type_partial_charge
C1    C     C_R   0.349078 0.361253 0.238765 -0.085463
C2    C     C_R   0.657842 0.668308 0.504064 0.182631
C3    C     C_R   0.149974 0.825307 0.499072 0.234227
C4    C     C_R   0.157894 0.168240 0.504063 0.182637
C5    C     C_R   0.317246 0.389637 0.502755 -0.043595
C6    C     C_R   0.316514 0.617572 0.495916 0.068929
C7    C     C_R   0.817241 0.889642 0.502749 -0.043264
C8    C     C_R   0.816538 0.117625 0.495926 0.069359
C9    C     C_3   0.288268 0.333908 0.616937 -0.748441
C10   C     C_3   0.251565 0.637098 0.568090 -0.714946
C11   C     C_3   0.788203 0.833994 0.616897 -0.748521
C12   C     C_R   0.349693 0.639331 0.239770 -0.099404
C13   C     C_3   0.751537 0.137099 0.568005 -0.714915
C14   C     C_3   0.750414 0.767887 0.624321 0.899704
C15   C     C_3   0.707233 0.196644 0.574255 0.912901
C16   C     C_3   0.250484 0.267789 0.624341 0.899680
C17   C     C_3   0.207306 0.696677 0.574392 0.912863
C18   C     C_3   0.191645 0.351408 0.410563 0.902961
C19   C     C_3   0.195045 0.677501 0.371568 0.899854
C20   C     C_3   0.691628 0.851411 0.410478 0.902718
C21   C     C_3   0.695110 0.177612 0.371553 0.899974
C22   C     C_3   0.292322 0.252075 0.487387 0.263301
C23   C     C_R   0.849079 0.861252 0.238766 -0.085489
C24   C     C_3   0.308086 0.745900 0.544331 0.219964
C25   C     C_3   0.792331 0.752084 0.487486 0.263244
C26   C     C_3   0.808138 0.245925 0.544461 0.219696
C27   C     C_3   0.272287 0.333671 0.502067 -0.028691
C28   C     C_3   0.268022 0.668108 0.492852 -0.029815
C29   C     C_3   0.772270 0.833696 0.502060 -0.028452
C30   C     C_3   0.768051 0.168158 0.492862 -0.029429
C31   C     C_3   0.699612 0.728438 0.506192 -0.122292
C32   C     C_3   0.691486 0.266741 0.497611 -0.133215
C33   C     C_3   0.199655 0.228376 0.506188 -0.122216
C34   C     C_R   0.849698 0.139337 0.239782 -0.099455
C35   C     C_3   0.191473 0.766718 0.497608 -0.133330
C36   C     C_3   0.649879 0.791608 0.420423 -0.498155
C37   C     C_3   0.650992 0.235388 0.376849 -0.506209
C38   C     C_3   0.149909 0.291559 0.420468 -0.498362
C39   C     C_3   0.150927 0.735276 0.376875 -0.505756
C40   C     C_R   0.666823 0.392298 0.799887 -0.086316
C41   C     C_R   0.667112 0.607637 0.799697 -0.106938
C42   C     C_R   0.166823 0.892298 0.799887 -0.086311
C43   C     C_R   0.167110 0.107644 0.799691 -0.106913
C44   C     C_3   0.742812 0.691692 0.475150 0.216209
C45   C     C_R   0.646279 0.371375 0.861313 0.116533
C46   C     C_3   0.760492 0.305886 0.537152 0.212814
C47   C     C_3   0.242822 0.191663 0.475067 0.216200
C48   C     C_3   0.260434 0.805875 0.536978 0.212886
C49   C     C_2   0.692025 0.342339 0.975486 -0.195645
C50   C     C_2   0.692644 0.658119 0.975245 -0.198263
C51   C     C_2   0.192024 0.842340 0.975485 -0.195616
C52   C     C_2   0.192640 0.158126 0.975238 -0.198227
C53   C     C_2   0.761537 0.342528 0.035995 -0.091409
C54   C     C_2   0.762097 0.657197 0.036056 -0.102915
C55   C     C_2   0.261536 0.842528 0.035992 -0.091404
C56   C     C_R   0.646899 0.629229 0.861070 0.141970
C57   C     C_2   0.262094 0.157201 0.036051 -0.102937
C58   C     C_2   0.353810 0.750314 0.139939 -0.198778
C59   C     C_2   0.352211 0.251528 0.136015 -0.201280
C60   C     C_2   0.853822 0.250328 0.139969 -0.198776
C61   C     C_2   0.852214 0.751525 0.136020 -0.201278
C62   C     C_2   0.303423 0.789814 0.128605 -0.089101
C63   C     C_2   0.303785 0.210404 0.127929 -0.071159
C64   C     C_2   0.803425 0.289819 0.128615 -0.089123
C65   C     C_2   0.803787 0.710401 0.127933 -0.071174
C66   C     C_R   0.596585 0.365818 0.406561 -0.089577
C67   C     C_R   0.146278 0.871375 0.861313 0.116514
C68   C     C_R   0.601995 0.631023 0.409155 -0.089800
C69   C     C_R   0.096589 0.865818 0.406563 -0.089456
C70   C     C_R   0.102026 0.130980 0.409152 -0.089872
C71   C     C_R   0.386727 0.403484 0.593994 0.498330
C72   C     C_R   0.384505 0.601391 0.589404 0.512477
C73   C     C_R   0.886723 0.903486 0.593991 0.498303
C74   C     C_R   0.884520 0.101424 0.589414 0.512175
C75   C     C_R   0.669885 0.363847 0.593136 -0.095585
C76   C     C_R   0.673330 0.631912 0.595758 -0.079866
C77   C     C_R   0.169887 0.863849 0.593136 -0.095785
C78   C     C_R   0.146895 0.129235 0.861064 0.141920
C79   C     C_R   0.173365 0.131871 0.595759 -0.079779
C80   C     C_R   0.311663 0.403449 0.409861 -0.148524
C81   C     C_R   0.312206 0.600678 0.405777 -0.210634
C82   C     C_R   0.811663 0.903441 0.409857 -0.148690
C83   C     C_R   0.812210 0.100691 0.405781 -0.210157
C84   C     C_R   0.576453 0.390927 0.800325 -0.110821
C85   C     C_R   0.577266 0.609965 0.800648 -0.116629
C86   C     C_R   0.076453 0.890927 0.800325 -0.110785
C87   C     C_R   0.077264 0.109967 0.800645 -0.116546
C88   C     C_R   0.436512 0.362519 0.230377 -0.130882
C89   C     C_R   0.649977 0.325315 0.499070 0.234304
C90   C     C_R   0.438454 0.639146 0.234420 -0.133857
C91   C     C_R   0.936514 0.862518 0.230381 -0.130912
C92   C     C_R   0.938465 0.139157 0.234445 -0.133831
C93   C     C_R   0.378665 0.321900 0.200420 0.143347
C94   C     C_R   0.380290 0.679643 0.203850 0.144208
C95   C     C_R   0.878666 0.821899 0.200423 0.143353
C96   C     C_R   0.880301 0.179654 0.203876 0.144218
H1    H     H_    0.301842 0.348011 0.226036 0.103476
H2    H     H_    0.600530 0.209562 0.346673 0.235646
H3    H     H_    0.122222 0.319477 0.447039 0.243002
H4    H     H_    0.100502 0.709424 0.346828 0.235648
H5    H     H_    0.345745 0.239283 0.566238 0.089134
H6    H     H_    0.351108 0.735963 0.635000 0.131496
H7    H     H_    0.845741 0.739309 0.566379 0.089126
H8    H     H_    0.851140 0.235938 0.635121 0.131662
H9    H     H_    0.775480 0.645010 0.535158 0.124411
H10   H     H_    0.788478 0.329166 0.622531 0.093321
H11   H     H_    0.275501 0.144971 0.535041 0.124393
H12   H     H_    0.302089 0.652483 0.225824 0.113092
H13   H     H_    0.288448 0.829246 0.622321 0.093382
H14   H     H_    0.719336 0.393654 0.827490 0.085065
H15   H     H_    0.719679 0.605296 0.827692 0.090014
H16   H     H_    0.219336 0.893654 0.827490 0.085081
H17   H     H_    0.219676 0.105311 0.827683 0.090004
H18   H     H_    0.607171 0.767507 0.337040 0.145267
H19   H     H_    0.635996 0.281201 0.316414 0.151511
H20   H     H_    0.107201 0.267476 0.337069 0.145192
H21   H     H_    0.135848 0.781035 0.316331 0.151496
H22   H     H_    0.285148 0.774274 0.173882 0.145401
H23   H     H_    0.801843 0.848009 0.226037 0.103455
H24   H     H_    0.286559 0.225037 0.175032 0.151260
H25   H     H_    0.785143 0.274274 0.173881 0.145431
H26   H     H_    0.786561 0.725035 0.175035 0.151212
H27   H     H_    0.786236 0.370534 0.006731 0.128360
H28   H     H_    0.786791 0.628811 0.006972 0.133386
H29   H     H_    0.286234 0.870536 0.006730 0.128361
H30   H     H_    0.286787 0.128812 0.006967 0.133379
H31   H     H_    0.668122 0.313636 0.005873 0.141126
H32   H     H_    0.668802 0.687410 0.005403 0.145015
H33   H     H_    0.168122 0.813635 0.005871 0.141158
H34   H     H_    0.802095 0.152489 0.225838 0.113120
H35   H     H_    0.168798 0.187418 0.005395 0.145022
H36   H     H_    0.575038 0.360308 0.321382 0.090163
H37   H     H_    0.581723 0.638852 0.324535 0.121708
H38   H     H_    0.075047 0.860312 0.321385 0.090192
H39   H     H_    0.081749 0.138802 0.324528 0.121767
H40   H     H_    0.714102 0.353268 0.679342 0.130002
H41   H     H_    0.714861 0.641486 0.683050 0.173848
H42   H     H_    0.214105 0.853277 0.679341 0.130171
H43   H     H_    0.214903 0.141433 0.683052 0.173840
H44   H     H_    0.264979 0.404049 0.323618 0.168224
H45   H     H_    0.344846 0.326567 0.687034 0.228267
H46   H     H_    0.266860 0.596920 0.319067 0.153465
H47   H     H_    0.764980 0.904040 0.323614 0.168172
H48   H     H_    0.766856 0.096917 0.319080 0.153334
H49   H     H_    0.465892 0.350187 0.202726 0.097848
H50   H     H_    0.470140 0.653058 0.211441 0.095806
H51   H     H_    0.965896 0.850184 0.202734 0.097855
H52   H     H_    0.970162 0.153079 0.211489 0.095794
H53   H     H_    0.272677 0.389421 0.629958 0.246710
H54   H     H_    0.223479 0.581775 0.535009 0.260550
H55   H     H_    0.772588 0.889520 0.629837 0.246746
H56   H     H_    0.299808 0.624033 0.653453 0.239902
H57   H     H_    0.723464 0.081772 0.534872 0.260674
H58   H     H_    0.835082 0.702595 0.699317 0.281985
H59   H     H_    0.791577 0.233217 0.720398 0.275557
H60   H     H_    0.335139 0.202488 0.699242 0.281983
H61   H     H_    0.291710 0.733328 0.720414 0.275567
H62   H     H_    0.244325 0.315617 0.731412 0.341454
H63   H     H_    0.154198 0.622985 0.588120 0.350916
H64   H     H_    0.744212 0.815775 0.731311 0.341467
H65   H     H_    0.654031 0.122910 0.587717 0.350920
H66   H     H_    0.196850 0.462300 0.409104 0.330970
H67   H     H_    0.844776 0.826673 0.687038 0.228278
H68   H     H_    0.170879 0.578188 0.294932 0.306871
H69   H     H_    0.696695 0.962300 0.408631 0.331144
H70   H     H_    0.670595 0.078509 0.294243 0.306910
H71   H     H_    0.754066 0.761192 0.331337 0.362067
H72   H     H_    0.808886 0.270880 0.421535 0.370040
H73   H     H_    0.253991 0.261265 0.331213 0.361994
H74   H     H_    0.308793 0.770731 0.421334 0.370018
H75   H     H_    0.670204 0.695559 0.311658 0.338599
H76   H     H_    0.729194 0.351382 0.395908 0.349405
H77   H     H_    0.170184 0.195569 0.311582 0.338525
H78   H     H_    0.799765 0.124024 0.653382 0.239738
H79   H     H_    0.229041 0.851216 0.395593 0.349434
H80   H     H_    0.121711 0.368099 0.249964 0.331835
H81   H     H_    0.156991 0.700775 0.218830 0.318309
H82   H     H_    0.621767 0.868105 0.249867 0.331781
H83   H     H_    0.657123 0.201042 0.218882 0.318053
H84   H     H_    0.371181 0.766179 0.093332 0.139036
H85   H     H_    0.368418 0.236688 0.087419 0.142908
H86   H     H_    0.871200 0.266198 0.093374 0.139014
H87   H     H_    0.868422 0.736685 0.087426 0.142928
H88   H     H_    0.374139 0.449143 0.692557 0.329583
H89   H     H_    0.622193 0.819572 0.446966 0.242963
H90   H     H_    0.448691 0.562734 0.737496 0.332025
H91   H     H_    0.874137 0.949175 0.692539 0.329551
H92   H     H_    0.948675 0.062738 0.737490 0.332033
H93   H     H_    0.547326 0.390944 0.830485 0.158588
H94   H     H_    0.549883 0.611404 0.833404 0.118455
H95   H     H_    0.047325 0.890944 0.830484 0.158588
H96   H     H_    0.049879 0.111402 0.833399 0.118500
N1    N     N_R   0.389430 0.421450 0.294590 -0.050207
N2    N     N_R   0.581780 0.577610 0.443390 -0.051309
N3    N     N_R   0.081780 0.922390 0.443390 -0.048640
N4    N     N_R   0.081780 0.077610 0.443390 -0.051323
N5    N     N_R   0.419850 0.423100 0.556610 -0.071203
N6    N     N_R   0.419850 0.576900 0.556610 -0.096983
N7    N     N_R   0.919850 0.923100 0.556610 -0.071193
N8    N     N_R   0.919850 0.076900 0.556610 -0.097003
N9    N     N_R   0.627410 0.423100 0.556610 -0.057217
N10   N     N_R   0.627410 0.576900 0.556610 -0.063693
N11   N     N_R   0.127410 0.923100 0.556610 -0.057223
N12   N     N_R   0.389430 0.578550 0.294590 -0.047880
N13   N     N_R   0.127410 0.076900 0.556610 -0.063709
N14   N     N_R   0.374220 0.422390 0.443390 -0.069975
N15   N     N_R   0.374220 0.577610 0.443390 -0.071246
N16   N     N_R   0.874220 0.922390 0.443390 -0.069966
N17   N     N_R   0.874220 0.077610 0.443390 -0.071338
N18   N     N_R   0.555000 0.424040 0.705410 -0.044034
N19   N     N_R   0.555000 0.575960 0.705410 -0.050942
N20   N     N_R   0.055000 0.924040 0.705410 -0.044033
N21   N     N_R   0.055000 0.075960 0.705410 -0.050937
N22   N     N_R   0.446630 0.421450 0.294590 -0.047017
N23   N     N_R   0.889430 0.921450 0.294590 -0.050199
N24   N     N_R   0.446630 0.578550 0.294590 -0.046132
N25   N     N_R   0.946630 0.921450 0.294590 -0.047012
N26   N     N_R   0.946630 0.078550 0.294590 -0.046127
N27   N     N_R   0.889430 0.078550 0.294590 -0.047886
N28   N     N_R   0.612200 0.424040 0.705410 -0.052338
N29   N     N_R   0.612200 0.575960 0.705410 -0.050585
N30   N     N_R   0.112200 0.924040 0.705410 -0.052334
N31   N     N_R   0.112200 0.075960 0.705410 -0.050586
N32   N     N_R   0.581780 0.422390 0.443390 -0.048637
Ni1   Ni    Ni4+2 0.382890 0.500000 0.370170 0.206061
Ni2   Ni    Ni4+2 0.882890 0.000000 0.370170 0.206044
Ni3   Ni    Ni4+2 0.618740 0.500000 0.629830 0.220856
Ni4   Ni    Ni4+2 0.118740 0.000000 0.629830 0.220832
Ni5   Ni    Ni4+2 0.514090 0.500000 0.370170 0.240605
Ni6   Ni    Ni4+2 0.014090 0.000000 0.370170 0.240610
Ni7   Ni    Ni4+2 0.487550 0.500000 0.629830 0.245639
Ni8   Ni    Ni4+2 0.987550 0.000000 0.629830 0.245649
O1    O     O_3   0.800321 0.716227 0.708824 -0.807236
O2    O     O_3   0.158239 0.607556 0.334245 -0.766222
O3    O     O_3   0.676512 0.924398 0.428439 -0.754587
O4    O     O_3   0.658286 0.107675 0.334156 -0.766390
O5    O     O_3   0.798616 0.745842 0.403597 -0.696834
O6    O     O_3   0.841975 0.272662 0.503804 -0.687647
O7    O     O_3   0.298553 0.245883 0.403433 -0.696887
O8    O     O_3   0.341889 0.772596 0.503600 -0.687673
O9    O     O_3   0.700801 0.656686 0.369184 -0.695821
O10   O     O_3   0.748358 0.369233 0.470940 -0.675210
O11   O     O_3   0.200784 0.156684 0.369082 -0.695811
O12   O     O_3   0.742834 0.219084 0.685947 -0.785545
O13   O     O_3   0.248221 0.869148 0.470601 -0.675241
O14   O     O_3   0.170144 0.347706 0.302172 -0.855139
O15   O     O_3   0.203124 0.704790 0.294758 -0.857429
O16   O     O_3   0.670160 0.847608 0.302109 -0.855269
O17   O     O_3   0.703257 0.204934 0.294830 -0.857512
O18   O     O_3   0.412685 0.424466 0.699337 -0.808803
O19   O     O_3   0.407858 0.597087 0.696380 -0.805401
O20   O     O_3   0.912679 0.924472 0.699331 -0.808833
O21   O     O_3   0.907875 0.097137 0.696394 -0.805393
O22   O     O_3   0.300393 0.216103 0.708791 -0.807259
O23   O     O_3   0.242988 0.719186 0.686082 -0.785611
O24   O     O_3   0.210846 0.297203 0.653199 -0.736643
O25   O     O_3   0.143359 0.663302 0.534367 -0.708777
O26   O     O_3   0.710750 0.797324 0.653116 -0.736630
O27   O     O_3   0.643249 0.163266 0.534045 -0.708732
O28   O     O_3   0.176543 0.424359 0.428642 -0.754430

loop_
_geom_bond_atom_site_label_1
_geom_bond_atom_site_label_2
_ccdc_geom_bond_type
C78   C87   A    
C58   C62   D    
C80   N14   A    
C44   H9    S    
C69   H38   S    
C7    C29   S    
C92   H52   S    
C8    C83   A    
C16   O24   S    
N29   Ni3   S    
C1    N1    A    
C69   N3    A    
C14   C31   S    
H81   O15   S    
C36   H18   S    
C90   N24   A    
C75   N9    A    
C19   O15   S    
C15   C32   S    
C7    C73   A    
C54   C65   S    
N20   N30   A    
C76   H41   S    
C34   C96   A    
C43   C78   A    
C6    C72   A    
C9    H53   S    
C86   H95   S    
C50   C54   D    
C22   H5    S    
N19   Ni7   S    
C19   C39   S    
C75   H40   S    
C17   C35   S    
C68   H37   S    
C3    C69   A    
C9    C16   S    
C86   N20   A    
C73   N7    A    
C2    C68   A    
N23   N25   A    
C23   H23   S    
C83   H48   S    
N20   Ni8   S    
C11   C14   S    
C76   N10   A    
H77   O11   S    
C21   O4    S    
N3    N11   A    
C10   C17   S    
C64   H25   S    
N2    N10   A    
C55   C62   S    
C85   N19   A    
C92   C96   A    
N18   N28   A    
N13   Ni4   S    
C36   H89   S    
C39   H4    S    
N4    N13   A    
C59   H85   S    
C42   H16   S    
H73   O7    S    
N26   Ni6   S    
C10   H56   S    
N16   Ni2   S    
C5    C27   S    
C16   O22   S    
N15   Ni1   S    
C6    C28   S    
C55   H29   S    
C23   C95   A    
C84   N18   A    
N18   Ni7   S    
C71   N5    A    
C25   O5    S    
C71   O18   S    
C18   O28   S    
C24   O8    S    
C81   N15   A    
C73   O20   S    
C26   H8    S    
H59   O12   S    
H65   O27   S    
C22   C47   S    
H76   O10   S    
H63   O25   S    
C6    C81   A    
N27   Ni2   S    
C40   N28   A    
C15   O27   S    
C25   C29   S    
N1    Ni1   S    
N2    Ni5   S    
C12   C94   A    
N5    N14   A    
C40   C45   A    
H72   O6    S    
C52   C78   S    
C35   C48   S    
C77   N11   A    
C25   C44   S    
H64   O26   S    
N11   Ni4   S    
H60   O22   S    
C44   O9    S    
C90   C94   A    
C66   C89   A    
C66   H36   S    
C20   C29   S    
N5    Ni7   S    
C60   H86   S    
C13   H78   S    
C49   H31   S    
C4    C70   A    
C61   H87   S    
C31   C44   S    
H68   O2    S    
C24   C48   S    
C13   C30   S    
N1    N22   A    
C79   N13   A    
C77   H42   S    
C41   N29   A    
C4    C79   A    
C66   N32   A    
C79   H43   S    
C53   H27   S    
C1    H1    S    
C57   H30   S    
C12   H12   S    
C9    H45   S    
N6    Ni7   S    
C25   H7    S    
C23   N23   A    
C85   H94   S    
C80   H44   S    
C72   N6    A    
C53   C64   S    
C51   H33   S    
C50   C56   S    
C91   H51   S    
N28   Ni3   S    
C18   O14   S    
H88   O18   S    
C11   H67   S    
C91   N25   A    
C43   N31   A    
N7    Ni8   S    
C41   C56   A    
C54   H28   S    
C48   O13   S    
H70   O4    S    
N25   Ni6   S    
C24   H6    S    
C38   H20   S    
C26   O6    S    
C32   C89   S    
C3    C35   S    
C68   N2    A    
C88   H49   S    
C20   O3    S    
N14   Ni1   S    
C8    C74   A    
N24   Ni5   S    
C87   N21   A    
C37   H2    S    
C84   H93   S    
H91   O20   S    
C51   C67   S    
C32   C37   S    
C5    C80   A    
C92   N26   A    
C19   C28   S    
C13   H57   S    
H90   O19   S    
C83   N17   A    
N21   Ni8   S    
C88   N22   A    
H82   O16   S    
C60   C96   S    
C11   H55   S    
C81   H46   S    
N4    Ni6   S    
H69   O3    S    
C47   H11   S    
C22   C27   S    
C13   C15   S    
H66   O28   S    
C14   O26   S    
C42   C67   A    
C33   C47   S    
C45   C84   A    
C50   H32   S    
N17   Ni2   S    
C46   O10   S    
C17   O25   S    
C3    C77   A    
C19   O2    S    
C82   N16   A    
C90   H50   S    
C2    C76   A    
C9    C27   S    
C82   H47   S    
C22   O7    S    
H83   O17   S    
C10   C28   S    
N9    Ni3   S    
C20   O16   S    
H74   O8    S    
C4    C33   S    
H92   O21   S    
C67   C86   A    
C65   H26   S    
N31   Ni4   S    
N6    N15   A    
C15   O12   S    
C52   H35   S    
C32   C46   S    
C18   C27   S    
C24   C28   S    
C57   C63   S    
C74   N8    A    
C38   H3    S    
H80   O14   S    
N3    Ni6   S    
C56   C85   A    
C40   H14   S    
C61   C95   S    
C70   N4    A    
C26   C30   S    
N10   Ni3   S    
C37   H19   S    
C17   O23   S    
C21   C30   S    
N12   N24   A    
H71   O5    S    
C59   C63   D    
N8    N17   A    
C60   C64   D    
N23   Ni2   S    
C59   C93   S    
H61   O23   S    
C18   C38   S    
C8    C30   S    
C5    C71   A    
C16   C33   S    
C39   H21   S    
N32   Ni5   S    
C43   H17   S    
C11   C29   S    
C21   O17   S    
C63   H24   S    
N21   N31   A    
N26   N27   A    
C70   H39   S    
C49   C53   D    
C35   C39   S    
C46   H10   S    
H58   O1    S    
N7    N16   A    
C47   O11   S    
C88   C93   A    
C45   C49   S    
C48   H13   S    
C51   C55   D    
C12   N12   A    
C72   O19   S    
C58   C94   S    
H62   O24   S    
C62   H22   S    
C74   O21   S    
C52   C57   D    
C26   C46   S    
C91   C95   A    
C20   C36   S    
C61   C65   D    
H79   O13   S    
C7    C82   A    
C21   C37   S    
C34   H34   S    
C1    C93   A    
N30   Ni4   S    
C41   H15   S    
C75   C89   A    
C31   C36   S    
C2    C31   S    
C33   C38   S    
C58   H84   S    
N8    Ni8   S    
N9    N32   A    
N12   Ni1   S    
C42   N30   A    
N22   Ni5   S    
C14   O1    S    
C10   H54   S    
H75   O9    S    
C87   H96   S    
C34   N27   A    
N19   N29   A    
