data_mof_unit_50229.cif
_audit_creation_date              2013-03-05T15:40:53-0500
_audit_creation_method            fapswitch 2.2
_symmetry_space_group_name_H-M    P1
_symmetry_Int_Tables_number       1
_space_group_crystal_system       triclinic
_cell_length_a                    27.880756
_cell_length_b                    18.806043
_cell_length_c                    16.782667
_cell_angle_alpha                 90.035173
_cell_angle_beta                  62.610383
_cell_angle_gamma                 90.012543
_cell_volume                      7813.15279978

loop_
_atom_site_label
_atom_site_type_symbol
_atom_site_description
_atom_site_fract_x
_atom_site_fract_y
_atom_site_fract_z
_atom_type_partial_charge
O1    O     O_R   0.255040 0.869590 0.478480 -0.539818
O2    O     O_R   0.744960 0.130410 0.521520 -0.535992
O3    O     O_R   0.744960 0.869590 0.521520 -0.533310
O4    O     O_R   0.255040 0.130410 0.478480 -0.533897
O5    O     O_R   0.755040 0.369590 0.478480 -0.533116
O6    O     O_R   0.244960 0.630410 0.521520 -0.591875
O7    O     O_R   0.244960 0.369590 0.521520 -0.589780
O8    O     O_R   0.755040 0.630410 0.478480 -0.535070
O9    O     O_R   0.182050 0.796550 0.624440 -0.567252
O10   O     O_R   0.817950 0.203450 0.375560 -0.570759
O11   O     O_R   0.817950 0.796550 0.375560 -0.561200
O12   O     O_R   0.182050 0.203450 0.624440 -0.576031
O13   O     O_R   0.682050 0.296550 0.624440 -0.579491
O14   O     O_R   0.317950 0.703450 0.375560 -0.565662
O15   O     O_R   0.317950 0.296550 0.375560 -0.574705
O16   O     O_R   0.682050 0.703450 0.624440 -0.570311
Cu1   Cu    Cu3+1 0.209920 0.785290 0.495070 1.088043
Cu2   Cu    Cu3+1 0.790080 0.214710 0.504930 1.096133
Cu3   Cu    Cu3+1 0.790080 0.785290 0.504930 1.094812
Cu4   Cu    Cu3+1 0.209920 0.214710 0.495070 1.087135
Cu5   Cu    Cu3+1 0.709920 0.285290 0.495070 1.088770
Cu6   Cu    Cu3+1 0.290080 0.714710 0.504930 1.058482
Cu7   Cu    Cu3+1 0.290080 0.285290 0.504930 1.060877
Cu8   Cu    Cu3+1 0.709920 0.714710 0.495070 1.093307
C1    C     C_R   0.296824 0.732063 0.328452 0.798192
C2    C     C_R   0.703320 0.267849 0.671926 0.763207
C3    C     C_R   0.703911 0.730929 0.671597 0.746570
C4    C     C_R   0.291755 0.278301 0.331950 0.789035
C5    C     C_R   0.796184 0.231086 0.328391 0.771519
C6    C     C_R   0.203681 0.768651 0.671751 0.759351
C7    C     C_R   0.208234 0.222097 0.668472 0.786297
C8    C     C_R   0.796708 0.767792 0.328044 0.783733
O17   O     O_R   0.250530 0.763330 0.367210 -0.572649
O18   O     O_R   0.749470 0.236670 0.632790 -0.574908
O19   O     O_R   0.749470 0.763330 0.632790 -0.585699
O20   O     O_R   0.250530 0.236670 0.367210 -0.574143
O21   O     O_R   0.750530 0.263330 0.367210 -0.558792
O22   O     O_R   0.249470 0.736670 0.632790 -0.586434
O23   O     O_R   0.249470 0.263330 0.632790 -0.582358
O24   O     O_R   0.750530 0.736670 0.367210 -0.582601
O25   O     O_R   0.177260 0.690030 0.513710 -0.562988
O26   O     O_R   0.822740 0.309970 0.486290 -0.562584
O27   O     O_R   0.822740 0.690030 0.486290 -0.569143
O28   O     O_R   0.177260 0.309970 0.513710 -0.561389
O29   O     O_R   0.677260 0.190030 0.513710 -0.561221
O30   O     O_R   0.322740 0.809970 0.486290 -0.562642
O31   O     O_R   0.322740 0.190030 0.486290 -0.567070
O32   O     O_R   0.677260 0.809970 0.513710 -0.565920
C9    C     C_R   0.196885 0.631680 0.525662 0.779856
C10   C     C_R   0.803634 0.368225 0.472627 0.771015
C11   C     C_R   0.800440 0.630928 0.483005 0.767087
C12   C     C_R   0.197392 0.368381 0.524227 0.780595
C13   C     C_R   0.696231 0.131905 0.529118 0.775321
C14   C     C_R   0.300544 0.869060 0.482033 0.768918
C15   C     C_R   0.303847 0.131938 0.471058 0.774360
C16   C     C_R   0.695723 0.867993 0.530778 0.770499
C17   C     C_R   0.024930 0.625592 0.581672 0.063055
C18   C     C_R   0.952877 0.370144 0.495945 0.063459
C19   C     C_R   0.926407 0.622696 0.569125 0.057908
C20   C     C_R   0.038427 0.369068 0.541226 0.079732
C21   C     C_R   0.546178 0.129028 0.513925 0.058926
C22   C     C_R   0.429567 0.877372 0.557178 0.058971
C23   C     C_R   0.459763 0.127825 0.471231 0.061069
C24   C     C_R   0.528251 0.873600 0.567556 0.062183
C25   C     C_R   0.992147 0.687627 0.601994 -0.068982
C26   C     C_R   0.976345 0.304372 0.501061 -0.059184
C27   C     C_R   0.942477 0.685851 0.597282 -0.090070
C28   C     C_R   0.018897 0.303742 0.524888 -0.033620
C29   C     C_R   0.529724 0.193514 0.489830 -0.072758
C30   C     C_R   0.446066 0.813568 0.582954 -0.091861
C31   C     C_R   0.486616 0.192830 0.467541 -0.061179
C32   C     C_R   0.495932 0.811355 0.586486 -0.077051
C33   C     C_R   0.958568 0.561244 0.550626 0.008348
C34   C     C_R   0.014503 0.433732 0.536641 0.004795
C35   C     C_R   0.006525 0.562132 0.559919 0.007088
C36   C     C_R   0.969612 0.433812 0.519651 -0.001569
C37   C     C_R   0.475821 0.064573 0.497662 0.001802
C38   C     C_R   0.510803 0.936936 0.543844 0.006454
C39   C     C_R   0.521096 0.064526 0.513562 -0.000696
C40   C     C_R   0.462656 0.938140 0.535474 0.006665
C41   C     C_R   0.446393 0.001282 0.508675 -0.013513
C42   C     C_R   0.540099 0.000320 0.532978 -0.016275
C43   C     C_R   0.942015 0.497880 0.524860 -0.013170
C44   C     C_R   0.035223 0.498482 0.550522 -0.013939
C45   C     C_R   0.368576 0.939635 0.510987 0.008766
C46   C     C_R   0.613224 0.065065 0.542922 0.013428
C47   C     C_R   0.610148 0.935432 0.553282 0.017833
C48   C     C_R   0.384294 0.064192 0.466803 0.012730
C49   C     C_R   0.882021 0.435118 0.477873 0.014673
C50   C     C_R   0.109230 0.564093 0.557807 0.015211
C51   C     C_R   0.111130 0.434531 0.551762 0.015475
C52   C     C_R   0.867124 0.560902 0.517670 0.011170
C53   C     C_R   0.327534 0.936892 0.482343 -0.153113
C54   C     C_R   0.663258 0.065400 0.547215 -0.177164
C55   C     C_R   0.662220 0.934768 0.550719 -0.183845
C56   C     C_R   0.335603 0.065069 0.458870 -0.191498
C57   C     C_R   0.835230 0.434829 0.463726 -0.190389
C58   C     C_R   0.165489 0.564873 0.536769 -0.150859
C59   C     C_R   0.166276 0.434929 0.534765 -0.144391
C60   C     C_R   0.827448 0.563351 0.485394 -0.151851
C61   C     C_R   0.313162 0.999997 0.452322 -0.100007
C62   C     C_R   0.684704 0.000155 0.558793 -0.099030
C63   C     C_R   0.814065 0.500043 0.454267 -0.096465
C64   C     C_R   0.194207 0.500070 0.515399 -0.098644
C65   C     C_R   0.399981 0.001521 0.494728 0.068739
C66   C     C_R   0.588354 0.000087 0.541958 0.070064
C67   C     C_R   0.897187 0.498136 0.506225 0.068876
C68   C     C_R   0.085468 0.499205 0.552639 0.075281
C69   C     C_R   0.577155 0.874383 0.573658 -0.173450
C70   C     C_R   0.417781 0.124213 0.447379 -0.160423
C71   C     C_R   0.380212 0.882229 0.553634 -0.164926
C72   C     C_R   0.585476 0.127988 0.543323 -0.151623
C73   C     C_R   0.081010 0.371605 0.563517 -0.166778
C74   C     C_R   0.878440 0.619017 0.560228 -0.168263
C75   C     C_R   0.914060 0.374054 0.464994 -0.150393
C76   C     C_R   0.075595 0.625046 0.582801 -0.182729
H1    H     H_    0.587276 0.828851 0.601698 0.189162
H2    H     H_    0.412674 0.167390 0.409848 0.189853
H3    H     H_    0.350196 0.841998 0.587242 0.193960
H4    H     H_    0.590445 0.176254 0.572970 0.186724
H5    H     H_    0.089590 0.324405 0.590590 0.189751
H6    H     H_    0.849193 0.660763 0.589528 0.198389
H7    H     H_    0.911355 0.330142 0.426082 0.188019
H8    H     H_    0.087858 0.671396 0.606176 0.196229
C77   C     C_R   0.227377 0.773779 0.947392 0.036858
C78   C     C_R   0.770618 0.216310 0.055550 0.039789
C79   C     C_R   0.790142 0.745741 0.037052 0.043884
C80   C     C_R   0.222260 0.235307 0.952296 0.038478
C81   C     C_R   0.711179 0.247684 0.961779 0.042843
C82   C     C_R   0.282129 0.733154 0.046122 0.036395
C83   C     C_R   0.277245 0.278870 0.049492 0.038546
C84   C     C_R   0.730732 0.714495 0.943132 0.040028
C85   C     C_R   0.262016 0.713599 0.919367 -0.057531
C86   C     C_R   0.732165 0.271820 0.086150 -0.055300
C87   C     C_R   0.747417 0.695635 0.073504 -0.052200
C88   C     C_R   0.276892 0.258670 0.905241 -0.052964
C89   C     C_R   0.753830 0.197487 0.925277 -0.054265
C90   C     C_R   0.254257 0.798822 0.066151 -0.056819
C91   C     C_R   0.220807 0.266339 0.095966 -0.057027
C92   C     C_R   0.769576 0.769566 0.912219 -0.060078
C93   C     C_R   0.284465 0.689352 0.975494 0.044802
C94   C     C_R   0.697020 0.278529 0.046585 0.044040
C95   C     C_R   0.723161 0.673364 0.018909 0.045814
C96   C     C_R   0.305697 0.273489 0.954816 0.047297
C97   C     C_R   0.778052 0.175145 0.979813 0.045650
C98   C     C_R   0.222547 0.815282 0.021758 0.049693
C99   C     C_R   0.194838 0.236986 0.047440 0.050248
C100  C     C_R   0.804658 0.776134 0.951944 0.046024
C101  C     C_R   0.159160 0.848817 0.932756 0.069632
C102  C     C_R   0.838270 0.143860 0.073010 0.066847
C103  C     C_R   0.864321 0.811531 0.044642 0.067563
C104  C     C_R   0.141896 0.181452 0.949548 0.073019
C105  C     C_R   0.636537 0.312750 0.954859 0.067125
C106  C     C_R   0.340686 0.649426 0.072021 0.065853
C107  C     C_R   0.360551 0.316980 0.052751 0.069880
C108  C     C_R   0.662276 0.643016 0.926460 0.066326
C109  C     C_R   0.125446 0.861917 0.890841 -0.121405
C110  C     C_R   0.873838 0.135406 0.111537 -0.121363
C111  C     C_R   0.886837 0.842414 0.098009 -0.125608
C112  C     C_R   0.117129 0.151985 0.898636 -0.126126
C113  C     C_R   0.613472 0.342812 0.901844 -0.120869
C114  C     C_R   0.374589 0.636241 0.112210 -0.126546
C115  C     C_R   0.385242 0.346170 0.102458 -0.133465
C116  C     C_R   0.626414 0.635092 0.888344 -0.126322
C117  C     C_R   0.138603 0.830634 0.808039 -0.262197
C118  C     C_R   0.861782 0.169272 0.192484 -0.259190
C119  C     C_R   0.865148 0.823803 0.188683 -0.252670
C120  C     C_R   0.139619 0.167002 0.807284 -0.265026
C121  C     C_R   0.634842 0.323742 0.811351 -0.265617
C122  C     C_R   0.361952 0.667679 0.194702 -0.224476
C123  C     C_R   0.362540 0.331471 0.193893 -0.233789
C124  C     C_R   0.638402 0.669150 0.807569 -0.257862
H9    H     H_    0.116806 0.846022 0.771439 0.197029
H10   H     H_    0.885114 0.156948 0.227502 0.193291
H11   H     H_    0.880517 0.849494 0.230087 0.199028
H12   H     H_    0.118586 0.150789 0.769719 0.195329
H13   H     H_    0.619098 0.348878 0.770170 0.195069
H14   H     H_    0.382876 0.650897 0.232191 0.198676
H15   H     H_    0.384096 0.346092 0.231174 0.195752
H16   H     H_    0.614816 0.657277 0.772847 0.195592
C125  C     C_R   0.180884 0.782170 0.769700 -0.115536
C126  C     C_R   0.818397 0.216178 0.231132 -0.119913
C127  C     C_R   0.822404 0.775524 0.228396 -0.117181
C128  C     C_R   0.189674 0.200215 0.762664 -0.110568
C129  C     C_R   0.677758 0.275749 0.771498 -0.114189
C130  C     C_R   0.321042 0.718382 0.230989 -0.121588
C131  C     C_R   0.311288 0.300957 0.238406 -0.097345
C132  C     C_R   0.681994 0.715716 0.768714 -0.115274
C133  C     C_R   0.205299 0.755965 0.822335 0.005774
C134  C     C_R   0.792543 0.239131 0.179416 0.010264
C135  C     C_R   0.801217 0.742789 0.174094 0.007763
C136  C     C_R   0.220355 0.213473 0.809509 0.002843
C137  C     C_R   0.699356 0.243607 0.825492 0.008145
C138  C     C_R   0.300484 0.747884 0.175003 0.006920
C139  C     C_R   0.279724 0.294375 0.192368 -0.003192
C140  C     C_R   0.708352 0.738027 0.819947 0.004858
C141  C     C_R   0.197166 0.792665 0.900998 0.074378
C142  C     C_R   0.800769 0.200258 0.102257 0.073501
C143  C     C_R   0.818468 0.766806 0.085581 0.076931
C144  C     C_R   0.194659 0.210564 0.903898 0.075124
C145  C     C_R   0.682474 0.268185 0.913704 0.075411
C146  C     C_R   0.307925 0.710507 0.097434 0.077802
C147  C     C_R   0.305796 0.296554 0.098173 0.074694
C148  C     C_R   0.700197 0.698964 0.896868 0.073585
C149  C     C_R   0.156300 0.889484 0.005226 -0.181662
C150  C     C_R   0.836687 0.095826 0.010028 -0.175698
C151  C     C_R   0.886197 0.821741 0.951050 -0.187663
C152  C     C_R   0.116531 0.181828 0.043925 -0.192133
C153  C     C_R   0.615139 0.323580 0.048317 -0.191932
C154  C     C_R   0.336061 0.602046 0.011559 -0.170419
C155  C     C_R   0.389171 0.304717 0.960520 -0.178651
C156  C     C_R   0.663764 0.594845 0.989326 -0.176512
C157  C     C_R   0.184297 0.870302 0.051716 -0.225736
C158  C     C_R   0.806348 0.110616 0.965625 -0.237913
C159  C     C_R   0.856018 0.806845 0.906436 -0.254064
C160  C     C_R   0.143186 0.205905 0.091149 -0.229584
C161  C     C_R   0.645741 0.309382 0.092365 -0.239803
C162  C     C_R   0.305914 0.620291 0.968011 -0.230941
C163  C     C_R   0.362691 0.278865 0.913770 -0.233126
C164  C     C_R   0.694466 0.609135 0.033288 -0.239840
C165  C     C_R   0.239317 0.696338 0.796561 -0.158015
C166  C     C_R   0.760178 0.300407 0.200696 -0.131631
C167  C     C_R   0.762570 0.687861 0.205426 -0.163848
C168  C     C_R   0.275344 0.231735 0.765110 -0.154325
C169  C     C_R   0.738103 0.188779 0.794072 -0.161338
C170  C     C_R   0.276773 0.815299 0.190142 -0.143818
C171  C     C_R   0.223103 0.291800 0.236950 -0.116775
C172  C     C_R   0.741192 0.798873 0.798383 -0.151035
C173  C     C_R   0.271369 0.679204 0.837739 -0.029510
C174  C     C_R   0.731034 0.318353 0.154079 -0.024514
C175  C     C_R   0.732203 0.669157 0.161423 -0.041792
C176  C     C_R   0.300980 0.263235 0.810195 -0.036954
C177  C     C_R   0.768855 0.170703 0.837553 -0.040165
C178  C     C_R   0.258819 0.843962 0.131200 -0.013382
C179  C     C_R   0.193290 0.283741 0.189189 -0.015525
C180  C     C_R   0.770893 0.816137 0.844259 -0.037997
H17   H     H_    0.134067 0.938443 0.026853 0.184107
H18   H     H_    0.856853 0.044909 0.996962 0.172634
H19   H     H_    0.926863 0.839810 0.909716 0.181102
H20   H     H_    0.075091 0.165895 0.083985 0.177351
H21   H     H_    0.574472 0.341390 0.090133 0.181927
H22   H     H_    0.352977 0.549055 0.001311 0.169935
H23   H     H_    0.432647 0.310709 0.925141 0.158917
H24   H     H_    0.643200 0.544209 0.002675 0.172095
H25   H     H_    0.173912 0.898899 0.113148 0.164637
H26   H     H_    0.804286 0.069843 0.921948 0.154974
H27   H     H_    0.873887 0.817827 0.835269 0.141356
H28   H     H_    0.122736 0.197845 0.162844 0.159502
H29   H     H_    0.628151 0.320666 0.163495 0.162176
H30   H     H_    0.299228 0.579014 0.929534 0.159087
H31   H     H_    0.387952 0.262129 0.845594 0.153918
H32   H     H_    0.696423 0.568243 0.076859 0.154378
H33   H     H_    0.242094 0.662341 0.742828 0.208062
H34   H     H_    0.760551 0.337690 0.249485 0.195045
H35   H     H_    0.754514 0.658777 0.265477 0.212699
H36   H     H_    0.299393 0.223449 0.694056 0.218715
H37   H     H_    0.745880 0.159208 0.734433 0.208251
H38   H     H_    0.278174 0.848888 0.241494 0.184849
H39   H     H_    0.201785 0.303725 0.307933 0.210307
H40   H     H_    0.740736 0.836520 0.750075 0.199134
O33   O     O_R   0.051640 0.926880 0.885090 -0.582748
O34   O     O_R   0.948360 0.073120 0.114910 -0.583485
O35   O     O_R   0.948360 0.926880 0.114910 -0.571096
O36   O     O_R   0.051640 0.073120 0.885090 -0.575387
O37   O     O_R   0.551640 0.426880 0.885090 -0.583792
O38   O     O_R   0.448360 0.573120 0.114910 -0.571187
O39   O     O_R   0.448360 0.426880 0.114910 -0.582181
O40   O     O_R   0.551640 0.573120 0.885090 -0.576253
Cu9   Cu    Cu3+1 0.495240 0.500000 0.924150 0.960429
Cu10  Cu    Cu3+1 0.504760 0.500000 0.075850 0.963643
Cu11  Cu    Cu3+1 0.995240 1.000000 0.924150 0.955415
Cu12  Cu    Cu3+1 0.004760 0.000000 0.075850 0.965564
C181  C     C_R   0.928005 0.900271 0.064721 0.801872
C182  C     C_R   0.072354 0.099285 0.935036 0.801212
C183  C     C_R   0.077029 0.908090 0.930733 0.810755
C184  C     C_R   0.922774 0.091068 0.069816 0.807957
C185  C     C_R   0.428690 0.399865 0.064673 0.793023
C186  C     C_R   0.577291 0.590993 0.930159 0.820100
C187  C     C_R   0.572101 0.400396 0.935192 0.780865
C188  C     C_R   0.422692 0.590771 0.070098 0.827222
O41   O     O_R   0.940620 0.926560 0.986760 -0.608417
O42   O     O_R   0.059380 0.073440 0.013240 -0.603576
O43   O     O_R   0.059380 0.926560 0.013240 -0.593762
O44   O     O_R   0.940620 0.073440 0.986760 -0.592418
O45   O     O_R   0.440620 0.426560 0.986760 -0.597132
O46   O     O_R   0.559380 0.573440 0.013240 -0.586785
O47   O     O_R   0.559380 0.426560 0.013240 -0.611331
O48   O     O_R   0.440620 0.573440 0.986760 -0.590863
C189  C     C_2   0.514822 0.742453 0.605710 0.340642
H41   H     H_    0.488063 0.710615 0.662797 0.049043
O49   O     O_2   0.559746 0.719525 0.555748 -0.504941
C190  C     C_2   0.469845 0.260931 0.442212 0.336409
H42   H     H_    0.500232 0.297789 0.397416 0.064879
O50   O     O_2   0.422326 0.277916 0.474366 -0.489323
C191  C     C_2   0.414096 0.746850 0.599232 0.362897
H43   H     H_    0.407904 0.712815 0.655134 0.047039
O51   O     O_2   0.396651 0.727765 0.547950 -0.500920
C192  C     C_2   0.558172 0.261840 0.484709 0.309175
H44   H     H_    0.535367 0.310901 0.507369 0.096190
O52   O     O_2   0.607360 0.264379 0.451574 -0.500702
C193  C     C_2   0.043539 0.234381 0.528904 0.329583
H45   H     H_    0.017857 0.188925 0.560798 0.067014
O53   O     O_2   0.092481 0.226487 0.492850 -0.491808
C194  C     C_2   0.910049 0.752343 0.615732 0.369553
H46   H     H_    0.901217 0.783381 0.675347 0.056321
O54   O     O_2   0.895083 0.774578 0.562494 -0.497349
C195  C     C_2   0.956189 0.235528 0.483904 0.305204
H47   H     H_    0.984467 0.193570 0.447076 0.093449
O55   O     O_2   0.907860 0.223969 0.514198 -0.508008
C196  C     C_2   0.010041 0.755947 0.624453 0.342478
H48   H     H_    0.982860 0.785692 0.683452 0.045159
O56   O     O_2   0.054276 0.781025 0.574989 -0.513178
C197  C     C_2   0.279930 0.998542 0.404028 0.457951
H49   H     H_    0.299668 0.000962 0.331302 0.057202
O57   O     O_2   0.230653 0.997064 0.445163 -0.468501
C198  C     C_2   0.725589 0.000237 0.592315 0.464891
H50   H     H_    0.712362 0.999780 0.664042 0.038533
O58   O     O_2   0.773863 0.000431 0.540271 -0.455938
C199  C     C_2   0.783151 0.501436 0.402021 0.448477
H51   H     H_    0.804683 0.499341 0.329321 0.030349
O59   O     O_2   0.733815 0.502639 0.439822 -0.452477
C200  C     C_2   0.253851 0.500205 0.459411 0.461238
H52   H     H_    0.280218 0.502535 0.490879 0.103984
O60   O     O_2   0.273400 0.497142 0.377785 -0.548105
C201  C     C_2   0.319551 0.633986 0.785122 0.331995
H53   H     H_    0.355388 0.639154 0.794484 0.069722
O61   O     O_2   0.320317 0.591595 0.729361 -0.527995
C202  C     C_2   0.706108 0.390288 0.169482 0.350376
H54   H     H_    0.698168 0.415338 0.118538 0.072536
O62   O     O_2   0.694944 0.422983 0.238731 -0.483099
C203  C     C_2   0.680166 0.631950 0.216270 0.387776
H55   H     H_    0.645831 0.640710 0.203591 0.083841
O63   O     O_2   0.674594 0.592415 0.277668 -0.476070
C204  C     C_2   0.347367 0.310864 0.756442 0.357810
H56   H     H_    0.356066 0.355996 0.788013 0.087310
O64   O     O_2   0.375724 0.301148 0.676209 -0.508994
C205  C     C_2   0.821019 0.133797 0.782437 0.388961
H57   H     H_    0.855302 0.142571 0.795265 0.073599
O65   O     O_2   0.826751 0.094501 0.720686 -0.482069
C206  C     C_2   0.254797 0.922708 0.129129 0.330884
H58   H     H_    0.259161 0.949164 0.068707 0.080624
O66   O     O_2   0.247569 0.959022 0.194085 -0.529145
C207  C     C_2   0.135556 0.305697 0.234591 0.339385
H59   H     H_    0.115414 0.321095 0.195219 0.075556
O67   O     O_2   0.110122 0.308361 0.316301 -0.526163
C208  C     C_2   0.796528 0.887641 0.828145 0.341028
H60   H     H_    0.804432 0.912901 0.879043 0.081613
O68   O     O_2   0.808366 0.919729 0.758296 -0.492662

loop_
_geom_bond_atom_site_label_1
_geom_bond_atom_site_label_2
_geom_bond_distance
_ccdc_geom_bond_type
C200  O60   1.220642 D    
C28   C193  1.490353 S    
C140  C172  1.404927 A    
C159  H27   1.081745 S    
Cu2   Cu5   2.669440 S    
C182  O42   1.285915 A    
C116  C186  1.473742 S    
C70   H2    1.076807 S    
C205  H57   1.084639 S    
C193  H45   1.085186 S    
C110  C118  1.393945 A    
C122  H14   1.083423 S    
C77   C98   1.424493 A    
C2    C129  1.492148 S    
C139  C147  1.404248 A    
Cu11  Cu12  2.678426 S    
Cu6   O22   1.954691 S    
C137  C145  1.408892 A    
C6    O22   1.284867 A    
C82   C93   1.419717 A    
Cu9   O48   1.964055 S    
C95   C164  1.406974 A    
C62   C198  1.485232 S    
O3    Cu3   1.962508 S    
C50   C76   1.416791 A    
C140  C148  1.410273 A    
C102  C110  1.420165 A    
C19   C33   1.407075 A    
C82   C146  1.417967 A    
C55   C62   1.414577 A    
O15   Cu7   1.952145 S    
C150  C158  1.388704 A    
C162  H30   1.079065 S    
Cu10  O46   1.964494 S    
C36   C43   1.410593 A    
O25   C9    1.282683 A    
C17   C76   1.421425 A    
C105  C145  1.416210 A    
C37   C39   1.405156 A    
Cu12  O42   1.964494 S    
C196  O56   1.221012 D    
C118  H10   1.083603 S    
C75   H7    1.076441 S    
C111  C181  1.491184 S    
C179  C207  1.487784 S    
C206  H58   1.085220 S    
C154  H22   1.081907 S    
C4    C131  1.468621 S    
C53   C61   1.417574 A    
C72   H4    1.073986 S    
C81   C94   1.414264 A    
C156  C164  1.389253 A    
C3    O19   1.283704 A    
O36   C182  1.312647 A    
C105  C113  1.432468 A    
C198  H50   1.084765 S    
C93   C162  1.411113 A    
C38   C42   1.408566 A    
O12   Cu4   1.952145 S    
O13   Cu5   1.951892 S    
C150  H18   1.080572 S    
C57   C63   1.401520 A    
C23   C31   1.419809 A    
O36   Cu11  1.960875 S    
C29   C192  1.491485 S    
C164  H32   1.080050 S    
C91   C179  1.427789 A    
C192  H44   1.085140 S    
C153  H21   1.076125 S    
C82   C90   1.414778 A    
C135  C167  1.408361 A    
C8    O24   1.285959 A    
C168  H36   1.077041 S    
C133  C141  1.412142 A    
C41   C65   1.417038 A    
C206  O66   1.221636 D    
O2    C13   1.305171 A    
C80   C99   1.418413 A    
C160  H28   1.079272 S    
C115  C185  1.477379 S    
C139  C171  1.402684 A    
C153  C161  1.387932 A    
C190  O50   1.220937 D    
C169  C177  1.399744 A    
C106  C154  1.399790 A    
Cu3   O19   1.955143 S    
O10   Cu2   1.951892 S    
C111  C119  1.399208 A    
C112  C120  1.392623 A    
C137  C169  1.408537 A    
C97   C158  1.406755 A    
O4    Cu4   1.962510 S    
C81   C89   1.417757 A    
C78   C86   1.412867 A    
C126  C134  1.426700 A    
C103  C151  1.412414 A    
C33   C43   1.415167 A    
C103  C111  1.431814 A    
O6    Cu6   1.962339 S    
C16   C55   1.507929 S    
C49   C75   1.409217 A    
C174  C202  1.488153 S    
C118  C126  1.392802 A    
O1    C14   1.297228 A    
O27   C11   1.286902 A    
O15   C4    1.295460 A    
C18   C36   1.406988 A    
C191  O51   1.220989 D    
C22   C30   1.422134 A    
C34   C36   1.405750 A    
C22   C40   1.407341 A    
O7    C12   1.306148 A    
Cu2   O26   1.968309 S    
O39   Cu10  1.960875 S    
C38   C40   1.412693 A    
C35   C44   1.407823 A    
C197  O57   1.221583 D    
C104  C152  1.406517 A    
C71   H3    1.075568 S    
C201  O61   1.221669 D    
C64   C200  1.486804 S    
C19   C27   1.424271 A    
C45   C53   1.431502 A    
C22   C71   1.407409 A    
C47   C55   1.432587 A    
C183  O43   1.285572 A    
C113  C121  1.398906 A    
C78   C142  1.420871 A    
O16   C3    1.306947 A    
C136  C144  1.407673 A    
O29   C13   1.291485 A    
C123  H15   1.083497 S    
C46   C66   1.408627 A    
C161  H29   1.082433 S    
C107  C147  1.410159 A    
C121  H13   1.083250 S    
Cu4   O28   1.968323 S    
C78   C97   1.419278 A    
Cu5   O29   1.968309 S    
C165  H33   1.078440 S    
Cu7   O31   1.968323 S    
C5    C126  1.481833 S    
Cu8   O32   1.968323 S    
C102  C150  1.406042 A    
C109  C117  1.393498 A    
C204  H56   1.085147 S    
C184  O44   1.289124 A    
O35   C181  1.311920 A    
C185  O45   1.293448 A    
C187  O47   1.286648 A    
Cu2   O18   1.954691 S    
C208  O68   1.221508 D    
Cu4   Cu7   2.668852 S    
C189  H41   1.084375 S    
O5    Cu5   1.962341 S    
C30   C191  1.489729 S    
C157  H25   1.077365 S    
C20   C28   1.420413 A    
O9    C6    1.307935 A    
O26   C10   1.284323 A    
O11   C8    1.308843 A    
C207  O67   1.221095 D    
O12   C7    1.303036 A    
C49   C67   1.412066 A    
O13   C2    1.309051 A    
C116  C124  1.394171 A    
C112  C182  1.487398 S    
C31   C190  1.491092 S    
C165  C173  1.395929 A    
C83   C147  1.417654 A    
C119  H11   1.083227 S    
C11   C60   1.487268 S    
C120  H12   1.083564 S    
O35   Cu12  1.960875 S    
C13   C54   1.498221 S    
C24   C38   1.411626 A    
C130  C138  1.419685 A    
C34   C44   1.412081 A    
C15   C56   1.496892 S    
C79   C143  1.426605 A    
C39   C42   1.415779 A    
C172  H40   1.081147 S    
C155  C163  1.389015 A    
O1    Cu1   1.962341 S    
C170  C178  1.405722 A    
C180  C208  1.488095 S    
C17   C35   1.411528 A    
C50   C68   1.409926 A    
C48   C65   1.410490 A    
C24   C69   1.413588 A    
C21   C39   1.401452 A    
O7    Cu7   1.962508 S    
O8    Cu8   1.962510 S    
C59   C64   1.407107 A    
C42   C66   1.421054 A    
O33   Cu11  1.960795 S    
C83   C91   1.417989 A    
O34   Cu12  1.960792 S    
C73   H5    1.073385 S    
C166  C174  1.404125 A    
C107  C115  1.413794 A    
C87   C175  1.424765 A    
C51   C59   1.428922 A    
C56   C61   1.401362 A    
C21   C72   1.393421 A    
C1    O17   1.289256 A    
C48   C56   1.423812 A    
C7    C128  1.477870 S    
C33   C35   1.415698 A    
C8    C127  1.492999 S    
Cu10  O47   1.964057 S    
C170  H38   1.083320 S    
C199  O59   1.221531 D    
C69   H1    1.075669 S    
O11   Cu3   1.952145 S    
C192  O52   1.220889 D    
C89   C97   1.428138 A    
C79   C87   1.418057 A    
C80   C88   1.424834 A    
C173  C201  1.488514 S    
Cu11  O41   1.964494 S    
C108  C156  1.406050 A    
C21   C29   1.419945 A    
C138  C146  1.407930 A    
O40   C186  1.301470 A    
C177  C205  1.488084 S    
C198  O58   1.221800 D    
O37   Cu9   1.960795 S    
C14   C53   1.482140 S    
C205  O65   1.221634 D    
C125  C133  1.428453 A    
C167  C175  1.400266 A    
C25   C27   1.423340 A    
C128  C136  1.424932 A    
C176  C204  1.488538 S    
C115  C123  1.392337 A    
C151  H19   1.076408 S    
C79   C100  1.414103 A    
C48   C70   1.404292 A    
C124  H16   1.083623 S    
C84   C95   1.419275 A    
C166  H34   1.081321 S    
C200  H52   1.085536 S    
C149  C157  1.381666 A    
C163  H31   1.078172 S    
Cu9   Cu10  2.678426 S    
C152  H20   1.078011 S    
Cu1   O17   1.954690 S    
C106  C146  1.406110 A    
Cu3   O27   1.968323 S    
C193  O53   1.220823 D    
C175  C203  1.487746 S    
C84   C148  1.421507 A    
C63   C199  1.485865 S    
C195  H47   1.085157 S    
C155  H23   1.082767 S    
C136  C168  1.404498 A    
C113  C187  1.490728 S    
C101  C149  1.407187 A    
C191  H43   1.082296 S    
C114  C188  1.468687 S    
C202  H54   1.084720 S    
C60   C63   1.417025 A    
C203  H55   1.084596 S    
C188  O48   1.291716 A    
C86   C94   1.419771 A    
C26   C195  1.490990 S    
C114  C122  1.393069 A    
C37   C41   1.408673 A    
C122  C130  1.393445 A    
C151  C159  1.387947 A    
C149  H17   1.075428 S    
Cu6   O30   1.968309 S    
O4    C15   1.308479 A    
C6    C125  1.486290 S    
O5    C10   1.312818 A    
C90   C178  1.433582 A    
C171  C179  1.403273 A    
C134  C142  1.410501 A    
C81   C145  1.426462 A    
C196  H48   1.084777 S    
C76   H8    1.073996 S    
C51   C68   1.407876 A    
C17   C25   1.423362 A    
C45   C71   1.413423 A    
C106  C114  1.413064 A    
C109  C183  1.480783 S    
C110  C184  1.472371 S    
C47   C69   1.411320 A    
C84   C92   1.413474 A    
C85   C93   1.424803 A    
Cu1   Cu6   2.669440 S    
C27   C194  1.489753 S    
C181  O41   1.287370 A    
C138  C170  1.397980 A    
C134  C166  1.404700 A    
Cu3   Cu8   2.668852 S    
C88   C96   1.424528 A    
C105  C153  1.412867 A    
O10   C5    1.306785 A    
O14   Cu6   1.951892 S    
C197  H49   1.084764 S    
C19   C74   1.413947 A    
C44   C68   1.417627 A    
C133  C165  1.402322 A    
C3    C132  1.481846 S    
O14   C1    1.300249 A    
C201  H53   1.084831 S    
C85   C173  1.425967 A    
C98   C157  1.402583 A    
C1    C130  1.476812 S    
C121  C129  1.398943 A    
C199  H51   1.084723 S    
Cu4   O20   1.955142 S    
Cu5   O21   1.954690 S    
O40   Cu9   1.960875 S    
C4    O20   1.287865 A    
C5    O21   1.284220 A    
C92   C180  1.425459 A    
C101  C109  1.430976 A    
C102  C142  1.409516 A    
C83   C96   1.415732 A    
C26   C28   1.415662 A    
C207  H59   1.085165 S    
C104  C112  1.433904 A    
O2    Cu2   1.962339 S    
C92   C100  1.419943 A    
C80   C144  1.429304 A    
C208  H60   1.084680 S    
C88   C176  1.420324 A    
C91   C99   1.426186 A    
Cu9   O45   1.964494 S    
C190  H42   1.085257 S    
C50   C58   1.440731 A    
C135  C143  1.409025 A    
C25   C196  1.487897 S    
C168  C176  1.389688 A    
C204  O64   1.221412 D    
C117  H9    1.083561 S    
C20   C34   1.406180 A    
C29   C31   1.413605 A    
C46   C54   1.429581 A    
Cu8   O24   1.955142 S    
C9    C58   1.493020 S    
C2    O18   1.285730 A    
C119  C127  1.399362 A    
C7    O23   1.283916 A    
C120  C128  1.391824 A    
C171  H39   1.082118 S    
Cu12  O43   1.964057 S    
C86   C174  1.425545 A    
C77   C141  1.430288 A    
O16   Cu8   1.952145 S    
C104  C144  1.419154 A    
O30   C14   1.289973 A    
C20   C73   1.400150 A    
C45   C65   1.405605 A    
C18   C26   1.420419 A    
C103  C143  1.416327 A    
C96   C163  1.415150 A    
C202  O62   1.221467 D    
C99   C160  1.407773 A    
O38   Cu10  1.960792 S    
O37   C187  1.312440 A    
O38   C188  1.297525 A    
O39   C185  1.301730 A    
C51   C73   1.411369 A    
C49   C57   1.429434 A    
C194  O54   1.221003 D    
C195  O55   1.221087 D    
C46   C72   1.412251 A    
C32   C189  1.489180 S    
C94   C161  1.400070 A    
O3    C16   1.308923 A    
C52   C67   1.408830 A    
C178  C206  1.486796 S    
C158  H26   1.080116 S    
C203  O63   1.221601 D    
O8    C11   1.302502 A    
C132  C140  1.426968 A    
C61   C197  1.485599 S    
O9    Cu1   1.951892 S    
C194  H46   1.083967 S    
C18   C75   1.401346 A    
C89   C177  1.424234 A    
C108  C148  1.410172 A    
C100  C159  1.400445 A    
C52   C60   1.438942 A    
O31   C15   1.288255 A    
C23   C37   1.412736 A    
C77   C85   1.420098 A    
O32   C16   1.293349 A    
C10   C57   1.498637 S    
C131  C139  1.418528 A    
C186  O46   1.289320 A    
C129  C137  1.432482 A    
C40   C41   1.416476 A    
C127  C135  1.432798 A    
O33   C183  1.308471 A    
O34   C184  1.301019 A    
C12   C59   1.486348 S    
C154  C162  1.387068 A    
C123  C131  1.395433 A    
C90   C98   1.427926 A    
C117  C125  1.391462 A    
C23   C70   1.402113 A    
C107  C155  1.396081 A    
C169  H37   1.075994 S    
C156  H24   1.080547 S    
O28   C12   1.281995 A    
Cu11  O44   1.964055 S    
C47   C66   1.410885 A    
C124  C132  1.392931 A    
Cu7   O23   1.955143 S    
C87   C95   1.428934 A    
C189  O49   1.221191 D    
C43   C67   1.421107 A    
C24   C32   1.421183 A    
O6    C9    1.310068 A    
Cu1   O25   1.968309 S    
C172  C180  1.403609 A    
C74   H6    1.074228 S    
C167  H35   1.075937 S    
C108  C116  1.421078 A    
C152  C160  1.388067 A    
C30   C32   1.419153 A    
C52   C74   1.417885 A    
C58   C64   1.410877 A    
C54   C62   1.417158 A    
C101  C141  1.415002 A    
