data_mof_unit_62372.cif
_audit_creation_date              2012-10-26T21:09:50-0400
_audit_creation_method            fapswitch 2.2
_symmetry_space_group_name_H-M    P1
_symmetry_Int_Tables_number       1
_space_group_crystal_system       triclinic
_cell_length_a                    16.002672
_cell_length_b                    14.752842
_cell_length_c                    19.305928
_cell_angle_alpha                 89.969183
_cell_angle_beta                  89.960182
_cell_angle_gamma                 89.990318
_cell_volume                      4557.83609431

loop_
_atom_site_label
_atom_site_type_symbol
_atom_type_description
_atom_site_fract_x
_atom_site_fract_y
_atom_site_fract_z
_atom_type_partial_charge
C1    C     C_R   0.340888 0.500008 0.500020 0.563470
C2    C     C_R   0.496062 0.048210 0.562996 0.100986
C3    C     C_R   0.499984 0.902927 0.500027 -0.022877
C4    C     C_R   0.499983 0.097108 0.500029 -0.023425
C5    C     C_1   0.499993 0.802663 0.500016 0.236665
C6    C     C_1   0.499992 0.197345 0.500017 0.236078
C7    C     C_R   0.500415 0.499964 0.367119 0.574235
C8    C     C_R   0.499554 0.499929 0.632877 0.574101
C9    C     C_R   0.446538 0.555214 0.253292 0.076684
C10   C     C_R   0.442674 0.440911 0.744164 0.068487
C11   C     C_R   0.553274 0.555104 0.746702 0.076763
C12   C     C_R   0.659116 0.499990 0.500014 0.561454
C13   C     C_R   0.557030 0.440861 0.255800 0.067419
C14   C     C_R   0.449625 0.555744 0.180742 0.242463
C15   C     C_R   0.446492 0.434028 0.816420 0.232639
C16   C     C_R   0.550106 0.555590 0.819231 0.241531
C17   C     C_R   0.553026 0.433914 0.183567 0.231721
C18   C     C_R   0.500780 0.492523 0.145823 -0.014881
C19   C     C_R   0.498769 0.492536 0.854158 -0.015291
C20   C     C_R   0.501719 0.499322 0.291156 -0.067058
C21   C     C_R   0.498150 0.499238 0.708829 -0.067001
C22   C     C_R   0.499355 0.487906 0.930031 0.331931
C23   C     C_1   0.823070 0.499890 0.500190 0.034294
C24   C     C_R   0.500104 0.487838 0.069945 0.331928
C25   C     C_R   0.956022 0.572141 0.531404 0.100625
C26   C     C_R   0.044006 0.427565 0.469287 0.100133
C27   C     C_R   0.043877 0.572176 0.531404 0.100072
C28   C     C_R   0.956154 0.427518 0.469291 0.100693
C29   C     C_R   0.912728 0.499841 0.500304 -0.007283
C30   C     C_R   0.087294 0.499912 0.500313 -0.003858
C31   C     C_3   0.445135 0.683718 0.112078 0.020414
C32   C     C_3   0.435468 0.772570 0.152028 -0.240707
C33   C     C_3   0.479036 0.850798 0.114878 -0.472266
C34   C     C_1   0.176946 0.499994 0.500224 0.038478
C35   C     C_3   0.445184 0.290215 0.857913 0.028512
C36   C     C_3   0.394729 0.221073 0.899395 -0.234526
C37   C     C_3   0.442237 0.131848 0.906970 -0.481313
C38   C     C_3   0.554096 0.683427 0.887986 0.021031
C39   C     C_3   0.568055 0.773733 0.850857 -0.238976
C40   C     C_3   0.524036 0.851429 0.888258 -0.472921
C41   C     C_3   0.553935 0.290012 0.142343 0.029380
C42   C     C_3   0.604095 0.220697 0.100819 -0.234675
C43   C     C_3   0.556482 0.131506 0.093638 -0.481311
C44   C     C_1   0.251934 0.500020 0.500126 0.058123
C45   C     C_1   0.748078 0.499950 0.500097 0.054598
C46   C     C_R   0.495783 0.951738 0.562965 0.102386
C47   C     C_R   0.503891 0.048302 0.437064 0.102800
C48   C     C_R   0.504172 0.951836 0.437094 0.101055
Cu1   Cu    Cu3+1 0.500000 0.589220 0.500000 1.104614
Cu2   Cu    Cu3+1 0.500000 0.410780 0.500000 1.103129
H1    H     H_    0.420028 0.693187 0.058906 0.166774
H2    H     H_    0.381330 0.248955 0.951734 0.187658
H3    H     H_    0.334348 0.207990 0.872780 0.209733
H4    H     H_    0.453649 0.101148 0.855282 0.185919
H5    H     H_    0.404843 0.083690 0.938514 0.157563
H6    H     H_    0.503064 0.143333 0.933222 0.148648
H7    H     H_    0.576359 0.689709 0.942289 0.165408
H8    H     H_    0.485526 0.669563 0.890713 0.117793
H9    H     H_    0.636101 0.788404 0.848082 0.211205
H10   H     H_    0.543288 0.768905 0.797286 0.212601
H11   H     H_    0.455687 0.838694 0.890837 0.164040
H12   H     H_    0.513060 0.668048 0.106206 0.116474
H13   H     H_    0.534776 0.915728 0.859675 0.181873
H14   H     H_    0.548978 0.858919 0.941638 0.141690
H15   H     H_    0.494300 0.303420 0.114263 0.132416
H16   H     H_    0.539374 0.260717 0.194189 0.177098
H17   H     H_    0.617209 0.248432 0.048363 0.186989
H18   H     H_    0.664623 0.207600 0.127217 0.210725
H19   H     H_    0.545403 0.100917 0.145437 0.185968
H20   H     H_    0.593638 0.083243 0.062023 0.156928
H21   H     H_    0.495486 0.143003 0.067643 0.149315
H22   H     H_    0.368024 0.788866 0.157957 0.212330
H23   H     H_    0.463257 0.764577 0.204348 0.210821
H24   H     H_    0.546848 0.836450 0.109239 0.162238
H25   H     H_    0.471402 0.914002 0.145458 0.184256
H26   H     H_    0.451236 0.861370 0.062780 0.142408
H27   H     H_    0.504723 0.303511 0.886145 0.131970
H28   H     H_    0.459908 0.260822 0.806152 0.176663
I1    I     I_    0.353022 0.635721 0.302922 -0.218330
I2    I     I_    0.511168 0.878082 0.341961 -0.294591
I3    I     I_    0.509140 0.122140 0.341737 -0.282027
I4    I     I_    0.488753 0.877820 0.658098 -0.283669
I5    I     I_    0.348381 0.364835 0.691595 -0.206741
I6    I     I_    0.646625 0.635954 0.697162 -0.201930
I7    I     I_    0.651250 0.364503 0.308296 -0.191080
I8    I     I_    0.112388 0.680795 0.578104 -0.198882
I9    I     I_    0.887712 0.318745 0.422743 -0.183050
I10   I     I_    0.887349 0.680702 0.578140 -0.184844
I11   I     I_    0.112711 0.318946 0.422660 -0.200733
I12   I     I_    0.490775 0.121913 0.658320 -0.289093
N1    N     N_R   0.572997 0.486934 0.034079 -0.180148
N2    N     N_R   0.426452 0.487546 0.965890 -0.179406
N3    N     N_R   0.572641 0.487179 0.965224 -0.187720
N4    N     N_R   0.426811 0.487741 0.034749 -0.186174
N5    N     N_1   0.500000 0.276710 0.500000 -0.153699
N6    N     N_1   0.500000 0.723290 0.500000 -0.153502
O1    O     O_R   0.380310 0.575320 0.500010 -0.481048
O2    O     O_3   0.397807 0.370556 0.850466 -0.515994
O3    O     O_3   0.601750 0.614270 0.855473 -0.513558
O4    O     O_3   0.601486 0.370248 0.149540 -0.516066
O5    O     O_R   0.619690 0.424680 0.499990 -0.482161
O6    O     O_R   0.619690 0.575320 0.499990 -0.482229
O7    O     O_R   0.380310 0.424680 0.500010 -0.480691
O8    O     O_R   0.499990 0.575370 0.400140 -0.474426
O9    O     O_R   0.500010 0.424630 0.599860 -0.476284
O10   O     O_R   0.500010 0.575370 0.599860 -0.472530
O11   O     O_R   0.499990 0.424630 0.400140 -0.474367
O12   O     O_3   0.397749 0.614235 0.144473 -0.513054

loop_
_geom_bond_atom_site_label_1
_geom_bond_atom_site_label_2
_ccdc_geom_bond_type
C23   C45   T    
C41   C42   S    
C14   C18   A    
C35   C36   S    
C8    O9    A    
Cu1   Cu2   S    
Cu1   O8    S    
C32   H22   S    
C2    C46   A    
C26   I11   S    
C15   C19   A    
C40   H13   S    
C18   C24   S    
C23   C29   S    
C36   C37   S    
C10   C15   A    
C9    I1    S    
C38   C39   S    
Cu2   N5    S    
C10   I5    S    
C31   O12   S    
C2    I12   S    
C36   H3    S    
C1    C44   S    
C38   H8    S    
C37   H6    S    
C33   H25   S    
C31   C32   S    
Cu2   O9    S    
C35   O2    S    
C1    O7    A    
C36   H2    S    
C14   O12   S    
Cu2   O7    S    
C43   H19   S    
C46   I4    S    
C27   C30   A    
C42   H18   S    
C31   H12   S    
C8    C21   S    
C10   C21   A    
C25   C29   A    
C9    C20   A    
C30   C34   S    
C19   C22   S    
C34   C44   T    
C4    C6    S    
C1    O1    A    
Cu1   O6    S    
C38   O3    S    
C41   H15   S    
C35   H27   S    
C25   I10   S    
C40   H11   S    
C37   H5    S    
C27   I8    S    
C2    C4    A    
C9    C14   A    
C12   O6    A    
C24   N4    A    
N1    N3    A    
C38   H7    S    
C11   C16   A    
C33   H26   S    
C47   C48   A    
C3    C48   A    
C39   H9    S    
C28   I9    S    
N2    N4    A    
C17   C18   A    
C41   O4    S    
C41   H16   S    
C37   H4    S    
C6    N5    T    
C43   H20   S    
C7    O8    A    
Cu2   O11   S    
C22   N3    A    
C7    O11   A    
C42   C43   S    
C15   O2    S    
C24   N1    A    
C32   H23   S    
C5    N6    T    
C28   C29   A    
C43   H21   S    
C35   H28   S    
C13   C20   A    
C31   H1    S    
C12   C45   S    
C3    C5    S    
C8    O10   A    
C16   O3    S    
C26   C30   A    
Cu1   O10   S    
C11   I6    S    
C25   C27   A    
C3    C46   A    
C26   C28   A    
C40   H14   S    
C13   C17   A    
C32   C33   S    
C48   I2    S    
C12   O5    A    
C42   H17   S    
C16   C19   A    
C39   H10   S    
C11   C21   A    
C47   I3    S    
Cu1   N6    S    
C17   O4    S    
Cu1   O1    S    
C39   C40   S    
C33   H24   S    
Cu2   O5    S    
C7    C20   S    
C13   I7    S    
C22   N2    A    
C4    C47   A    
