data_mof_unit_40151.cif
_audit_creation_date              2012-12-10T20:48:47-0500
_audit_creation_method            fapswitch 2.2
_symmetry_space_group_name_H-M    P1
_symmetry_Int_Tables_number       1
_space_group_crystal_system       triclinic
_cell_length_a                    15.800129
_cell_length_b                    8.918232
_cell_length_c                    8.105387
_cell_angle_alpha                 89.995537
_cell_angle_beta                  89.929153
_cell_angle_gamma                 90.0253
_cell_volume                      1142.12273997

loop_
_atom_site_label
_atom_site_type_symbol
_atom_type_description
_atom_site_fract_x
_atom_site_fract_y
_atom_site_fract_z
_atom_type_partial_charge
C1    C     C_R   0.499999 0.217998 0.500004 0.928829
C2    C     C_3   0.050405 0.378145 0.355448 0.486689
C3    C     C_3   0.949298 0.419005 0.673488 0.525769
C4    C     C_3   0.949903 0.394349 0.342971 0.465543
C5    C     C_1   0.750501 0.496381 0.499715 -0.174289
C6    C     C_1   0.249502 0.495889 0.500414 -0.169947
C7    C     C_3   0.082838 0.486737 0.500832 -0.178298
C8    C     C_3   0.917185 0.487068 0.500621 -0.154537
C9    C     C_3   0.950186 0.655824 0.485639 0.642722
C10   C     C_3   0.050340 0.652971 0.464486 0.670288
C11   C     C_3   0.917803 0.255940 0.707884 -0.973924
C12   C     C_1   0.825458 0.492062 0.499901 0.085352
C13   C     C_3   0.902798 0.242316 0.312020 -0.878959
C14   C     C_3   0.096540 0.299019 0.757154 -0.870667
C15   C     C_3   0.081478 0.212666 0.372385 -0.942362
C16   C     C_1   0.174547 0.491443 0.500747 0.091349
C17   C     C_R   0.337932 0.499902 0.500107 0.898325
C18   C     C_R   0.662068 0.500061 0.499901 0.898217
C19   C     C_1   0.500003 0.934769 0.499994 -0.175203
C20   C     C_1   0.500001 0.065210 0.500006 -0.180172
C21   C     C_R   0.500003 0.781979 0.499996 0.945621
C22   C     C_3   0.049708 0.437388 0.680781 0.490886
H1    H     H_    0.077349 0.856868 0.538015 0.337769
H2    H     H_    0.926358 0.191510 0.195529 0.272641
H3    H     H_    0.090782 0.192770 0.690585 0.224878
H4    H     H_    0.165416 0.321049 0.769053 0.226596
H5    H     H_    0.072592 0.279185 0.884248 0.299466
H6    H     H_    0.148641 0.207788 0.411880 0.240680
H7    H     H_    0.043848 0.142121 0.454894 0.211397
H8    H     H_    0.078300 0.156064 0.250341 0.280309
H9    H     H_    0.147364 0.411532 0.202812 0.353090
H10   H     H_    0.128949 0.568742 0.804084 0.365748
H11   H     H_    0.870249 0.490935 0.186393 0.372682
H12   H     H_    0.036411 0.677539 0.220179 0.424900
H13   H     H_    0.852607 0.489625 0.810725 0.347276
H14   H     H_    0.935007 0.843594 0.612371 0.327661
H15   H     H_    0.932463 0.831585 0.342856 0.324890
H16   H     H_    0.955306 0.167036 0.650497 0.221127
H17   H     H_    0.920723 0.232597 0.842512 0.286816
H18   H     H_    0.850657 0.241598 0.671135 0.240122
H19   H     H_    0.908711 0.156740 0.408090 0.220127
H20   H     H_    0.833896 0.260637 0.294644 0.228728
N1    N     N_1   0.500000 0.500030 0.073640 -0.025988
N2    N     N_1   0.500000 0.500030 0.926360 -0.026114
O1    O     O_R   0.500000 0.285340 0.636850 -0.616514
O2    O     O_3   0.078403 0.700768 0.306455 -0.738104
O3    O     O_3   0.927621 0.734383 0.630910 -0.660771
O4    O     O_3   0.909904 0.727896 0.351328 -0.761109
O5    O     O_3   0.085094 0.426607 0.202921 -0.654727
O6    O     O_3   0.066770 0.554876 0.793854 -0.568206
O7    O     O_3   0.932416 0.478836 0.198897 -0.627803
O8    O     O_3   0.914839 0.504582 0.805162 -0.573344
O9    O     O_R   0.500000 0.285340 0.363150 -0.616973
O10   O     O_R   0.377140 0.500000 0.636930 -0.616235
O11   O     O_R   0.377140 0.500000 0.363070 -0.610494
O12   O     O_R   0.622860 0.500000 0.636930 -0.615023
O13   O     O_R   0.622860 0.500000 0.363070 -0.612958
O14   O     O_R   0.500000 0.714650 0.636900 -0.612279
O15   O     O_R   0.500000 0.714650 0.363100 -0.611554
O16   O     O_3   0.087377 0.753185 0.578329 -0.704043
Zn1   Zn    Zn3+2 0.500000 0.499990 0.682780 1.005672
Zn2   Zn    Zn3+2 0.500000 0.499990 0.317220 1.008430

loop_
_geom_bond_atom_site_label_1
_geom_bond_atom_site_label_2
_ccdc_geom_bond_type
C10   O2    S    
C11   H16   S    
C10   O16   S    
C3    O8    S    
N1    N2    T    
C15   H7    S    
H12   O2    S    
O10   Zn1   S    
C14   H5    S    
C7    C10   S    
C7    C22   S    
C9    C10   S    
C17   O11   A    
C18   O13   A    
C2    C4    S    
C19   C20   T    
C18   O12   A    
C22   O6    S    
C1    O1    A    
C14   C22   S    
O14   Zn1   S    
C13   H19   S    
C21   O14   A    
C21   O15   A    
C14   H4    S    
H15   O4    S    
C11   H17   S    
C2    C15   S    
H13   O8    S    
H10   O6    S    
C15   H6    S    
H1    O16   S    
H9    O5    S    
O9    Zn2   S    
C8    C12   S    
O1    Zn1   S    
C7    C16   S    
C19   C21   S    
C9    O3    S    
C14   H3    S    
C11   H18   S    
N2    Zn1   S    
C3    C11   S    
C5    C12   T    
C4    O7    S    
C6    C16   T    
O11   Zn2   S    
C9    O4    S    
O13   Zn2   S    
N1    Zn2   S    
H14   O3    S    
C3    C8    S    
C15   H8    S    
C4    C8    S    
C6    C17   S    
C1    O9    A    
O12   Zn1   S    
C13   H20   S    
C1    C20   S    
C5    C18   S    
C2    C7    S    
C17   O10   A    
C3    C22   S    
H11   O7    S    
C4    C13   S    
C13   H2    S    
C2    O5    S    
C8    C9    S    
O15   Zn2   S    
