data_mof_unit_30719.cif
_audit_creation_date              2012-12-10T17:19:02-0500
_audit_creation_method            fapswitch 2.2
_symmetry_space_group_name_H-M    P1
_symmetry_Int_Tables_number       1
_space_group_crystal_system       triclinic
_cell_length_a                    10.408534
_cell_length_b                    10.694309
_cell_length_c                    13.591751
_cell_angle_alpha                 96.232663
_cell_angle_beta                  100.696029
_cell_angle_gamma                 96.06827
_cell_volume                      1465.53351949

loop_
_atom_site_label
_atom_site_type_symbol
_atom_type_description
_atom_site_fract_x
_atom_site_fract_y
_atom_site_fract_z
_atom_type_partial_charge
C1    C     C_R   0.050567 0.731527 0.490138 0.954967
C2    C     C_2   0.989415 0.058259 0.452313 -0.151652
C3    C     C_2   0.433444 0.516269 0.508791 0.266524
C4    C     C_2   0.566576 0.483535 0.491170 0.345204
C5    C     C_R   0.092420 0.511305 0.685778 0.889569
C6    C     C_R   0.907213 0.487175 0.314180 0.870725
C7    C     C_R   0.140077 0.510083 0.793727 -0.056609
C8    C     C_R   0.854316 0.470713 0.205812 -0.059577
C9    C     C_R   0.128301 0.561443 0.968980 -0.193275
C10   C     C_R   0.845640 0.369652 0.036746 -0.194147
C11   C     C_R   0.070689 0.552985 0.866871 -0.190071
C12   C     C_R   0.946036 0.267129 0.502271 0.938435
C13   C     C_R   0.914222 0.404647 0.135974 -0.204934
C14   C     C_R   0.261785 0.467545 0.823040 -0.217397
C15   C     C_R   0.730497 0.507790 0.174792 -0.190193
C16   C     C_R   0.322029 0.475622 0.924343 0.093760
C17   C     C_R   0.654230 0.461936 0.079688 0.099565
C18   C     C_R   0.255512 0.527781 0.997913 0.156798
C19   C     C_R   0.714887 0.394865 0.008870 0.163370
C20   C     C_R   0.450924 0.442447 0.953215 0.069976
C21   C     C_R   0.519373 0.479827 0.054000 0.061925
C22   C     C_R   0.449503 0.530212 0.126218 -0.157413
C23   C     C_R   0.513714 0.373906 0.884594 -0.222235
C24   C     C_R   0.318760 0.550224 0.098760 -0.220461
C25   C     C_R   0.643354 0.350874 0.912222 -0.203446
C26   C     C_2   0.072763 0.861304 0.471422 -0.334153
C27   C     C_2   0.910084 0.131709 0.490452 -0.296880
C28   C     C_2   0.968894 0.924584 0.454744 -0.169922
H1    H     H_    0.268852 0.588607 0.156289 0.159994
H2    H     H_    0.463736 0.332365 0.809663 0.152187
H3    H     H_    0.078097 0.097236 0.428827 0.197852
H4    H     H_    0.869127 0.880955 0.453331 0.204823
H5    H     H_    0.821872 0.092103 0.514122 0.185742
H6    H     H_    0.172267 0.905651 0.473125 0.191582
H7    H     H_    0.677636 0.637876 0.582565 0.240035
H8    H     H_    0.322480 0.360808 0.419306 0.233869
H9    H     H_    0.431449 0.266427 0.259594 0.387866
H10   H     H_    0.511371 0.557503 0.724907 0.337753
H11   H     H_    0.687497 0.297512 0.857720 0.160080
H12   H     H_    0.693897 0.569707 0.228035 0.152691
H13   H     H_    0.312478 0.435620 0.764897 0.153366
H14   H     H_    0.011208 0.376567 0.158667 0.169505
H15   H     H_    0.974922 0.584075 0.845317 0.173864
H16   H     H_    0.075926 0.599144 0.025063 0.152638
H17   H     H_    0.892429 0.317992 0.983129 0.152576
H18   H     H_    0.491760 0.552636 0.205518 0.192542
N1    N     N_2   0.322180 0.446120 0.460900 -0.228469
N2    N     N_2   0.677820 0.553880 0.539100 -0.245037
O1    O     O_R   0.935190 0.693030 0.507870 -0.627139
O2    O     O_2   0.507182 0.230999 0.450257 -0.339915
O3    O     O_3   0.451574 0.353403 0.296714 -0.631301
O4    O     O_2   0.498007 0.767942 0.555484 -0.295771
O5    O     O_2   0.318172 0.690557 0.630764 -0.242054
O6    O     O_3   0.545201 0.639617 0.705874 -0.567863
O7    O     O_R   0.064810 0.306970 0.492130 -0.633637
O8    O     O_R   0.142080 0.658430 0.482770 -0.538850
O9    O     O_R   0.857920 0.341570 0.517230 -0.538574
O10   O     O_R   0.969700 0.527180 0.651960 -0.621648
O11   O     O_R   0.030300 0.472820 0.348040 -0.629790
O12   O     O_R   0.176600 0.492580 0.626860 -0.569598
O13   O     O_R   0.823400 0.507420 0.373140 -0.558841
O14   O     O_2   0.681751 0.309702 0.369366 -0.251980
S1    S     S_3+6 0.559404 0.341536 0.403093 0.004949
S2    S     S_3+6 0.440896 0.656296 0.598904 0.027901
Zn1   Zn    Zn3+2 0.861850 0.523100 0.516760 1.027212
Zn2   Zn    Zn3+2 0.138150 0.476900 0.483240 1.012990

loop_
_geom_bond_atom_site_label_1
_geom_bond_atom_site_label_2
_ccdc_geom_bond_type
C6    C8    S    
C11   H15   S    
C8    C13   A    
N2    Zn1   S    
C5    C7    S    
N1    Zn2   S    
C26   C28   D    
O10   Zn1   S    
H10   O6    S    
C20   C23   A    
C10   C19   A    
C16   C20   A    
C10   H17   S    
O12   Zn2   S    
C21   C22   A    
C25   H11   S    
C7    C11   A    
O2    S1    D    
C9    C11   A    
C4    S1    S    
C2    C27   D    
O1    Zn1   S    
C5    O10   A    
C14   H13   S    
O8    Zn2   S    
H7    N2    S    
C6    O13   A    
C3    N1    D    
C13   H14   S    
C17   C19   A    
C1    O8    A    
C8    C15   A    
C14   C16   A    
C23   C25   A    
O11   Zn2   S    
C4    N2    D    
C1    C26   S    
H9    O3    S    
O5    S2    D    
C18   C24   A    
C15   H12   S    
C12   O7    A    
C12   O9    A    
C19   C25   A    
C3    C4    S    
C23   H2    S    
O13   Zn1   S    
C9    C18   A    
C28   H4    S    
O7    Zn2   S    
O3    S1    S    
C20   C21   A    
O6    S2    S    
H8    N1    S    
C16   C18   A    
O4    S2    D    
C22   C24   A    
C15   C17   A    
C24   H1    S    
C9    H16   S    
C2    C28   S    
C12   C27   S    
C5    O12   A    
C22   H18   S    
C3    S2    S    
C1    O1    A    
C6    O11   A    
C26   H6    S    
C7    C14   A    
C27   H5    S    
O14   S1    D    
O9    Zn1   S    
C2    H3    S    
C10   C13   A    
C17   C21   A    
