data_mof_unit_47731.cif
_audit_creation_date              2012-10-26T21:27:11-0400
_audit_creation_method            fapswitch 2.2
_symmetry_space_group_name_H-M    P1
_symmetry_Int_Tables_number       1
_space_group_crystal_system       triclinic
_cell_length_a                    12.253116
_cell_length_b                    12.249498
_cell_length_c                    23.532421
_cell_angle_alpha                 90.017073
_cell_angle_beta                  89.890683
_cell_angle_gamma                 90.016539
_cell_volume                      3532.08070071

loop_
_atom_site_label
_atom_site_type_symbol
_atom_type_description
_atom_site_fract_x
_atom_site_fract_y
_atom_site_fract_z
_atom_type_partial_charge
C1    C     C_3   0.000609 0.998759 0.250355 0.129825
C2    C     C_R   0.901445 0.997636 0.292726 0.135628
C3    C     C_R   0.999984 0.651033 0.922046 0.607065
C4    C     C_R   0.999868 0.348385 0.077829 0.602472
C5    C     C_R   0.349081 0.000078 0.422124 0.610288
C6    C     C_R   0.650905 0.000138 0.577923 0.609347
C7    C     C_R   0.000159 0.348678 0.922189 0.607455
C8    C     C_R   0.000026 0.650894 0.077985 0.606133
C9    C     C_R   0.651083 0.000086 0.422092 0.608951
C10   C     C_R   0.348848 0.000073 0.577904 0.608986
C11   C     C_R   0.087990 0.109562 0.169317 0.194656
C12   C     C_3   0.999184 0.999487 0.749888 0.129495
C13   C     C_R   0.905844 0.829727 0.800097 0.282360
C14   C     C_R   0.827862 0.092545 0.700877 0.270564
C15   C     C_R   0.110847 0.912118 0.331574 0.197669
C16   C     C_R   0.911225 0.886687 0.170792 0.210556
C17   C     C_R   0.092911 0.169884 0.799651 0.289913
C18   C     C_R   0.168527 0.906116 0.699118 0.276252
C19   C     C_R   0.890558 0.087404 0.331065 0.198178
C20   C     C_R   0.088527 0.887620 0.829478 0.211733
C21   C     C_R   0.905488 0.166433 0.199150 0.286792
C22   C     C_R   0.831319 0.905590 0.301120 0.277758
C23   C     C_R   0.998316 0.097459 0.207620 0.129251
C24   C     C_R   0.108819 0.087307 0.668631 0.196295
C25   C     C_R   0.912802 0.108908 0.831779 0.196193
C26   C     C_R   0.093472 0.828226 0.200575 0.270333
C27   C     C_R   0.172235 0.091932 0.299243 0.279225
C28   C     C_R   0.888578 0.912232 0.668962 0.197615
C29   C     C_R   0.091471 0.196213 0.129949 0.185329
C30   C     C_R   0.908427 0.746879 0.841742 0.185809
C31   C     C_R   0.745124 0.090418 0.659169 0.181984
C32   C     C_R   0.189235 0.914688 0.375241 0.178381
C33   C     C_R   0.913052 0.808421 0.126902 0.182582
C34   C     C_R   0.997763 0.900214 0.792098 0.130942
C35   C     C_R   0.090717 0.253004 0.841269 0.188839
C36   C     C_R   0.255802 0.911893 0.659961 0.182263
C37   C     C_R   0.807451 0.089164 0.372535 0.184268
C38   C     C_R   0.087051 0.808846 0.873159 0.184398
C39   C     C_R   0.905360 0.245343 0.155378 0.184615
C40   C     C_R   0.743986 0.911612 0.340174 0.182421
C41   C     C_R   0.191965 0.088887 0.627162 0.183612
C42   C     C_R   0.914932 0.188002 0.875328 0.178413
C43   C     C_R   0.091042 0.745647 0.158769 0.180475
C44   C     C_R   0.255186 0.089797 0.340792 0.183594
C45   C     C_R   0.899841 0.001435 0.707645 0.130392
C46   C     C_R   0.810258 0.914596 0.625246 0.178872
C47   C     C_R   0.999262 0.262488 0.122088 0.036671
C48   C     C_R   0.999681 0.735370 0.877292 0.039610
C49   C     C_R   0.735264 0.000568 0.622458 0.041340
C50   C     C_R   0.264661 0.000334 0.377700 0.041170
C51   C     C_R   0.000254 0.734860 0.122860 0.038720
C52   C     C_R   0.000698 0.263434 0.877881 0.041785
C53   C     C_R   0.263487 0.000021 0.622141 0.042598
C54   C     C_R   0.736240 0.000041 0.377811 0.042047
C55   C     C_R   0.099878 0.000962 0.292661 0.131064
C56   C     C_R   0.001885 0.899273 0.208257 0.127482
C57   C     C_R   0.001644 0.098095 0.792738 0.130607
C58   C     C_R   0.098308 0.998116 0.707379 0.135187
Cu1   Cu    Cu3+1 0.889520 0.500000 0.000000 1.143601
Cu2   Cu    Cu3+1 0.110480 0.500000 0.000000 1.139431
Cu3   Cu    Cu3+1 0.500000 0.889520 0.500000 1.147559
Cu4   Cu    Cu3+1 0.500000 0.110480 0.500000 1.133934
H1    H     H_    0.249129 0.195432 0.120410 0.351353
H2    H     H_    0.747724 0.261265 0.150956 0.352792
H3    H     H_    0.657699 0.798406 0.303475 0.347464
H4    H     H_    0.184882 0.244688 0.611857 0.351657
H5    H     H_    0.808479 0.114988 0.923614 0.341422
H6    H     H_    0.247076 0.717995 0.156268 0.350096
H7    H     H_    0.286135 0.245430 0.340955 0.349853
H8    H     H_    0.883584 0.807594 0.577394 0.342335
H9    H     H_    0.204863 0.026070 0.134511 0.343242
H10   H     H_    0.781214 0.773663 0.758863 0.342558
H11   H     H_    0.770350 0.214954 0.743489 0.344821
H12   H     H_    0.752284 0.719990 0.844772 0.351767
H13   H     H_    0.086549 0.755467 0.337027 0.353881
H14   H     H_    0.754201 0.908970 0.167824 0.360126
H15   H     H_    0.214080 0.227699 0.756307 0.348769
H16   H     H_    0.172310 0.747012 0.702071 0.356393
H17   H     H_    0.978997 0.201280 0.364977 0.342369
H18   H     H_    0.245415 0.910883 0.832371 0.360133
H19   H     H_    0.780595 0.224606 0.239540 0.349309
H20   H     H_    0.827586 0.746446 0.298454 0.355869
H21   H     H_    0.019994 0.200298 0.634288 0.342719
H22   H     H_    0.756367 0.083279 0.837493 0.355122
H23   H     H_    0.715499 0.246180 0.658209 0.350303
H24   H     H_    0.217320 0.771499 0.242137 0.344134
H25   H     H_    0.229910 0.213082 0.255915 0.349295
H26   H     H_    0.912393 0.755475 0.663950 0.353684
H27   H     H_    0.115529 0.808534 0.423438 0.342168
H28   H     H_    0.802782 0.880129 0.080612 0.340569
H29   H     H_    0.246497 0.283031 0.841583 0.351668
H30   H     H_    0.342167 0.799005 0.696788 0.347459
H31   H     H_    0.814023 0.245174 0.387375 0.352020
H32   H     H_    0.197774 0.879970 0.919429 0.341451
O1    O     O_R   0.907020 0.615090 0.941240 -0.471488
O2    O     O_R   0.092980 0.615090 0.941240 -0.463549
O3    O     O_R   0.384910 0.092980 0.558760 -0.467958
O4    O     O_R   0.615090 0.907020 0.441240 -0.467949
O5    O     O_R   0.092980 0.615090 0.058760 -0.471854
O6    O     O_R   0.907020 0.384910 0.941240 -0.464874
O7    O     O_R   0.615090 0.907020 0.558760 -0.465520
O8    O     O_R   0.384910 0.092980 0.441240 -0.472971
O9    O     O_3   0.184023 0.215640 0.097826 -0.668984
O10   O     O_3   0.820542 0.677581 0.849317 -0.667905
O11   O     O_3   0.674406 0.177380 0.652587 -0.668400
O12   O     O_R   0.092980 0.384910 0.058760 -0.463864
O13   O     O_3   0.190666 0.836293 0.417527 -0.672470
O14   O     O_3   0.832510 0.805593 0.085827 -0.670928
O15   O     O_3   0.177692 0.323813 0.847747 -0.666695
O16   O     O_3   0.335852 0.832335 0.658559 -0.671395
O17   O     O_3   0.794268 0.177792 0.408273 -0.671004
O18   O     O_3   0.168018 0.805487 0.913987 -0.670664
O19   O     O_3   0.813263 0.307147 0.144708 -0.665145
O20   O     O_3   0.663958 0.831986 0.341660 -0.671157
O21   O     O_3   0.204883 0.177132 0.591164 -0.671245
O22   O     O_3   0.836078 0.190105 0.917441 -0.672704
O23   O     O_R   0.384910 0.907020 0.441240 -0.465601
O24   O     O_3   0.178649 0.675974 0.151351 -0.667803
O25   O     O_3   0.326539 0.176405 0.347038 -0.667417
O26   O     O_3   0.808557 0.835692 0.583197 -0.672374
O27   O     O_3   0.174906 0.038382 0.173143 -0.676456
O28   O     O_3   0.810785 0.845867 0.770063 -0.666716
O29   O     O_3   0.842884 0.186721 0.731907 -0.669304
O30   O     O_3   0.045649 0.821186 0.324849 -0.693187
O31   O     O_3   0.819995 0.951083 0.178723 -0.673878
O32   O     O_3   0.187071 0.155086 0.768556 -0.663891
O33   O     O_3   0.147682 0.808438 0.726345 -0.673189
O34   O     O_R   0.615090 0.092980 0.558760 -0.472872
O35   O     O_3   0.961440 0.174462 0.326316 -0.676384
O36   O     O_3   0.179357 0.952748 0.821709 -0.674337
O37   O     O_3   0.811527 0.151831 0.230479 -0.662709
O38   O     O_3   0.852237 0.807706 0.274081 -0.672061
O39   O     O_3   0.037694 0.174186 0.673052 -0.677061
O40   O     O_3   0.822352 0.042847 0.825197 -0.678149
O41   O     O_3   0.188278 0.843869 0.230902 -0.667636
O42   O     O_3   0.157362 0.186219 0.268380 -0.664225
O43   O     O_3   0.953525 0.821226 0.675923 -0.694162
O44   O     O_R   0.092980 0.384910 0.941240 -0.473158
O45   O     O_R   0.907020 0.615090 0.058760 -0.465062
O46   O     O_R   0.615090 0.092980 0.441240 -0.467513
O47   O     O_R   0.384910 0.907020 0.558760 -0.467898
O48   O     O_R   0.907020 0.384910 0.058760 -0.466019

loop_
_geom_bond_atom_site_label_1
_geom_bond_atom_site_label_2
_ccdc_geom_bond_type
C24   O39   S    
C19   O35   S    
H10   O28   S    
C9    O4    A    
Cu1   O6    S    
H3    O20   S    
Cu3   O4    S    
C14   C31   A    
Cu2   O5    S    
C43   C51   A    
C30   O10   S    
C15   C32   A    
C46   C49   A    
H22   O40   S    
Cu1   O1    S    
C29   C47   A    
C8    O45   A    
C27   O42   S    
C30   C48   A    
C1    C56   S    
C41   O21   S    
C7    C52   S    
C4    O48   A    
C18   O33   S    
C9    O46   A    
C27   C55   A    
C17   O32   S    
H19   O37   S    
H17   O35   S    
C3    C48   S    
C29   O9    S    
C1    C2    S    
C6    O7    A    
H32   O18   S    
C10   C53   S    
C21   O37   S    
C26   O41   S    
C19   C37   A    
H6    O24   S    
C27   C44   A    
C18   C58   A    
C40   O20   S    
Cu1   O48   S    
H8    O26   S    
H11   O29   S    
C32   O13   S    
C2    C22   A    
C3    O2    A    
C36   C53   A    
C16   O31   S    
C38   C48   A    
C35   O15   S    
C12   C58   S    
Cu1   Cu2   S    
C14   O29   S    
C24   C41   A    
C31   O11   S    
C11   O27   S    
C33   O14   S    
C25   C57   A    
C31   C49   A    
H23   O11   S    
H16   O33   S    
C26   C43   A    
C14   C45   A    
C8    O5    A    
C28   C45   A    
H18   O36   S    
H4    O21   S    
Cu3   O23   S    
H13   O30   S    
C13   C30   A    
H1    O9    S    
C7    O6    A    
H20   O38   S    
C44   O25   S    
C39   O19   S    
C39   C47   A    
C4    O12   A    
H7    O25   S    
C5    O23   A    
C10   O47   A    
C15   C55   A    
C10   O3    A    
Cu3   O7    S    
H5    O22   S    
C16   C56   A    
C16   C33   A    
Cu4   O3    S    
C20   C38   A    
C21   C39   A    
Cu1   O45   S    
C22   C40   A    
H27   O13   S    
C46   O26   S    
C25   O40   S    
C8    C51   S    
C41   C53   A    
H31   O17   S    
C37   C54   A    
Cu2   O2    S    
C42   O22   S    
C15   O30   S    
C1    C23   S    
C40   C54   A    
C21   C23   A    
C36   O16   S    
C5    C50   S    
C12   C57   S    
C12   C34   S    
Cu2   O12   S    
H12   O10   S    
C44   C50   A    
C5    O8    A    
H2    O19   S    
C22   O38   S    
C2    C19   A    
H14   O31   S    
H25   O42   S    
H9    O27   S    
C28   O43   S    
Cu3   O47   S    
C20   O36   S    
C12   C45   S    
C26   C56   A    
C25   C42   A    
C7    O44   A    
C33   C51   A    
C28   C46   A    
H29   O15   S    
C1    C55   S    
H28   O14   S    
C13   C34   A    
Cu4   O34   S    
C13   O28   S    
H30   O16   S    
C18   C36   A    
C11   C23   A    
C32   C50   A    
C6    C49   S    
Cu3   Cu4   S    
H26   O43   S    
H21   O39   S    
C43   O24   S    
C6    O34   A    
C20   C34   A    
H24   O41   S    
C37   O17   S    
C11   C29   A    
C24   C58   A    
C42   C52   A    
C35   C52   A    
C3    O1    A    
C9    C54   S    
C17   C35   A    
Cu4   O46   S    
C38   O18   S    
H15   O32   S    
C17   C57   A    
Cu4   O8    S    
C4    C47   S    
Cu2   O44   S    
