data_mof_unit_37433.cif
_audit_creation_date              2013-03-05T16:44:41-0500
_audit_creation_method            fapswitch 2.2
_symmetry_space_group_name_H-M    P1
_symmetry_Int_Tables_number       1
_space_group_crystal_system       triclinic
_cell_length_a                    27.737758
_cell_length_b                    10.654384
_cell_length_c                    9.851598
_cell_angle_alpha                 89.49957
_cell_angle_beta                  90.002294
_cell_angle_gamma                 90.401755
_cell_volume                      2911.24757599

loop_
_atom_site_label
_atom_site_type_symbol
_atom_site_description
_atom_site_fract_x
_atom_site_fract_y
_atom_site_fract_z
_atom_type_partial_charge
O1    O     O_R   0.500010 0.316790 0.614690 -0.620158
O2    O     O_R   0.500000 0.316760 0.385350 -0.568256
C1    C     C_R   0.502970 0.259748 0.500089 0.918234
O3    O     O_R   0.428760 0.500040 0.614660 -0.585097
O4    O     O_R   0.428750 0.500000 0.385310 -0.623655
C2    C     C_R   0.406076 0.501685 0.499910 0.895355
Zn1   Zn    Zn3+2 0.500000 0.500020 0.653130 0.963982
Zn2   Zn    Zn3+2 0.500000 0.499980 0.346870 0.967523
O5    O     O_R   0.500000 0.683240 0.614650 -0.619303
O6    O     O_R   0.499990 0.683210 0.385310 -0.619322
O7    O     O_R   0.571250 0.500000 0.614690 -0.631243
O8    O     O_R   0.571240 0.499960 0.385340 -0.637405
C3    C     C_R   0.502386 0.740087 0.499490 0.914520
C4    C     C_R   0.593978 0.499811 0.500000 0.849963
C5    C     C_R   0.177849 0.406816 0.499515 0.514998
O9    O     O_2   0.202750 0.298332 0.500487 -0.535833
N1    N     N_R   0.201874 0.518886 0.500142 -0.363647
C6    C     C_R   0.178205 0.630812 0.501023 0.533471
C7    C     C_R   0.278871 0.554765 0.614456 -0.072653
C8    C     C_R   0.328918 0.550088 0.614613 -0.137482
C9    C     C_R   0.327685 0.474175 0.382865 -0.197489
C10   C     C_R   0.277684 0.479232 0.382750 -0.088778
C11   C     C_R   0.253262 0.518569 0.498832 0.285215
C12   C     C_R   0.101917 0.517861 0.499533 -0.118314
C13   C     C_R   0.127555 0.404071 0.498524 0.004417
C14   C     C_R   0.102689 0.289827 0.497737 -0.133249
C15   C     C_R   0.127455 0.633189 0.500890 -0.144209
C16   C     C_R   0.353563 0.508068 0.499410 -0.047091
H1    H     H_    0.345982 0.442559 0.292608 0.164483
H2    H     H_    0.257804 0.451717 0.293067 0.150949
H3    H     H_    0.121705 0.201369 0.499857 0.195470
C17   C     C_R   0.646630 0.499900 0.499943 -0.033530
C18   C     C_R   0.974923 0.397778 0.482811 0.043753
C19   C     C_R   0.974155 0.627069 0.517113 0.078145
C20   C     C_R   0.949305 0.511345 0.499883 0.071703
C21   C     C_R   0.948548 0.286502 0.456340 -0.219898
C22   C     C_R   0.898584 0.285832 0.453818 -0.135375
C23   C     C_R   0.873080 0.395964 0.476910 -0.019640
C24   C     C_R   0.898247 0.509116 0.499738 -0.056102
C25   C     C_R   0.872245 0.620014 0.522405 -0.021426
C26   C     C_R   0.821839 0.615626 0.522148 0.504919
N2    N     N_R   0.798357 0.504725 0.499533 -0.358399
C27   C     C_R   0.822665 0.395938 0.476950 0.503158
C28   C     C_R   0.722102 0.510134 0.622576 -0.103977
C29   C     C_R   0.672030 0.508700 0.622919 -0.214678
C30   C     C_R   0.671967 0.491757 0.376878 -0.232498
C31   C     C_R   0.722047 0.492938 0.376964 -0.102322
C32   C     C_R   0.747038 0.502447 0.499692 0.324473
O10   O     O_2   0.798022 0.288186 0.455581 -0.555395
C33   C     C_R   0.025861 0.399099 0.491516 0.065927
C34   C     C_R   0.050814 0.515779 0.499479 0.070913
C35   C     C_R   0.025173 0.630049 0.508254 -0.024667
C36   C     C_R   0.052831 0.287090 0.494276 -0.218280
H4    H     H_    0.653310 0.515040 0.719110 0.154036
H5    H     H_    0.741608 0.517209 0.717503 0.137272
H6    H     H_    0.880013 0.198172 0.433517 0.190579
H7    H     H_    0.965435 0.198417 0.433619 0.139538
H8    H     H_    0.036501 0.195089 0.497625 0.141773
O11   O     O_2   0.203965 0.738708 0.501145 -0.489978
C37   C     C_R   0.101681 0.746655 0.499862 0.564512
H9    H     H_    0.348290 0.579842 0.704301 0.190172
H10   H     H_    0.259925 0.585592 0.704168 0.152917
C38   C     C_R   0.946896 0.736012 0.543350 -0.217703
C39   C     C_R   0.896926 0.732308 0.545594 -0.141264
O12   O     O_2   0.796389 0.721201 0.543401 -0.553472
C40   C     C_R   0.051476 0.743988 0.506495 -0.314982
H11   H     H_    0.962993 0.825670 0.565954 0.143736
H12   H     H_    0.653189 0.484556 0.280782 0.153332
H13   H     H_    0.877689 0.818338 0.565721 0.192430
H14   H     H_    0.741511 0.487056 0.281925 0.137396
H15   H     H_    0.034195 0.834110 0.506862 0.154336
C41   C     C_R   0.515911 0.062411 0.621877 0.060166
C42   C     C_R   0.514247 0.128815 0.499501 -0.234844
C43   C     C_R   0.524778 0.065271 0.377220 0.511756
C44   C     C_R   0.522883 0.934932 0.377707 -0.297234
H16   H     H_    0.525797 0.885778 0.282246 0.191002
C45   C     C_R   0.512945 0.870789 0.499300 -0.181911
C46   C     C_R   0.515353 0.934397 0.621580 0.126878
C47   C     C_3   0.483770 0.925128 0.743931 -0.426651
C48   C     C_3   0.484402 0.067101 0.744712 -0.445026
H17   H     H_    0.447610 0.884538 0.721474 0.210070
H18   H     H_    0.502710 0.882485 0.832275 0.207200
H19   H     H_    0.448489 0.108540 0.723079 0.228236
H20   H     H_    0.504092 0.105346 0.833647 0.203868
C49   C     C_R   0.459389 0.467191 0.072061 0.160014
N3    N     N_R   0.499670 0.499140 0.142800 -0.098226
C50   C     C_R   0.538671 0.543275 0.071528 -0.129819
H21   H     H_    0.570191 0.576363 0.125391 0.146290
C51   C     C_R   0.538694 0.543167 0.927547 -0.145481
H22   H     H_    0.570226 0.576174 0.873072 0.152191
N4    N     N_R   0.499670 0.499180 0.857150 -0.130432
C52   C     C_R   0.459143 0.467980 0.929177 0.185095
C53   C     C_3   0.433842 0.343862 0.927199 0.182690
C54   C     C_3   0.434166 0.343887 0.081051 -0.514735
H23   H     H_    0.456207 0.269749 0.882826 0.122783
H24   H     H_    0.397936 0.351801 0.127872 0.228122
H25   H     H_    0.457165 0.269198 0.125784 0.231274
O13   O     O_3   0.125316 0.861473 0.501986 -0.556672
C55   C     C_3   0.122824 0.916453 0.371388 -0.219462
H26   H     H_    0.085406 0.945561 0.346529 0.123933
H27   H     H_    0.136887 0.852370 0.292105 0.164696
H28   H     H_    0.145787 0.002095 0.369872 0.209520
O14   O     O_3   0.529795 0.127495 0.254353 -0.603105
C56   C     C_3   0.578898 0.158319 0.236662 -0.277130
H29   H     H_    0.592290 0.220507 0.318999 0.161801
H30   H     H_    0.583023 0.210481 0.139346 0.185763
H31   H     H_    0.601336 0.072308 0.230691 0.158844
Cl1   Cl    Cl    0.374516 0.353140 0.858553 -0.608293

loop_
_geom_bond_atom_site_label_1
_geom_bond_atom_site_label_2
_geom_bond_distance
_ccdc_geom_bond_type
C50   H21   1.081274 S    
C53   C54   1.515715 S    
C26   N2    1.365218 A    
C20   C24   1.416273 A    
C7    C8    1.389419 A    
C12   C15   1.414168 A    
C48   H20   1.111319 S    
C56   H30   1.109461 S    
C45   C46   1.388724 A    
Zn1   O7    2.012287 S    
N1    C11   1.425483 S    
C21   C22   1.386072 A    
C37   O13   1.384176 S    
C15   C37   1.408758 A    
C48   H19   1.112301 S    
C53   Cl1   1.782138 S    
C23   C24   1.408619 A    
O7    C4    1.293898 A    
C5    C13   1.395171 A    
C7    H10   1.082901 S    
C5    O9    1.350584 S    
C18   C21   1.414942 A    
C5    N1    1.363385 A    
C19   C20   1.419809 A    
C17   C29   1.404955 A    
C8    H9    1.082765 S    
O5    C3    1.282878 A    
C19   C38   1.415405 A    
C41   C46   1.363918 A    
C22   H6    1.083590 S    
C2    C16   1.458679 S    
C31   C32   1.397760 A    
C51   N4    1.367776 A    
C12   C34   1.417517 A    
C37   C40   1.394174 A    
C14   H3    1.083291 S    
C53   H23   1.101090 S    
C9    C10   1.388350 A    
O3    Zn1   2.012040 S    
C56   H29   1.113945 S    
C49   C52   1.407597 A    
C33   C34   1.421369 A    
C3    C45   1.420994 S    
C42   C43   1.418436 A    
C38   H11   1.076655 S    
C33   C36   1.412971 A    
C43   C44   1.389268 A    
C34   C35   1.417572 A    
C12   C13   1.409944 A    
O3    C2    1.293794 A    
C21   H7    1.077085 S    
N4    C52   1.366885 A    
C47   H17   1.112451 S    
N3    C50   1.368049 A    
C27   O10   1.350081 S    
C26   O12   1.350060 S    
C8    C16   1.403226 A    
C54   H25   1.111493 S    
C18   C33   1.415468 A    
C49   N3    1.359656 A    
C9    H1    1.081348 S    
C47   C48   1.512699 S    
O1    C1    1.289745 A    
C7    C11   1.398066 A    
C44   H16   1.083711 S    
C31   H14   1.083310 S    
C30   H12   1.083548 S    
C22   C23   1.394761 A    
C47   H18   1.111898 S    
C49   C54   1.486028 S    
C40   H15   1.076235 S    
Zn2   O8    2.012040 S    
Zn1   N4    2.009886 S    
N1    C6    1.365396 A    
N2    C32   1.423514 S    
C39   H13   1.083600 S    
C54   H24   1.109814 S    
C44   C45   1.400375 A    
C25   C26   1.398592 A    
C55   H27   1.114199 S    
C9    C16   1.402652 A    
O8    C4    1.293705 A    
C29   H4    1.083443 S    
C50   C51   1.418459 A    
N2    C27   1.364917 A    
C14   C36   1.383474 A    
C24   C25   1.408084 A    
C35   C40   1.411915 A    
C28   C29   1.388855 A    
Zn1   O5    1.985310 S    
C30   C31   1.389068 A    
C10   H2    1.082978 S    
O1    Zn1   1.991841 S    
C17   C30   1.405034 A    
O2    Zn2   1.985312 S    
C6    C15   1.408086 A    
C4    C17   1.460442 S    
C41   C42   1.393446 A    
O6    C3    1.283850 A    
O4    Zn2   2.012290 S    
C36   H8    1.077177 S    
C19   C35   1.417928 A    
C25   C39   1.394836 A    
C55   H26   1.111997 S    
O2    C1    1.281475 A    
C13   C14   1.394909 A    
C23   C27   1.398403 A    
C41   C48   1.494138 S    
C46   C47   1.492262 S    
C28   H5    1.083329 S    
O4    C2    1.292692 A    
C52   C53   1.493011 S    
C18   C20   1.418763 A    
Zn2   N3    2.010534 S    
C1    C42   1.431850 S    
C38   C39   1.386515 A    
C6    O11   1.349271 S    
C55   H28   1.109103 S    
Zn2   O6    1.991840 S    
O13   C55   1.410898 S    
O14   C56   1.409267 S    
C10   C11   1.398121 A    
C51   H22   1.081221 S    
C56   H31   1.113347 S    
C28   C32   1.397599 A    
C43   O14   1.381569 S    
