data_mof_unit_52715.cif
_audit_creation_date              2012-12-10T17:23:11-0500
_audit_creation_method            fapswitch 2.2
_symmetry_space_group_name_H-M    P1
_symmetry_Int_Tables_number       1
_space_group_crystal_system       triclinic
_cell_length_a                    15.859865
_cell_length_b                    10.949455
_cell_length_c                    9.649346
_cell_angle_alpha                 90.428364
_cell_angle_beta                  89.992429
_cell_angle_gamma                 94.212388
_cell_volume                      1671.1018137

loop_
_atom_site_label
_atom_site_type_symbol
_atom_type_description
_atom_site_fract_x
_atom_site_fract_y
_atom_site_fract_z
_atom_type_partial_charge
C1    C     C_R   0.491284 0.262304 0.499836 0.843217
C2    C     C_3   0.083316 0.502350 0.500015 -0.205060
C3    C     C_3   0.977255 0.616395 0.490792 0.448020
C4    C     C_3   0.916455 0.501169 0.501555 -0.203790
C5    C     C_3   0.029757 0.551093 0.382938 0.485582
C6    C     C_3   0.968701 0.435964 0.393762 0.601646
C7    C     C_1   0.174982 0.502526 0.499853 0.146708
C8    C     C_1   0.824871 0.499844 0.501037 0.169189
C9    C     C_R   0.413022 0.119085 0.736176 0.427331
C10   C     C_R   0.419942 0.064382 0.865093 0.492796
C11   C     C_R   0.419890 0.937890 0.870581 -0.308137
C12   C     C_R   0.340113 0.500161 0.499959 0.800910
C13   C     C_R   0.427976 0.871403 0.748411 -0.227430
C14   C     C_R   0.451523 0.931943 0.622447 -0.020639
C15   C     C_R   0.446043 0.060948 0.618294 -0.084361
C16   C     C_R   0.474522 0.127299 0.499497 -0.156724
C17   C     C_R   0.490407 0.063451 0.378112 -0.290202
C18   C     C_R   0.491985 0.935637 0.376349 0.506831
C19   C     C_R   0.478240 0.869518 0.501139 -0.180174
C20   C     C_R   0.642475 0.620644 0.136288 0.392685
C21   C     C_R   0.718076 0.636795 0.056924 0.275021
C22   C     C_R   0.710340 0.651746 0.913213 0.345277
C23   C     C_R   0.492979 0.736786 0.500693 0.819694
C24   C     C_R   0.630183 0.630161 0.854686 -0.316792
C25   C     C_R   0.566108 0.560659 0.924820 0.071951
C26   C     C_R   0.568855 0.558107 0.073343 0.071396
C27   C     C_R   0.432487 0.453821 0.073596 -0.025758
C28   C     C_R   0.432075 0.455489 0.926306 -0.011512
C29   C     C_R   0.659782 0.499131 0.500133 0.813041
C30   C     C_3   0.969524 0.451859 0.620304 -0.310363
C31   C     C_3   0.022726 0.385572 0.510860 -0.358023
C32   C     C_1   0.250496 0.501691 0.499857 -0.151814
C33   C     C_1   0.749350 0.498952 0.500588 -0.143179
C34   C     C_3   0.031030 0.567674 0.607808 0.611675
Cu1   Cu    Cu3+1 0.499990 0.499990 0.640660 0.963178
Cu2   Cu    Cu3+1 0.500010 0.500010 0.359340 1.020801
H1    H     H_    0.042117 0.290431 0.517788 0.213782
H2    H     H_    0.413119 0.890971 0.968745 0.212795
H3    H     H_    0.416102 0.774104 0.758370 0.219924
H4    H     H_    0.377813 0.413053 0.127549 0.164438
H5    H     H_    0.620395 0.663241 0.752901 0.226605
H6    H     H_    0.376511 0.417496 0.872391 0.200641
H7    H     H_    0.944045 0.412189 0.718626 0.224841
H8    H     H_    0.503149 0.114253 0.284059 0.185000
N1    N     N_R   0.500800 0.501210 0.147910 -0.180663
N2    N     N_R   0.500830 0.501290 0.852040 -0.186947
O1    O     O_R   0.499990 0.319640 0.618810 -0.543028
O2    O     O_R   0.500000 0.319660 0.381240 -0.602580
O3    O     O_R   0.379070 0.499980 0.618770 -0.567851
O4    O     O_R   0.379080 0.500000 0.381190 -0.579831
O5    O     O_R   0.500000 0.680340 0.618760 -0.636666
O6    O     O_R   0.500010 0.680360 0.381190 -0.447336
O7    O     O_R   0.620920 0.500000 0.618810 -0.586928
O8    O     O_R   0.620930 0.500020 0.381230 -0.527874
O9    O     O_3   0.500855 0.871116 0.252804 -0.530439
C35   C     C_3   0.561615 0.928129 0.163700 -0.296432
H9    H     H_    0.616697 0.974277 0.219510 0.138218
H10   H     H_    0.530529 0.992802 0.099604 0.193188
H11   H     H_    0.584770 0.858695 0.091801 0.185806
O10   O     O_3   0.631834 0.687296 0.257717 -0.521693
C36   C     C_3   0.701740 0.764447 0.303789 -0.239383
H12   H     H_    0.724519 0.830275 0.222822 0.134591
H13   H     H_    0.752999 0.710590 0.343177 0.207820
H14   H     H_    0.680861 0.819471 0.392708 0.146061
O11   O     O_3   0.795475 0.627256 0.123036 -0.570298
C37   C     C_3   0.857419 0.720397 0.084985 -0.070610
H15   H     H_    0.830557 0.806847 0.052219 0.107361
H16   H     H_    0.898716 0.686149 0.002663 0.245601
H17   H     H_    0.898173 0.743015 0.176419 0.207824
O12   O     O_3   0.781587 0.673572 0.830798 -0.549033
C38   C     C_3   0.773703 0.775669 0.744397 -0.280519
H18   H     H_    0.743402 0.851580 0.798146 0.126854
H19   H     H_    0.738766 0.747883 0.648169 0.151015
H20   H     H_    0.837976 0.811760 0.712876 0.241581
F1    F     F_    0.935466 0.368568 0.282249 -0.598167
F2    F     F_    0.060890 0.601704 0.260709 -0.590764
F3    F     F_    0.953317 0.734916 0.480961 -0.631870
F4    F     F_    0.064176 0.636724 0.718148 -0.596617
O13   O     O_3   0.371759 0.225737 0.729380 -0.575959
C39   C     C_3   0.293384 0.200325 0.662201 -0.284868
H21   H     H_    0.255848 0.281335 0.673427 0.188509
H22   H     H_    0.255976 0.121427 0.710039 0.180429
H23   H     H_    0.302281 0.183600 0.549538 0.159515
O14   O     O_3   0.428938 0.134243 0.984426 -0.566671
C40   C     C_3   0.509980 0.198488 0.979867 -0.345150
H24   H     H_    0.514108 0.267395 0.896738 0.211143
H25   H     H_    0.561813 0.137768 0.958850 0.123665
H26   H     H_    0.523130 0.245038 0.080718 0.197981

loop_
_geom_bond_atom_site_label_1
_geom_bond_atom_site_label_2
_ccdc_geom_bond_type
C37   H16   S    
O9    C35   S    
Cu1   O7    S    
Cu1   Cu2   S    
C4    C8    S    
Cu1   O1    S    
C12   O3    A    
C6    F1    S    
C40   H24   S    
C28   N2    A    
C29   O7    A    
C5    C6    S    
C37   H17   S    
C29   O8    A    
C15   C16   A    
C29   C33   S    
C35   H9    S    
C18   C19   A    
C9    O13   S    
C10   O14   S    
C36   H13   S    
C26   N1    A    
C2    C7    S    
C16   C17   A    
Cu1   O3    S    
O12   C38   S    
C20   O10   S    
C9    C10   A    
Cu2   O6    S    
C2    C34   S    
C6    C31   S    
C13   C14   A    
C12   C32   S    
C24   H5    S    
C39   H23   S    
C40   H25   S    
C30   C34   S    
C37   H15   S    
C24   C25   A    
C39   H22   S    
C38   H19   S    
C1    O1    A    
C3    C34   S    
C25   C26   A    
C31   H1    S    
O10   C36   S    
C36   H14   S    
C19   C23   S    
C23   O5    A    
C27   H4    S    
C17   C18   A    
Cu2   N1    S    
C1    C16   S    
O14   C40   S    
C18   O9    S    
C4    C6    S    
Cu1   O5    S    
C22   C24   A    
C30   H7    S    
C2    C5    S    
C3    C4    S    
C3    F3    S    
Cu2   O4    S    
C40   H26   S    
C7    C32   T    
C21   O11   S    
C14   C19   A    
C39   H21   S    
C3    C5    S    
C38   H20   S    
C12   O4    A    
C1    O2    A    
C35   H11   S    
C5    F2    S    
C9    C15   A    
C17   H8    S    
C38   H18   S    
C34   F4    S    
C11   C13   A    
C27   N1    A    
C23   O6    A    
C30   C31   S    
C20   C26   A    
C28   H6    S    
C35   H10   S    
Cu2   O2    S    
C8    C33   T    
C36   H12   S    
C13   H3    S    
Cu2   O8    S    
C10   C11   A    
O13   C39   S    
C20   C21   A    
O11   C37   S    
C27   C28   A    
C14   C15   A    
C2    C31   S    
C11   H2    S    
C21   C22   A    
Cu1   N2    S    
C25   N2    A    
C22   O12   S    
C4    C30   S    
