data_mof_unit_54135.cif
_audit_creation_date              2012-12-10T20:41:54-0500
_audit_creation_method            fapswitch 2.2
_symmetry_space_group_name_H-M    P1
_symmetry_Int_Tables_number       1
_space_group_crystal_system       triclinic
_cell_length_a                    15.086605
_cell_length_b                    15.26135
_cell_length_c                    9.859476
_cell_angle_alpha                 90.91577
_cell_angle_beta                  89.933947
_cell_angle_gamma                 89.942977
_cell_volume                      2269.77244402

loop_
_atom_site_label
_atom_site_type_symbol
_atom_type_description
_atom_site_fract_x
_atom_site_fract_y
_atom_site_fract_z
_atom_type_partial_charge
C1    C     C_R   0.378730 0.881357 0.499396 0.879163
C2    C     C_R   0.929395 0.467066 0.070919 0.239605
C3    C     C_R   0.573960 0.021631 0.072320 -0.112634
C4    C     C_R   0.073956 0.521647 0.072321 -0.112652
C5    C     C_R   0.574022 0.020795 0.928311 -0.093642
C6    C     C_R   0.074018 0.520811 0.928312 -0.093814
C7    C     C_R   0.429319 0.967133 0.928310 0.267025
C8    C     C_R   0.929328 0.467115 0.928309 0.267050
C9    C     C_3   0.336392 0.999903 0.925523 -0.542228
C10   C     C_3   0.836390 0.499850 0.925509 -0.542227
C11   C     C_3   0.336278 0.998732 0.079224 -0.506511
C12   C     C_R   0.381799 0.121972 0.500381 0.875806
C13   C     C_3   0.836276 0.498695 0.079212 -0.506580
C14   C     C_R   0.618613 0.121391 0.500580 0.940330
C15   C     C_R   0.622071 0.882097 0.499401 0.913854
C16   C     C_R   0.118609 0.621396 0.500579 0.940150
C17   C     C_R   0.122070 0.382097 0.499401 0.913721
C18   C     C_R   0.300091 0.237827 0.620478 0.109988
C19   C     C_R   0.273194 0.792696 0.621341 0.045470
C20   C     C_R   0.800096 0.737827 0.620481 0.109937
C21   C     C_R   0.773251 0.292643 0.621345 0.045458
C22   C     C_R   0.326063 0.197517 0.499477 -0.100418
C23   C     C_R   0.878733 0.381355 0.499396 0.879179
C24   C     C_R   0.305119 0.823535 0.499009 -0.083347
C25   C     C_R   0.826065 0.697519 0.499477 -0.100415
C26   C     C_R   0.805134 0.323520 0.499013 -0.083310
C27   C     C_R   0.299968 0.233884 0.375657 -0.217970
C28   C     C_R   0.262537 0.800108 0.377562 -0.188626
C29   C     C_R   0.799967 0.733883 0.375658 -0.217974
C30   C     C_R   0.762528 0.300115 0.377574 -0.188666
C31   C     C_R   0.735509 0.798495 0.375222 -0.193512
C32   C     C_R   0.698034 0.235669 0.378829 -0.181941
C33   C     C_R   0.235509 0.298496 0.375220 -0.193476
C34   C     C_R   0.881799 0.621972 0.500380 0.875840
C35   C     C_R   0.198037 0.735666 0.378816 -0.181868
C36   C     C_R   0.697569 0.826221 0.498579 -0.144456
C37   C     C_R   0.677142 0.194487 0.501356 -0.064605
C38   C     C_R   0.197565 0.326219 0.498575 -0.144506
C39   C     C_R   0.177114 0.694512 0.501351 -0.064594
C40   C     C_R   0.736229 0.801348 0.620572 0.168539
C41   C     C_R   0.710618 0.228380 0.623212 0.014915
C42   C     C_R   0.236222 0.301343 0.620566 0.168430
C43   C     C_R   0.210553 0.728441 0.623206 0.015043
C44   C     C_3   0.697771 0.771562 0.753343 -0.038796
C45   C     C_3   0.268563 0.200351 0.750721 -0.650752
C46   C     C_3   0.750074 0.188384 0.748719 -0.057568
C47   C     C_3   0.197771 0.271570 0.753346 -0.038692
C48   C     C_3   0.249956 0.688476 0.748772 -0.057672
C49   C     C_2   0.710881 0.835846 0.870029 0.506061
C50   C     C_2   0.789215 0.097363 0.734950 0.470379
C51   C     C_2   0.210879 0.335870 0.870010 0.505946
C52   C     C_2   0.289084 0.597446 0.735087 0.470041
C53   C     C_2   0.604729 0.735184 0.742150 0.358957
C54   C     C_2   0.690285 0.199541 0.870248 0.310253
C55   C     C_2   0.104733 0.235183 0.742168 0.358923
C56   C     C_3   0.320955 0.759424 0.742615 -0.440485
C57   C     C_2   0.190110 0.699667 0.870230 0.310022
C58   C     C_3   0.768556 0.700337 0.750708 -0.650851
C59   C     C_3   0.821058 0.259344 0.742556 -0.441016
C60   C     C_R   0.429388 0.967081 0.070921 0.239580
H1    H     H_    0.324258 0.208661 0.279251 0.168533
H2    H     H_    0.668794 0.214919 0.283298 0.199550
H3    H     H_    0.211414 0.321651 0.278699 0.175272
H4    H     H_    0.168823 0.714892 0.283281 0.199625
H5    H     H_    0.319711 0.208125 0.831176 0.208769
H6    H     H_    0.388299 0.734944 0.715812 0.221615
H7    H     H_    0.819699 0.708093 0.831175 0.208770
H8    H     H_    0.888396 0.234883 0.715682 0.221524
H9    H     H_    0.242099 0.132819 0.736064 0.199779
H10   H     H_    0.319911 0.807042 0.828824 0.217029
H11   H     H_    0.742088 0.632808 0.736026 0.199788
H12   H     H_    0.282297 0.827308 0.281439 0.178944
H13   H     H_    0.820034 0.306939 0.828796 0.217056
H14   H     H_    0.633297 0.040589 0.126725 0.185928
H15   H     H_    0.133288 0.540620 0.126725 0.185791
H16   H     H_    0.633473 0.037269 0.874007 0.184895
H17   H     H_    0.133467 0.537299 0.874012 0.184589
H18   H     H_    0.333333 0.066656 0.885717 0.217071
H19   H     H_    0.289306 0.952626 0.878520 0.208785
H20   H     H_    0.833302 0.566596 0.885680 0.217085
H21   H     H_    0.789326 0.452545 0.878519 0.208759
H22   H     H_    0.689715 0.818305 0.971279 0.065363
H23   H     H_    0.824253 0.708657 0.279252 0.168545
H24   H     H_    0.823227 0.069537 0.821101 0.130800
H25   H     H_    0.189676 0.318361 0.971260 0.065445
H26   H     H_    0.322814 0.569523 0.821422 0.130902
H27   H     H_    0.587983 0.690498 0.659306 0.066413
H28   H     H_    0.619626 0.209772 0.856733 0.093243
H29   H     H_    0.087977 0.190524 0.659299 0.066338
H30   H     H_    0.119426 0.709680 0.856635 0.093359
H31   H     H_    0.782262 0.327340 0.281456 0.178866
H32   H     H_    0.330580 0.065028 0.126825 0.213228
H33   H     H_    0.290935 0.948666 0.121168 0.208801
H34   H     H_    0.830563 0.564995 0.126797 0.213235
H35   H     H_    0.790945 0.448624 0.121167 0.208741
H36   H     H_    0.711410 0.821647 0.278701 0.175281
N1    N     N_R   0.499140 0.000000 0.142800 -0.126051
N2    N     N_R   0.999140 0.500000 0.142800 -0.126010
N3    N     N_R   0.499160 1.000000 0.857150 -0.122494
N4    N     N_R   0.999160 0.500000 0.857150 -0.122452
O1    O     O_R   0.408400 0.908380 0.614690 -0.609787
O2    O     O_R   0.591610 0.908390 0.614650 -0.583862
O3    O     O_R   0.091610 0.591610 0.614650 -0.630322
O4    O     O_R   0.091610 0.408390 0.614650 -0.583960
O5    O     O_R   0.591590 0.091600 0.385310 -0.634321
O6    O     O_R   0.591590 0.908400 0.385310 -0.621807
O7    O     O_R   0.091590 0.591600 0.385310 -0.634297
O8    O     O_R   0.091590 0.408400 0.385310 -0.621781
O9    O     O_2   0.746602 0.906542 0.853075 -0.603466
O10   O     O_2   0.785244 0.055082 0.628983 -0.567632
O11   O     O_2   0.246643 0.406545 0.853037 -0.603640
O12   O     O_R   0.408400 0.091620 0.614690 -0.621534
O13   O     O_2   0.285440 0.555278 0.628981 -0.567515
O14   O     O_2   0.547727 0.755178 0.825104 -0.593476
O15   O     O_2   0.720441 0.195852 0.984921 -0.597363
O16   O     O_2   0.047747 0.255136 0.825168 -0.593510
O17   O     O_2   0.220247 0.696230 0.984935 -0.597380
O18   O     O_R   0.908400 0.408380 0.614690 -0.609775
O19   O     O_R   0.908400 0.591620 0.614690 -0.621521
O20   O     O_R   0.408370 0.908370 0.385350 -0.624216
O21   O     O_R   0.408370 0.091630 0.385350 -0.632612
O22   O     O_R   0.908370 0.408370 0.385350 -0.624210
O23   O     O_R   0.908370 0.591630 0.385350 -0.632597
O24   O     O_R   0.591610 0.091610 0.614650 -0.630181
Zn1   Zn    Zn3+2 0.500010 0.000000 0.653130 0.984539
Zn2   Zn    Zn3+2 0.000010 0.500000 0.653130 0.984435
Zn3   Zn    Zn3+2 0.499980 0.000000 0.346870 0.958607
Zn4   Zn    Zn3+2 0.999980 0.500000 0.346870 0.958608

loop_
_geom_bond_atom_site_label_1
_geom_bond_atom_site_label_2
_ccdc_geom_bond_type
C19   C56   S    
C44   C49   S    
C30   C32   A    
C21   C26   A    
C34   O23   A    
C4    N2    A    
C46   C59   S    
C15   C36   S    
N1    Zn3   S    
O2    Zn1   S    
C51   H25   S    
C23   O18   A    
O20   Zn3   S    
C50   H24   S    
C48   C57   S    
N3    Zn1   S    
C52   O13   D    
C27   C33   A    
C9    H18   S    
C7    N3    A    
C13   H35   S    
N4    Zn2   S    
C15   O6    A    
C47   C55   S    
C17   O4    A    
O7    Zn4   S    
C21   C59   S    
C18   C42   A    
C20   C40   A    
C58   H11   S    
C20   C25   A    
C31   H36   S    
C29   H23   S    
C12   C22   S    
C50   O10   D    
C48   C56   S    
C9    H19   S    
C23   C26   S    
C2    C13   S    
C3    H14   S    
C4    H15   S    
C27   H1    S    
C16   O7    A    
C11   H32   S    
C14   O5    A    
C12   O21   A    
C5    N3    A    
C28   C35   A    
C44   C58   S    
O3    Zn2   S    
O1    Zn1   S    
C41   C46   S    
C35   H4    S    
C43   C48   S    
C59   H13   S    
C25   C34   S    
C17   C38   S    
C11   H33   S    
N2    Zn4   S    
O22   Zn4   S    
C28   H12   S    
C44   C53   S    
C19   C43   A    
C23   O22   A    
C45   C47   S    
C25   C29   A    
C14   O24   A    
C57   H30   S    
O5    Zn3   S    
C45   H9    S    
C36   C40   A    
C4    C6    A    
C60   N1    A    
C17   O8    A    
C10   H20   S    
C6    H17   S    
C47   C51   S    
O6    Zn3   S    
C1    O20   A    
C6    N4    A    
C49   H22   S    
C35   C39   A    
O19   Zn2   S    
C59   H8    S    
C3    N1    A    
C16   O3    A    
C48   C52   S    
C33   H3    S    
C54   O15   D    
C46   C54   S    
C53   H27   S    
C32   C37   A    
O8    Zn4   S    
C9    C11   S    
O12   Zn1   S    
C21   C41   A    
C8    C10   S    
C26   C30   A    
C56   H10   S    
C22   C27   A    
C45   H5    S    
C20   C58   S    
C11   C60   S    
C18   C45   S    
C1    O1    A    
C7    C60   A    
C12   O12   A    
C53   O14   D    
C57   O17   D    
C34   O19   A    
C7    C9    S    
C51   O11   D    
C18   C22   A    
C2    C8    A    
C24   C28   A    
C30   H31   S    
C3    C5    A    
C10   C13   S    
C39   C43   A    
O21   Zn3   S    
C46   C50   S    
C10   H21   S    
C33   C38   A    
C13   H34   S    
C5    H16   S    
C52   H26   S    
C19   C24   A    
C8    N4    A    
C49   O9    D    
C32   H2    S    
C29   C31   A    
C14   C37   S    
C54   H28   S    
O23   Zn4   S    
C56   H6    S    
C42   C47   S    
C15   O2    A    
C37   C41   A    
C16   C39   S    
C38   C42   A    
C58   H7    S    
C40   C44   S    
O4    Zn2   S    
C2    N2    A    
C1    C24   S    
C55   H29   S    
C55   O16   D    
C31   C36   A    
O18   Zn2   S    
O24   Zn1   S    
