data_mof_unit_51320.cif
_audit_creation_date              2012-12-11T17:08:34-0500
_audit_creation_method            fapswitch 2.2
_symmetry_space_group_name_H-M    P1
_symmetry_Int_Tables_number       1
_space_group_crystal_system       triclinic
_cell_length_a                    6.996144
_cell_length_b                    14.447438
_cell_length_c                    16.170379
_cell_angle_alpha                 89.960219
_cell_angle_beta                  89.93496
_cell_angle_gamma                 89.970237
_cell_volume                      1634.44132857

loop_
_atom_site_label
_atom_site_type_symbol
_atom_type_description
_atom_site_fract_x
_atom_site_fract_y
_atom_site_fract_z
_atom_type_partial_charge
O1    O     O_R   0.505700 0.583890 0.413310 -0.540908
O2    O     O_R   0.175960 0.594920 0.586080 -0.536733
O3    O     O_R   0.005660 0.416110 0.586690 -0.516197
C1    C     C_R   0.344608 0.616831 0.614788 0.745141
O4    O     O_R   0.175980 0.594920 0.413930 -0.548053
O5    O     O_R   0.005680 0.416110 0.413310 -0.544414
C2    C     C_R   0.344747 0.616864 0.385256 0.684358
O6    O     O_R   0.505680 0.583890 0.586690 -0.538812
O7    O     O_3   0.339200 0.441330 0.500000 -0.362954
V1    V     V_3+5 0.064350 0.510880 0.500000 1.439174
O8    O     O_R   0.675960 0.405080 0.413920 -0.541137
C3    C     C_R   0.845167 0.382740 0.385764 0.695825
O9    O     O_R   0.675940 0.405080 0.586070 -0.538327
C4    C     C_R   0.844821 0.383018 0.614513 0.751615
V2    V     V_3+5 0.564340 0.489120 0.500000 1.444080
O10   O     O_3   0.839360 0.558670 0.500000 -0.381270
C5    C     C_R   0.006139 0.251371 0.689006 0.023153
C6    C     C_R   0.853921 0.313766 0.682090 -0.111776
C7    C     C_R   0.720664 0.315656 0.746611 -0.146809
H1    H     H_    0.618400 0.371078 0.748286 0.191909
C8    C     C_R   0.733929 0.254723 0.814272 0.305878
C9    C     C_R   0.877883 0.185940 0.817043 -0.159324
C10   C     C_R   0.013628 0.185453 0.752922 0.022149
C11   C     C_3   0.222965 0.199531 0.763908 0.073537
C12   C     C_3   0.212396 0.275569 0.699554 0.060843
C13   C     C_R   0.725999 0.182813 0.241642 0.073234
C14   C     C_R   0.880120 0.182235 0.186165 -0.085939
C15   C     C_R   0.023651 0.248081 0.199049 -0.078499
H2    H     H_    0.134227 0.254608 0.154059 0.197335
C16   C     C_R   0.016468 0.310799 0.265425 -0.156471
H3    H     H_    0.128341 0.362117 0.271019 0.134702
C17   C     C_R   0.859077 0.312045 0.319740 -0.084778
C18   C     C_R   0.716649 0.245283 0.307891 0.035480
C19   C     C_3   0.508476 0.262001 0.296370 -0.438980
C20   C     C_3   0.520814 0.198779 0.221881 0.425065
H4    H     H_    0.423123 0.233383 0.348434 0.192405
C21   C     C_R   0.507112 0.682763 0.740685 0.156934
C22   C     C_R   0.352480 0.682153 0.685606 -0.107430
C23   C     C_R   0.200849 0.743612 0.702276 -0.167172
C24   C     C_R   0.212316 0.807880 0.767698 -0.131855
C25   C     C_R   0.376054 0.812926 0.818376 -0.099977
C26   C     C_R   0.518873 0.746575 0.805172 0.103832
C27   C     C_3   0.728252 0.759368 0.792850 -0.418544
C28   C     C_3   0.715593 0.689421 0.722925 -0.400881
H5    H     H_    0.763560 0.830436 0.771374 0.180956
H6    H     H_    0.791958 0.623608 0.736357 0.193964
C29   C     C_R   0.508205 0.683254 0.259671 0.123550
C30   C     C_R   0.352859 0.682267 0.314495 -0.109809
C31   C     C_R   0.200682 0.743277 0.297590 -0.173790
H7    H     H_    0.077416 0.744966 0.337837 0.137804
C32   C     C_R   0.211869 0.807329 0.231959 -0.138489
H8    H     H_    0.096228 0.856099 0.223535 0.140949
C33   C     C_R   0.375917 0.812606 0.181363 -0.101153
C34   C     C_R   0.519708 0.746900 0.194965 0.101155
C35   C     C_3   0.728522 0.760907 0.207765 -0.413663
C36   C     C_3   0.716159 0.691211 0.277958 -0.397012
H9    H     H_    0.814582 0.735934 0.154424 0.177847
H10   H     H_    0.794446 0.625798 0.265048 0.175010
O11   O     O_R   0.229000 0.916070 0.913330 -0.548384
O12   O     O_R   0.558770 0.905070 0.086080 -0.545446
O13   O     O_R   0.729000 0.083900 0.086690 -0.510150
C37   C     C_R   0.389701 0.882766 0.114505 0.735298
O14   O     O_R   0.558720 0.905070 0.913930 -0.546875
O15   O     O_R   0.728960 0.083900 0.913310 -0.508530
C38   C     C_R   0.389807 0.883186 0.885168 0.718518
O16   O     O_R   0.229050 0.916070 0.086710 -0.543597
O17   O     O_3   0.395460 0.058650 0.000020 -0.316540
V3    V     V_3+5 0.670340 0.989120 0.000000 1.536222
O18   O     O_R   0.058670 0.094960 0.913900 -0.536064
C39   C     C_R   0.889728 0.117927 0.885997 0.767044
O19   O     O_R   0.058720 0.094960 0.086050 -0.519869
C40   C     C_R   0.889663 0.116588 0.115154 0.766851
V4    V     V_3+5 0.170330 0.010930 0.999970 1.562704
O20   O     O_3   0.895340 0.941350 0.999980 -0.400520
Br1   Br    Br    0.493051 0.265549 0.117790 -0.490818
Br2   Br    Br    0.372819 0.085965 0.232405 -0.574249
H11   H     H_    0.077867 0.745513 0.661984 0.135410
H12   H     H_    0.097117 0.856957 0.775908 0.140003
H13   H     H_    0.812724 0.734151 0.846515 0.183874
H14   H     H_    0.744429 0.719719 0.660946 0.169088
Br3   Br    Br    0.579674 0.282233 0.908604 -0.442311
H15   H     H_    0.761772 0.832264 0.229010 0.179291
H16   H     H_    0.743012 0.721955 0.339877 0.172919
Br4   Br    Br    0.366830 0.091872 0.727880 -0.576004
H17   H     H_    0.257894 0.223365 0.827085 0.200584
H18   H     H_    0.298821 0.262897 0.642987 0.152624
Br5   Br    Br    0.241250 0.398465 0.749048 -0.555740
H19   H     H_    0.475722 0.335315 0.281010 0.177942

loop_
_geom_bond_atom_site_label_1
_geom_bond_atom_site_label_2
_ccdc_geom_bond_type
C35   C36   S    
O14   C38   A    
C25   C26   A    
C4    C6    S    
C7    H1    S    
C1    O6    A    
C33   C34   A    
C20   Br1   S    
C13   C14   A    
C5    C10   A    
O15   V3    S    
C15   H2    S    
C7    C8    A    
C19   C20   S    
O5    C3    A    
C22   C23   A    
C27   H13   S    
V2    O10   S    
C12   Br5   S    
O12   C37   A    
C6    C7    A    
V4    O20   S    
C21   C26   A    
O14   V3    S    
O8    V2    S    
C31   C32   A    
C10   C11   S    
O18   V4    S    
O17   V4    S    
O15   C39   A    
O7    V1    S    
O11   V4    S    
C8    C9    A    
C3    C17   S    
C28   H6    S    
C18   C19   S    
C20   Br2   S    
C37   O16   A    
C32   H8    S    
C28   H14   S    
C11   C12   S    
C23   C24   A    
O4    C2    A    
C25   C38   S    
O16   V4    S    
O17   V3    S    
C32   C33   A    
O2    C1    A    
C27   C28   S    
C21   C22   A    
C33   C37   S    
C13   C18   A    
C29   C30   A    
O9    V2    S    
C5    C6    A    
C19   H19   S    
C35   H15   S    
C27   H5    S    
O3    C4    A    
C29   C34   A    
O1    V2    S    
O13   C40   A    
C24   C25   A    
C8    Br3   S    
O6    V2    S    
C35   H9    S    
C24   H12   S    
C26   C27   S    
O2    V1    S    
C23   H11   S    
C36   H16   S    
O19   V4    S    
C11   H17   S    
C34   C35   S    
C30   C31   A    
O1    C2    A    
C1    C22   S    
O5    V1    S    
O8    C3    A    
C5    C12   S    
C2    C30   S    
C21   C28   S    
C15   C16   A    
O7    V2    S    
O19   C40   A    
O3    V1    S    
V1    O10   S    
C17   C18   A    
C16   C17   A    
O13   V3    S    
C16   H3    S    
C12   H18   S    
C36   H10   S    
C19   H4    S    
C11   Br4   S    
O18   C39   A    
C13   C20   S    
O4    V1    S    
O12   V3    S    
C31   H7    S    
C14   C15   A    
C9    C10   A    
O9    C4    A    
V3    O20   S    
C9    C39   S    
O11   C38   A    
C14   C40   S    
C29   C36   S    
