data_mof_unit_13151.cif
_audit_creation_date              2012-12-10T16:58:28-0500
_audit_creation_method            fapswitch 2.2
_symmetry_space_group_name_H-M    P1
_symmetry_Int_Tables_number       1
_space_group_crystal_system       triclinic
_cell_length_a                    15.87044
_cell_length_b                    10.945785
_cell_length_c                    9.712146
_cell_angle_alpha                 89.913454
_cell_angle_beta                  89.401874
_cell_angle_gamma                 90.727724
_cell_volume                      1686.90956594

loop_
_atom_site_label
_atom_site_type_symbol
_atom_type_description
_atom_site_fract_x
_atom_site_fract_y
_atom_site_fract_z
_atom_type_partial_charge
C1    C     C_R   0.499282 0.265111 0.499736 0.776800
C2    C     C_3   0.083091 0.501812 0.496078 0.090427
C3    C     C_3   0.970824 0.601473 0.559844 -0.235414
C4    C     C_3   0.916593 0.498201 0.497583 0.100496
C5    C     C_3   0.027542 0.599640 0.428695 -0.024303
C6    C     C_3   0.971985 0.496966 0.367683 0.011963
C7    C     C_1   0.174718 0.498612 0.499956 -0.065749
C8    C     C_1   0.825028 0.497643 0.498123 -0.036367
C9    C     C_2   0.509541 0.931946 0.387246 -0.157911
C10   C     C_2   0.518100 0.864507 0.500851 -0.298432
C11   C     C_2   0.521691 0.064905 0.392204 -0.066291
C12   C     C_R   0.339902 0.498829 0.500605 0.835086
C13   C     C_2   0.489110 0.132508 0.497691 -0.203176
C14   C     C_2   0.440460 0.450125 0.925967 0.066914
C15   C     C_2   0.447907 0.435289 0.079395 -0.103140
C16   C     C_R   0.504270 0.734106 0.499869 0.860949
C17   C     C_R   0.660030 0.499377 0.499422 0.809064
C18   C     C_3   0.971133 0.399885 0.565015 -0.203531
C19   C     C_3   0.028120 0.398572 0.433948 -0.236756
C20   C     C_1   0.250229 0.497849 0.501586 -0.155171
C21   C     C_1   0.749582 0.498209 0.498325 -0.167991
C22   C     C_3   0.026811 0.502932 0.625643 0.070655
Cu1   Cu    Cu3+1 0.500020 0.500020 0.638630 0.988736
Cu2   Cu    Cu3+1 0.499980 0.499980 0.361370 0.961869
H1    H     H_    0.052394 0.315807 0.381683 0.163866
H2    H     H_    0.555632 0.520099 0.892199 0.187564
H3    H     H_    0.404100 0.373543 0.131816 0.156381
H4    H     H_    0.535424 0.564324 0.104292 0.196643
H5    H     H_    0.946813 0.318320 0.621520 0.143195
H6    H     H_    0.945171 0.684152 0.610395 0.132973
H7    H     H_    0.496798 0.889383 0.288483 0.170632
H8    H     H_    0.536921 0.905836 0.597545 0.153305
N1    N     N_2   0.499090 0.498660 0.846910 -0.323562
N2    N     N_2   0.499070 0.498630 0.153040 -0.279434
O1    O     O_R   0.500010 0.321960 0.617040 -0.534384
O2    O     O_R   0.499990 0.321920 0.382900 -0.565049
O3    O     O_R   0.379090 0.500010 0.617050 -0.546186
O4    O     O_R   0.379060 0.499970 0.382910 -0.581746
O5    O     O_R   0.500010 0.678080 0.617100 -0.572664
O6    O     O_R   0.499990 0.678040 0.382960 -0.580769
O7    O     O_R   0.620940 0.500030 0.617090 -0.588010
O8    O     O_R   0.620910 0.499990 0.382950 -0.562687
C23   C     C_2   0.430635 0.079657 0.603222 0.864971
O9    O     O_2   0.444893 0.094560 0.725531 -0.574190
O10   O     O_R   0.359941 0.011986 0.562181 -0.761171
H9    H     H_    0.325350 0.980156 0.643238 0.332295
C24   C     C_2   0.359595 0.409575 0.869508 0.900286
O11   O     O_2   0.298616 0.476014 0.880042 -0.615150
O12   O     O_R   0.352000 0.295350 0.807127 -0.725698
H10   H     H_    0.292924 0.278344 0.772623 0.313999
C25   C     C_2   0.937543 0.489385 0.224685 0.811784
O13   O     O_2   0.950170 0.398580 0.154788 -0.619047
O14   O     O_R   0.889637 0.584993 0.173211 -0.777460
H11   H     H_    0.869983 0.569315 0.075762 0.332597
C26   C     C_R   0.051026 0.716839 0.354480 0.096188
C27   C     C_R   0.987151 0.799344 0.321298 -0.102842
C28   C     C_R   0.006744 0.909557 0.254700 -0.144250
C29   C     C_R   0.090327 0.938732 0.220839 -0.121496
C30   C     C_R   0.154347 0.857506 0.253194 -0.124747
C31   C     C_R   0.134956 0.746969 0.319436 -0.166957
H12   H     H_    0.922067 0.778611 0.347786 0.157788
H13   H     H_    0.957107 0.972516 0.229725 0.141647
H14   H     H_    0.105468 0.024145 0.169402 0.133211
H15   H     H_    0.219090 0.879902 0.226329 0.150330
H16   H     H_    0.185742 0.685753 0.340775 0.143179
C32   C     C_R   0.058959 0.503069 0.770798 0.117790
C33   C     C_R   0.055022 0.608905 0.851967 -0.141115
C34   C     C_R   0.085754 0.608249 0.986221 -0.106424
C35   C     C_R   0.120166 0.502011 0.040877 -0.021785
C36   C     C_R   0.123619 0.395961 0.961130 -0.026578
C37   C     C_R   0.093957 0.396714 0.826007 -0.125099
H17   H     H_    0.029012 0.692339 0.811637 0.122755
H18   H     H_    0.082524 0.690231 0.047697 0.153777
H19   H     H_    0.143594 0.501612 0.145166 0.111098
H20   H     H_    0.150164 0.313597 0.003477 0.112174
H21   H     H_    0.097985 0.314426 0.764644 0.114441
C38   C     C_R   0.574276 0.119297 0.279734 0.150827
C39   C     C_R   0.652580 0.174368 0.308950 -0.127567
C40   C     C_R   0.699971 0.230645 0.203934 -0.103523
C41   C     C_R   0.669822 0.231702 0.069205 -0.119694
C42   C     C_R   0.592451 0.175948 0.039119 -0.127929
C43   C     C_R   0.544852 0.119515 0.143825 -0.124084
H22   H     H_    0.676180 0.175098 0.413199 0.103448
H23   H     H_    0.759831 0.274028 0.227162 0.149301
H24   H     H_    0.706364 0.275826 0.988147 0.135562
H25   H     H_    0.569079 0.177253 0.934824 0.179366
H26   H     H_    0.484436 0.078219 0.119600 0.139195

loop_
_geom_bond_atom_site_label_1
_geom_bond_atom_site_label_2
_ccdc_geom_bond_type
C26   C27   A    
Cu2   O8    S    
C2    C7    S    
C4    C8    S    
C14   N1    D    
C42   C43   A    
C28   H13   S    
C24   O12   S    
C38   C39   A    
C6    C19   S    
C30   H15   S    
Cu2   O2    S    
C18   C19   S    
C40   H23   S    
C43   H26   S    
C27   C28   A    
C33   H17   S    
C12   O3    A    
C17   O8    A    
C22   C32   S    
C11   C38   S    
C39   H22   S    
C24   O11   D    
C34   C35   A    
Cu1   N1    S    
C2    C22   S    
Cu2   O4    S    
Cu1   Cu2   S    
C36   C37   A    
C6    C25   S    
C9    C10   D    
C15   N2    D    
C42   H25   S    
C4    C18   S    
C32   C33   A    
H4    N2    S    
C30   C31   A    
C26   C31   A    
C25   O13   D    
C4    C6    S    
C39   C40   A    
C34   H18   S    
Cu1   O3    S    
Cu2   N2    S    
C33   C34   A    
C25   O14   S    
C3    H6    S    
C23   O9    D    
C41   H24   S    
C23   O10   S    
H2    N1    S    
C15   H3    S    
C32   C37   A    
C12   C20   S    
C8    C21   T    
C35   H19   S    
C27   H12   S    
C18   H5    S    
C9    C11   S    
C16   O6    A    
C31   H16   S    
C7    C20   T    
Cu1   O1    S    
O10   H9    S    
C2    C5    S    
C1    C13   S    
C3    C4    S    
C37   H21   S    
C13   C23   S    
C1    O1    A    
C29   H14   S    
C2    C19   S    
C18   C22   S    
C5    C26   S    
C41   C42   A    
C3    C5    S    
O14   H11   S    
C14   C24   S    
Cu1   O7    S    
C29   C30   A    
C10   C16   S    
C11   C13   D    
C28   C29   A    
C5    C6    S    
C38   C43   A    
Cu1   O5    S    
Cu2   O6    S    
C12   O4    A    
C35   C36   A    
C19   H1    S    
C17   O7    A    
C9    H7    S    
C16   O5    A    
C40   C41   A    
C10   H8    S    
O12   H10   S    
C36   H20   S    
C14   C15   S    
C3    C22   S    
C1    O2    A    
C17   C21   S    
