data_mof_unit_60357.cif
_audit_creation_date              2012-12-10T19:01:20-0500
_audit_creation_method            fapswitch 2.2
_symmetry_space_group_name_H-M    P1
_symmetry_Int_Tables_number       1
_space_group_crystal_system       triclinic
_cell_length_a                    15.842323
_cell_length_b                    14.2606
_cell_length_c                    13.382672
_cell_angle_alpha                 89.999572
_cell_angle_beta                  90.000243
_cell_angle_gamma                 89.99985
_cell_volume                      3023.42706066

loop_
_atom_site_label
_atom_site_type_symbol
_atom_type_description
_atom_site_fract_x
_atom_site_fract_y
_atom_site_fract_z
_atom_type_partial_charge
C1    C     C_R   0.500001 0.326569 0.500000 0.923538
C2    C     C_1   0.500000 0.499975 0.950478 -0.052602
C3    C     C_R   0.335923 0.500000 0.500000 0.943192
C4    C     C_R   0.664077 0.499998 0.500000 0.943192
C5    C     C_R   0.499998 0.673451 0.500000 0.923679
C6    C     C_3   0.048719 0.451749 0.595867 -0.395303
C7    C     C_3   0.048718 0.446238 0.407523 -0.395353
C8    C     C_3   0.951283 0.451747 0.595867 -0.395307
C9    C     C_3   0.951282 0.446236 0.407524 -0.395355
C10   C     C_1   0.752406 0.500005 0.500000 -0.207428
C11   C     C_1   0.247594 0.500009 0.499999 -0.207428
C12   C     C_1   0.500001 0.141350 0.500000 -0.010693
C13   C     C_3   0.081970 0.500016 0.500000 0.362160
C14   C     C_3   0.918031 0.500013 0.500000 0.362160
C15   C     C_3   0.951280 0.602063 0.496610 -0.396172
C16   C     C_3   0.048717 0.602065 0.496609 -0.396176
C17   C     C_1   0.827232 0.500011 0.500001 -0.121096
C18   C     C_1   0.172768 0.500015 0.499999 -0.121096
C19   C     C_1   0.500001 0.225917 0.500000 -0.228571
C20   C     C_1   0.500000 0.042291 0.500000 0.004838
C21   C     C_1   0.499999 0.957730 0.500000 0.004848
C22   C     C_1   0.499999 0.858671 0.499999 -0.010685
C23   C     C_1   0.499998 0.774104 0.499999 -0.228666
C24   C     C_1   0.500000 0.499977 0.169450 0.065725
C25   C     C_1   0.500000 0.499977 0.830550 0.065723
C26   C     C_1   0.500000 0.499975 0.049522 -0.052602
H1    H     H_    0.072228 0.479712 0.337702 0.170028
H2    H     H_    0.927773 0.372660 0.408390 0.168669
H3    H     H_    0.072231 0.378266 0.599889 0.168748
H4    H     H_    0.072230 0.372663 0.408389 0.168670
H5    H     H_    0.072229 0.489240 0.663331 0.170003
H6    H     H_    0.927770 0.479709 0.337702 0.170028
H7    H     H_    0.927772 0.489236 0.663331 0.170004
H8    H     H_    0.072228 0.642072 0.562410 0.168916
H9    H     H_    0.072227 0.638148 0.428280 0.169017
H10   H     H_    0.927770 0.642069 0.562411 0.168917
H11   H     H_    0.927769 0.638146 0.428281 0.169018
H12   H     H_    0.927774 0.378263 0.599888 0.168748
N1    N     N_1   0.500000 0.499980 0.261870 -0.064746
N2    N     N_1   0.500000 0.499980 0.738130 -0.064747
O1    O     O_R   0.500000 0.373720 0.576470 -0.596797
O2    O     O_R   0.500000 0.373720 0.423530 -0.596795
O3    O     O_R   0.377150 0.500010 0.576490 -0.608755
O4    O     O_R   0.377150 0.500010 0.423510 -0.608752
O5    O     O_R   0.622850 0.500010 0.576490 -0.608754
O6    O     O_R   0.622850 0.500010 0.423510 -0.608752
O7    O     O_R   0.500000 0.626290 0.576440 -0.596779
O8    O     O_R   0.500000 0.626290 0.423560 -0.596777
Zn1   Zn    Zn3+2 0.500000 0.500010 0.602090 0.968181
Zn2   Zn    Zn3+2 0.500000 0.500010 0.397910 0.968185

loop_
_geom_bond_atom_site_label_1
_geom_bond_atom_site_label_2
_ccdc_geom_bond_type
C6    C8    S    
C9    C14   S    
C11   C18   T    
N1    Zn2   S    
C1    O2    A    
C5    C23   S    
O5    Zn1   S    
C8    H7    S    
C12   C20   S    
O8    Zn2   S    
C6    H5    S    
O7    Zn1   S    
C7    H4    S    
C4    O6    A    
C21   C22   S    
C6    C13   S    
C5    O7    A    
C14   C17   S    
C3    O3    A    
N2    Zn1   S    
C8    H12   S    
C13   C18   S    
O2    Zn2   S    
C12   C19   T    
O1    Zn1   S    
C16   H9    S    
C24   C26   S    
C2    C25   S    
C4    O5    A    
C25   N2    T    
C5    O8    A    
C3    O4    A    
C1    C19   S    
C3    C11   S    
C10   C17   T    
C4    C10   S    
C15   C16   S    
C15   H10   S    
C7    C13   S    
C6    H3    S    
C7    H1    S    
C20   C21   T    
C2    C26   T    
C13   C16   S    
O4    Zn2   S    
C7    C9    S    
O6    Zn2   S    
C14   C15   S    
O3    Zn1   S    
C8    C14   S    
C9    H6    S    
C16   H8    S    
C22   C23   T    
C24   N1    T    
C15   H11   S    
C1    O1    A    
C9    H2    S    
