data_mof_unit_60338.cif
_audit_creation_date              2012-12-10T19:02:05-0500
_audit_creation_method            fapswitch 2.2
_symmetry_space_group_name_H-M    P1
_symmetry_Int_Tables_number       1
_space_group_crystal_system       triclinic
_cell_length_a                    43.924256
_cell_length_b                    30.278769
_cell_length_c                    31.815023
_cell_angle_alpha                 90.000073
_cell_angle_beta                  136.440573
_cell_angle_gamma                 89.999966
_cell_volume                      29158.2365782

loop_
_atom_site_label
_atom_site_type_symbol
_atom_type_description
_atom_site_fract_x
_atom_site_fract_y
_atom_site_fract_z
_atom_type_partial_charge
C1    C     C_R   0.586249 0.999966 0.086284 0.862156
C2    C     C_3   0.537998 0.018225 0.802094 -0.170761
C3    C     C_R   0.038030 0.296809 0.525820 -0.179074
C4    C     C_R   0.461859 0.842591 0.473819 -0.192769
C5    C     C_R   0.538141 0.842591 0.526181 -0.192790
C6    C     C_R   0.961859 0.342591 0.473818 -0.192790
C7    C     C_R   0.038141 0.342591 0.526182 -0.192770
C8    C     C_R   0.500000 0.865637 0.500000 -0.027674
C9    C     C_R   1.000000 0.365637 0.500000 -0.027674
C10   C     C_R   0.500000 0.773922 0.500000 0.111155
C11   C     C_R   1.000000 0.273922 0.500000 0.111156
C12   C     C_R   0.012338 0.203133 0.475999 -0.178060
C13   C     C_3   0.962065 0.518356 0.197970 -0.170764
C14   C     C_R   0.987662 0.203133 0.524001 -0.178055
C15   C     C_R   0.512337 0.703133 0.475998 -0.178054
C16   C     C_R   0.487663 0.703133 0.524002 -0.178056
C17   C     C_R   0.012073 0.157352 0.475633 -0.193350
C18   C     C_R   0.987927 0.157352 0.524367 -0.193349
C19   C     C_R   0.512072 0.657352 0.475632 -0.193350
C20   C     C_R   0.487928 0.657352 0.524368 -0.193348
C21   C     C_R   1.000000 0.134312 0.500000 -0.031738
C22   C     C_R   0.500000 0.634312 0.500000 -0.031737
C23   C     C_3   0.535947 0.021708 0.271886 -0.170589
C24   C     C_3   0.036867 0.520398 0.800962 -0.170814
C25   C     C_3   0.465364 0.023737 0.729425 -0.170596
C26   C     C_3   0.034718 0.523617 0.270657 -0.170594
C27   C     C_3   0.964035 0.521678 0.728096 -0.170588
C28   C     C_R   1.000000 0.226020 0.500000 0.111449
C29   C     C_R   0.500000 0.726020 0.500000 0.111447
C30   C     C_R   0.459995 0.203098 0.462944 -0.180183
C31   C     C_R   0.540006 0.203098 0.537058 -0.180131
C32   C     C_R   0.959994 0.703098 0.462937 -0.180133
C33   C     C_R   0.040006 0.703098 0.537061 -0.180183
C34   C     C_R   0.459971 0.157333 0.462882 -0.196826
C35   C     C_3   0.499158 0.041339 0.262867 0.249944
C36   C     C_R   0.540029 0.157333 0.537119 -0.196735
C37   C     C_R   0.959971 0.657333 0.462876 -0.196737
C38   C     C_R   0.040029 0.657333 0.537123 -0.196824
C39   C     C_R   0.500000 0.134229 0.500000 -0.030707
C40   C     C_R   1.000000 0.634229 0.500000 -0.030708
C41   C     C_R   0.500000 0.226082 0.500001 0.150310
C42   C     C_R   1.000000 0.726082 0.499999 0.150311
C43   C     C_R   0.029504 0.797010 0.555369 -0.248229
C44   C     C_R   0.970496 0.797011 0.444630 -0.248232
C45   C     C_R   0.529507 0.297011 0.555370 -0.248231
C46   C     C_3   0.503218 0.041228 0.739511 0.249939
C47   C     C_R   0.470494 0.297011 0.444631 -0.248226
C48   C     C_R   0.030199 0.842947 0.555890 0.170054
C49   C     C_R   0.969801 0.842948 0.444109 0.170048
C50   C     C_R   0.530202 0.342948 0.555890 0.170046
C51   C     C_R   0.469799 0.342948 0.444110 0.170052
C52   C     C_R   1.000000 0.865935 0.500000 -0.103305
C53   C     C_R   0.500000 0.365935 0.500000 -0.103301
C54   C     C_R   1.000000 0.774125 0.499999 0.047856
C55   C     C_R   0.500000 0.274125 0.500000 0.047854
C56   C     C_1   0.499935 0.999991 0.125737 -0.188393
C57   C     C_3   0.996924 0.541238 0.260632 0.249938
C58   C     C_1   0.500069 0.999991 0.874267 -0.188392
C59   C     C_1   0.999930 0.499991 0.125733 -0.188393
C60   C     C_1   0.000065 0.499991 0.874262 -0.188393
C61   C     C_1   0.499937 0.999897 0.374137 -0.187463
C62   C     C_1   0.500062 0.999897 0.625862 -0.187462
C63   C     C_1   0.999938 0.499897 0.374138 -0.187463
C64   C     C_1   0.000063 0.499897 0.625863 -0.187464
C65   C     C_3   0.500689 0.958165 0.236625 -0.155338
C66   C     C_3   0.496919 0.958278 0.760982 -0.155383
C67   C     C_3   0.002937 0.458268 0.238874 -0.155380
C68   C     C_3   0.000808 0.541339 0.737099 0.249944
C69   C     C_3   0.999345 0.458164 0.763410 -0.155339
C70   C     C_3   0.499916 0.000112 0.208740 0.165274
C71   C     C_3   0.500096 0.000112 0.791272 0.165275
C72   C     C_3   0.999904 0.500112 0.208728 0.165274
C73   C     C_3   0.000083 0.500112 0.791260 0.165273
C74   C     C_3   0.463978 0.978415 0.227858 -0.205658
C75   C     C_3   0.534731 0.976391 0.770850 -0.205597
C76   C     C_3   0.965188 0.476510 0.229069 -0.205601
C77   C     C_3   0.036039 0.478444 0.772159 -0.205658
C78   C     C_3   0.100540 0.880245 0.628955 -0.767855
C79   C     C_1   0.499923 0.000038 0.163274 -0.066286
C80   C     C_3   0.899459 0.880245 0.371045 -0.767828
C81   C     C_3   0.600544 0.380246 0.628949 -0.767834
C82   C     C_3   0.399457 0.380245 0.371052 -0.767863
C83   C     C_3   0.498289 0.088548 0.278216 -0.945824
C84   C     C_3   0.506793 0.088310 0.726870 -0.945864
C85   C     C_3   0.993512 0.588332 0.273437 -0.945865
C86   C     C_3   0.001638 0.588549 0.721711 -0.945824
C87   C     C_1   0.500085 0.000038 0.836733 -0.066282
C88   C     C_1   0.999915 0.500038 0.163266 -0.066284
C89   C     C_R   0.413750 0.999966 0.913716 0.862156
C90   C     C_1   0.000077 0.500038 0.836726 -0.066287
C91   C     C_1   0.499928 0.999875 0.336583 -0.062734
C92   C     C_1   0.500071 0.999876 0.663416 -0.062735
C93   C     C_1   0.999929 0.499875 0.336584 -0.062735
C94   C     C_1   0.000072 0.499875 0.663417 -0.062735
C95   C     C_R   0.703200 0.037623 0.191048 -0.178364
C96   C     C_R   0.296800 0.037621 0.808957 -0.178367
C97   C     C_R   0.203200 0.537619 0.191037 -0.178365
C98   C     C_R   0.796801 0.537612 0.808984 -0.178357
C99   C     C_R   0.657396 0.037945 0.145583 -0.193279
C100  C     C_R   0.086249 0.499966 0.086284 0.862153
C101  C     C_R   0.342604 0.037944 0.854422 -0.193281
C102  C     C_R   0.157396 0.537942 0.145573 -0.193281
C103  C     C_R   0.842605 0.537935 0.854448 -0.193281
C104  C     C_R   0.634214 0.999881 0.134306 -0.027820
C105  C     C_R   0.365786 0.999881 0.865694 -0.027796
C106  C     C_R   0.134214 0.499881 0.134305 -0.027793
C107  C     C_R   0.865786 0.499881 0.865695 -0.027800
C108  C     C_R   0.657147 0.961627 0.169103 -0.191824
C109  C     C_R   0.342853 0.961628 0.830893 -0.191826
C110  C     C_R   0.157147 0.461630 0.169112 -0.191828
C111  C     C_R   0.913751 0.499966 0.913716 0.862151
C112  C     C_R   0.842854 0.461637 0.830868 -0.191827
C113  C     C_R   0.702938 0.961522 0.215048 -0.180499
C114  C     C_R   0.297062 0.961523 0.784947 -0.180501
C115  C     C_R   0.202938 0.461525 0.215058 -0.180501
C116  C     C_R   0.797063 0.461532 0.784922 -0.180494
C117  C     C_R   0.499954 0.999970 0.081234 0.912149
C118  C     C_R   0.500046 0.999969 0.918766 0.912151
C119  C     C_R   0.999954 0.499970 0.081234 0.912145
C120  C     C_R   0.000046 0.499970 0.918766 0.912145
C121  C     C_R   0.725965 0.999455 0.225879 0.111034
C122  C     C_3   0.499920 0.999944 0.291077 0.190200
C123  C     C_R   0.274035 0.999455 0.774121 0.111044
C124  C     C_R   0.225965 0.499455 0.225878 0.111043
C125  C     C_R   0.774036 0.499454 0.774122 0.111025
C126  C     C_R   0.796816 0.986689 0.332925 -0.175857
C127  C     C_R   0.203184 0.986692 0.667075 -0.175865
C128  C     C_R   0.296816 0.486698 0.332927 -0.175866
C129  C     C_R   0.703185 0.486725 0.667065 -0.175866
C130  C     C_R   0.842612 0.987088 0.378848 -0.197859
C131  C     C_R   0.157388 0.987091 0.621151 -0.197866
C132  C     C_R   0.342612 0.487097 0.378850 -0.197865
C133  C     C_3   0.500083 0.999945 0.708927 0.190191
C134  C     C_R   0.657389 0.487124 0.621142 -0.197849
C135  C     C_R   0.865611 0.999536 0.365510 -0.032408
C136  C     C_R   0.134389 0.999536 0.634490 -0.032403
C137  C     C_R   0.365611 0.499536 0.365510 -0.032407
C138  C     C_R   0.634390 0.499536 0.634490 -0.032428
C139  C     C_R   0.842538 0.011576 0.305992 -0.194850
C140  C     C_R   0.157462 0.011572 0.694009 -0.194856
C141  C     C_R   0.342537 0.511566 0.305988 -0.194858
C142  C     C_R   0.657464 0.511537 0.694021 -0.194859
C143  C     C_R   0.796746 0.011704 0.260272 -0.180394
C144  C     C_3   0.999917 0.499944 0.291074 0.190191
C145  C     C_R   0.203254 0.011700 0.739729 -0.180402
C146  C     C_R   0.296746 0.511694 0.260269 -0.180404
C147  C     C_R   0.703256 0.511665 0.739741 -0.180400
C148  C     C_R   0.773885 0.999233 0.273719 0.111788
C149  C     C_R   0.226115 0.999233 0.726281 0.111790
C150  C     C_R   0.273884 0.499233 0.273718 0.111792
C151  C     C_R   0.726117 0.499232 0.726282 0.111794
C152  C     C_R   0.500000 0.913580 0.500000 0.862495
C153  C     C_R   0.000000 0.413580 0.500000 0.862496
C154  C     C_R   0.499953 0.999930 0.418671 0.913238
C155  C     C_3   0.000079 0.499943 0.708923 0.190201
C156  C     C_R   0.500047 0.999930 0.581329 0.913239
C157  C     C_R   0.999953 0.499930 0.418671 0.913236
C158  C     C_R   0.000047 0.499930 0.581329 0.913241
C159  C     C_R   0.500000 0.086204 0.500000 0.866504
C160  C     C_R   1.000000 0.586204 0.500000 0.866505
C161  C     C_3   0.536630 0.979752 0.300544 -0.207043
C162  C     C_3   0.462276 0.981890 0.698361 -0.207080
C163  C     C_3   0.037662 0.481759 0.301576 -0.207077
C164  C     C_3   0.963386 0.479721 0.699473 -0.207042
C165  C     C_R   0.000000 0.086379 0.500000 0.871982
C166  C     C_3   0.463116 0.020368 0.199021 -0.170814
C167  C     C_R   0.500000 0.586379 0.500000 0.871987
C168  C     C_R   0.913542 0.999904 0.413515 0.866230
C169  C     C_R   0.086458 0.999904 0.586485 0.866227
C170  C     C_R   0.413542 0.499904 0.413515 0.866233
C171  C     C_R   0.586458 0.499904 0.586485 0.866238
C172  C     C_R   1.000000 0.913726 0.500000 0.929927
C173  C     C_R   0.500000 0.413726 0.500000 0.929937
C174  C     C_R   0.461970 0.796809 0.474181 -0.179075
C175  C     C_R   0.538030 0.796809 0.525819 -0.179078
C176  C     C_R   0.961969 0.296809 0.474180 -0.179077
H1    H     H_    0.565269 0.039698 0.289126 0.137203
H2    H     H_    0.220753 0.977171 0.656398 0.132416
H3    H     H_    0.508556 0.111528 0.755568 0.244532
H4    H     H_    0.537047 0.091766 0.737710 0.247051
H5    H     H_    0.477408 0.096292 0.678041 0.247056
H6    H     H_    0.991829 0.611556 0.244819 0.244535
H7    H     H_    0.963271 0.591892 0.262610 0.247047
H8    H     H_    0.022925 0.596212 0.322292 0.247060
H9    H     H_    0.002048 0.611830 0.749055 0.244566
H10   H     H_    0.031640 0.593757 0.732298 0.246979
H11   H     H_    0.971838 0.594808 0.672468 0.247096
H12   H     H_    0.279247 0.477182 0.343605 0.132415
H13   H     H_    0.720754 0.477231 0.656380 0.132419
H14   H     H_    0.859977 0.977417 0.424533 0.153166
H15   H     H_    0.140023 0.977423 0.575466 0.153163
H16   H     H_    0.359977 0.477433 0.424537 0.153166
H17   H     H_    0.640024 0.477482 0.575448 0.153183
H18   H     H_    0.859838 0.021309 0.294972 0.154648
H19   H     H_    0.140162 0.021303 0.705030 0.154646
H20   H     H_    0.359838 0.521292 0.294967 0.154649
H21   H     H_    0.437121 0.043378 0.713264 0.137278
H22   H     H_    0.640164 0.521242 0.705051 0.154666
H23   H     H_    0.779123 0.021155 0.214395 0.133122
H24   H     H_    0.220877 0.021149 0.785607 0.133119
H25   H     H_    0.279122 0.521138 0.214389 0.133120
H26   H     H_    0.720879 0.521087 0.785627 0.133123
H27   H     H_    0.432365 0.779215 0.453847 0.133188
H28   H     H_    0.567635 0.779215 0.546153 0.133190
H29   H     H_    0.932365 0.279215 0.453846 0.133189
H30   H     H_    0.067635 0.279215 0.546154 0.133188
H31   H     H_    0.432174 0.859902 0.453613 0.154078
H32   H     H_    0.063028 0.543161 0.286883 0.137274
H33   H     H_    0.567826 0.859902 0.546387 0.154076
H34   H     H_    0.932174 0.359902 0.453612 0.154076
H35   H     H_    0.067826 0.359902 0.546388 0.154078
H36   H     H_    0.021693 0.220727 0.457069 0.132789
H37   H     H_    0.978307 0.220727 0.542930 0.132788
H38   H     H_    0.521692 0.720727 0.457068 0.132788
H39   H     H_    0.478308 0.720727 0.542932 0.132788
H40   H     H_    0.021635 0.140033 0.456831 0.153524
H41   H     H_    0.978364 0.140033 0.543169 0.153525
H42   H     H_    0.521634 0.640033 0.456830 0.153524
H43   H     H_    0.934698 0.539644 0.710842 0.137201
H44   H     H_    0.478366 0.640033 0.543170 0.153524
H45   H     H_    0.428893 0.220565 0.434604 0.132464
H46   H     H_    0.571108 0.220564 0.565397 0.132475
H47   H     H_    0.928891 0.720564 0.434594 0.132474
H48   H     H_    0.071108 0.720564 0.565405 0.132464
H49   H     H_    0.566660 0.963028 0.342749 0.142568
H50   H     H_    0.431335 0.966916 0.655245 0.142634
H51   H     H_    0.068550 0.466678 0.344639 0.142629
H52   H     H_    0.933370 0.462973 0.657282 0.142566
H53   H     H_    0.428705 0.140131 0.434054 0.157869
H54   H     H_    0.720427 0.931820 0.241713 0.132356
H55   H     H_    0.571295 0.140131 0.565946 0.157879
H56   H     H_    0.928704 0.640131 0.434044 0.157880
H57   H     H_    0.071296 0.640131 0.565955 0.157870
H58   H     H_    0.052235 0.779143 0.598207 0.138627
H59   H     H_    0.947765 0.779143 0.401792 0.138645
H60   H     H_    0.552241 0.279144 0.598208 0.138646
H61   H     H_    0.447760 0.279143 0.401793 0.138627
H62   H     H_    0.433151 0.037267 0.156945 0.136671
H63   H     H_    0.568883 0.033378 0.845091 0.136639
H64   H     H_    0.931233 0.533616 0.155026 0.136640
H65   H     H_    0.279573 0.931823 0.758279 0.132345
H66   H     H_    0.066818 0.537322 0.843024 0.136671
H67   H     H_    0.434584 0.960598 0.210611 0.143297
H68   H     H_    0.563055 0.956918 0.787028 0.143255
H69   H     H_    0.936797 0.457136 0.212825 0.143258
H70   H     H_    0.065448 0.460651 0.789421 0.143298
H71   H     H_    0.501321 0.923851 0.224985 0.139964
H72   H     H_    0.494320 0.924056 0.770653 0.139915
H73   H     H_    0.005418 0.424037 0.229083 0.139918
H74   H     H_    0.998742 0.423849 0.775078 0.139964
H75   H     H_    0.720909 0.067165 0.199517 0.133385
H76   H     H_    0.220427 0.431826 0.241730 0.132345
H77   H     H_    0.279091 0.067162 0.800492 0.133375
H78   H     H_    0.220908 0.567159 0.199498 0.133376
H79   H     H_    0.779092 0.567146 0.800539 0.133388
H80   H     H_    0.640176 0.067714 0.118967 0.154233
H81   H     H_    0.359824 0.067711 0.881042 0.154215
H82   H     H_    0.140176 0.567707 0.118948 0.154213
H83   H     H_    0.859825 0.567694 0.881089 0.154218
H84   H     H_    0.639741 0.931991 0.161143 0.154211
H85   H     H_    0.360260 0.931993 0.838849 0.154193
H86   H     H_    0.139740 0.431997 0.161160 0.154191
H87   H     H_    0.779574 0.431839 0.758233 0.132359
H88   H     H_    0.860261 0.432009 0.838804 0.154196
H89   H     H_    0.069576 0.849649 0.648047 0.222680
H90   H     H_    0.119800 0.851196 0.637247 0.228663
H91   H     H_    0.121660 0.900395 0.671221 0.242397
H92   H     H_    0.091340 0.900893 0.592269 0.231890
H93   H     H_    0.930423 0.849650 0.351952 0.222689
H94   H     H_    0.880200 0.851196 0.362752 0.228672
H95   H     H_    0.878340 0.900396 0.328779 0.242398
H96   H     H_    0.908660 0.900892 0.407731 0.231886
H97   H     H_    0.569585 0.349650 0.648049 0.222690
H98   H     H_    0.779247 0.977165 0.343600 0.132418
H99   H     H_    0.619802 0.351197 0.637238 0.228678
H100  H     H_    0.621665 0.400396 0.671215 0.242395
H101  H     H_    0.591340 0.400893 0.592261 0.231894
H102  H     H_    0.430415 0.349650 0.351951 0.222682
H103  H     H_    0.380199 0.351196 0.362763 0.228665
H104  H     H_    0.378335 0.400395 0.328786 0.242399
H105  H     H_    0.408661 0.400892 0.407741 0.231892
H106  H     H_    0.497860 0.111829 0.250853 0.244565
H107  H     H_    0.468283 0.093732 0.267624 0.246980
H108  H     H_    0.528084 0.094832 0.327454 0.247095
N1    N     N_2   0.061603 0.865848 0.612563 -0.292483
N2    N     N_2   0.938396 0.865848 0.387437 -0.292485
N3    N     N_2   0.561609 0.365848 0.612563 -0.292492
N4    N     N_2   0.438392 0.365848 0.387438 -0.292486
O1    O     O_R   0.565460 0.963010 0.065460 -0.626560
O2    O     O_R   0.065510 0.999950 0.600300 -0.618263
O3    O     O_R   0.434490 0.499950 0.399700 -0.618262
O4    O     O_R   0.565510 0.499950 0.600300 -0.618266
O5    O     O_R   0.000010 0.934490 0.534800 -0.606545
O6    O     O_R   0.999990 0.934490 0.465200 -0.606547
O7    O     O_R   0.500010 0.434490 0.534800 -0.606553
O8    O     O_R   0.499990 0.434490 0.465200 -0.606545
O9    O     O_R   0.565400 0.036920 0.065400 -0.625965
O10   O     O_R   0.434600 0.036920 0.934600 -0.625974
O11   O     O_R   0.065400 0.536920 0.065400 -0.625973
O12   O     O_R   0.434540 0.963010 0.934540 -0.626572
O13   O     O_R   0.934600 0.536920 0.934600 -0.625960
O14   O     O_R   0.499990 0.963010 0.061610 -0.616847
O15   O     O_R   0.500010 0.963010 0.938390 -0.616846
O16   O     O_R   0.999990 0.463010 0.061610 -0.616844
O17   O     O_R   0.000010 0.463010 0.938390 -0.616851
O18   O     O_R   0.499940 0.036920 0.061550 -0.616337
O19   O     O_R   0.500060 0.036920 0.938450 -0.616339
O20   O     O_R   0.999940 0.536920 0.061550 -0.616341
O21   O     O_R   0.000060 0.536920 0.938450 -0.616336
O22   O     O_R   0.536910 0.934410 0.536900 -0.626652
O23   O     O_R   0.065460 0.463010 0.065460 -0.626570
O24   O     O_R   0.463090 0.934410 0.463100 -0.626644
O25   O     O_R   0.036910 0.434410 0.536900 -0.626645
O26   O     O_R   0.963090 0.434410 0.463100 -0.626652
O27   O     O_R   0.536920 0.999880 0.475310 -0.618107
O28   O     O_R   0.463080 0.999880 0.524690 -0.618162
O29   O     O_R   0.036920 0.499880 0.475310 -0.618158
O30   O     O_R   0.963080 0.499880 0.524690 -0.618106
O31   O     O_R   0.463000 0.999950 0.401380 -0.615354
O32   O     O_R   0.537000 0.999950 0.598620 -0.615296
O33   O     O_R   0.963000 0.499950 0.401380 -0.615299
O34   O     O_R   0.934540 0.463010 0.934540 -0.626554
O35   O     O_R   0.037000 0.499950 0.598620 -0.615355
O36   O     O_R   0.536940 0.065340 0.536940 -0.627632
O37   O     O_R   0.463060 0.065340 0.463060 -0.627656
O38   O     O_R   0.036940 0.565340 0.536940 -0.627657
O39   O     O_R   0.963060 0.565340 0.463060 -0.627632
O40   O     O_R   0.999920 0.065420 0.534690 -0.627068
O41   O     O_R   0.000080 0.065420 0.465310 -0.627068
O42   O     O_R   0.499920 0.565420 0.534690 -0.627066
O43   O     O_R   0.500080 0.565420 0.465310 -0.627070
O44   O     O_R   0.934500 0.999950 0.469270 -0.631121
O45   O     O_R   0.065500 0.999950 0.530730 -0.631124
O46   O     O_R   0.434500 0.499950 0.469270 -0.631127
O47   O     O_R   0.565500 0.499950 0.530730 -0.631130
O48   O     O_R   0.934490 0.999950 0.399700 -0.618260
Zn1   Zn    Zn3+2 0.500000 0.950610 0.000000 0.949658
Zn2   Zn    Zn3+2 0.000030 0.999950 0.453590 0.953118
Zn3   Zn    Zn3+2 0.499970 0.499950 0.546410 0.953113
Zn4   Zn    Zn3+2 0.500030 0.499950 0.453590 0.953115
Zn5   Zn    Zn3+2 1.000000 0.450610 0.000000 0.949662
Zn6   Zn    Zn3+2 0.500000 0.049320 0.000000 0.950995
Zn7   Zn    Zn3+2 1.000000 0.549320 0.000000 0.951000
Zn8   Zn    Zn3+2 0.549320 0.999860 0.549320 0.949884
Zn9   Zn    Zn3+2 0.450680 0.999860 0.450680 0.949802
Zn10  Zn    Zn3+2 0.049320 0.499860 0.549320 0.949803
Zn11  Zn    Zn3+2 0.950680 0.499860 0.450680 0.949881
Zn12  Zn    Zn3+2 0.999970 0.999950 0.546410 0.953120

loop_
_geom_bond_atom_site_label_1
_geom_bond_atom_site_label_2
_ccdc_geom_bond_type
C10   C174  A    
C37   H56   S    
C85   H6    S    
C18   C21   A    
C20   H44   S    
C120  O21   A    
C92   C133  S    
C74   C166  S    
C136  C140  A    
C113  H54   S    
C66   H72   S    
C135  C139  A    
C56   C79   T    
C81   H101  S    
C78   H90   S    
C146  H25   S    
C95   C99   A    
O4    Zn3   S    
C26   C163  S    
C107  C112  A    
C84   H4    S    
C137  C141  A    
C27   C68   S    
C146  C150  A    
O46   Zn3   S    
C130  C135  A    
C91   C122  S    
C101  H81   S    
C135  C168  S    
C24   H66   S    
C78   N1    S    
C70   C79   S    
C86   H11   S    
C61   C154  S    
C169  O45   A    
C163  H51   S    
O19   Zn6   S    
C172  O5    A    
C173  O8    A    
C50   C53   A    
C152  O22   A    
O17   Zn5   S    
C51   N4    S    
C167  O42   A    
C170  O3    A    
C132  C137  A    
C111  O13   A    
C17   C21   A    
C14   H37   S    
C80   H96   S    
C141  H20   S    
C108  C113  A    
C16   H39   S    
O14   Zn1   S    
C48   N1    S    
C43   C54   A    
C158  O35   A    
C16   C20   A    
C1    O1    A    
C122  C161  S    
C112  H88   S    
C46   C84   S    
C76   C144  S    
C128  C150  A    
C85   H8    S    
C156  O28   A    
H97   N3    S    
C157  O29   A    
C2    C71   S    
C138  C171  S    
C127  H2    S    
C100  C106  S    
C35   C122  S    
C82   H104  S    
C168  O44   A    
C43   H58   S    
C140  C145  A    
C5    C8    A    
C13   C72   S    
C60   C90   T    
C166  H62   S    
C80   N2    S    
C33   C38   A    
C64   C94   T    
C45   C50   A    
C157  O33   A    
C57   C85   S    
C26   C57   S    
O2    Zn12  S    
C23   H1    S    
C3    C11   A    
C33   H48   S    
C24   C77   S    
C48   C52   A    
C117  O18   A    
C86   H9    S    
C65   C161  S    
O16   Zn5   S    
C103  C107  A    
C27   C73   S    
C2    C75   S    
C130  H14   S    
C50   N3    S    
C152  O24   A    
C56   C117  S    
C69   C77   S    
C45   H60   S    
O42   Zn3   S    
C52   C172  S    
C38   H57   S    
C53   C173  S    
O28   Zn9   S    
C11   C176  A    
C33   C42   A    
C11   C28   S    
C8    C152  S    
C175  H28   S    
C37   C40   A    
C2    H63   S    
C13   C57   S    
C65   C70   S    
C6    C9    A    
C67   C72   S    
O27   Zn8   S    
C83   H108  S    
C125  C151  S    
C139  C143  A    
C98   C125  A    
C94   C155  S    
C129  H13   S    
C117  O14   A    
C120  O17   A    
C30   C41   A    
C25   C71   S    
C119  O16   A    
C132  H16   S    
H89   N1    S    
C126  H98   S    
C9    C153  S    
C23   C70   S    
O38   Zn10  S    
C98   H79   S    
C162  H50   S    
C127  C131  A    
C32   C42   A    
C143  C148  A    
C49   N2    S    
O25   Zn10  S    
C30   C34   A    
C34   C39   A    
H93   N2    S    
C164  H52   S    
C131  C136  A    
C65   C74   S    
C102  H82   S    
C51   C53   A    
C147  C151  A    
C99   H80   S    
C167  O43   A    
C118  O19   A    
C32   C37   A    
C100  O11   A    
C137  C170  S    
C93   C144  S    
C153  O25   A    
C109  C114  A    
O44   Zn12  S    
C81   N3    S    
C114  C123  A    
C116  C125  A    
O36   Zn8   S    
C34   H53   S    
C63   C157  S    
C111  O34   A    
C112  C116  A    
C10   C175  A    
O33   Zn11  S    
C105  C109  A    
C160  O38   A    
C31   C41   A    
C96   C123  A    
C31   C36   A    
C107  C111  S    
C142  C147  A    
C36   C39   A    
C7    H35   S    
C154  O31   A    
C5    H33   S    
C81   H100  S    
O11   Zn7   S    
C78   H91   S    
C83   H106  S    
C77   C155  S    
O22   Zn8   S    
C156  O32   A    
C118  O15   A    
O15   Zn1   S    
C140  H19   S    
C145  C149  A    
O18   Zn6   S    
C44   C54   A    
C113  C121  A    
C45   C55   A    
C89   C105  S    
O1    Zn1   S    
C27   H43   S    
C26   C72   S    
C76   H69   S    
C69   C164  S    
C68   C155  S    
C133  C162  S    
C172  O6    A    
C15   C19   A    
C173  O7    A    
H102  N4    S    
C12   C28   A    
C1    O9    A    
O13   Zn7   S    
C129  C151  A    
C3    C7    A    
O47   Zn4   S    
C24   C73   S    
C126  C130  A    
C98   C103  A    
C159  O37   A    
C35   C166  S    
C21   C165  S    
C66   C162  S    
C77   H70   S    
C165  O40   A    
O8    Zn4   S    
C41   C55   S    
C75   H68   S    
C47   H61   S    
C35   C83   S    
C12   C17   A    
C69   C73   S    
O10   Zn6   S    
C17   H40   S    
C82   N4    S    
O26   Zn11  S    
C97   C102  A    
C57   C144  S    
C171  O4    A    
C95   C121  A    
C99   C104  A    
C85   H7    S    
C4    C174  A    
C96   C101  A    
C5    C175  A    
O34   Zn5   S    
C89   O10   A    
C15   C29   A    
C30   H45   S    
O20   Zn7   S    
C145  H24   S    
O48   Zn2   S    
O12   Zn1   S    
C138  C142  A    
C44   H59   S    
C95   H75   S    
C126  C148  A    
C47   C51   A    
C176  H29   S    
C84   H3    S    
C31   H46   S    
C66   C71   S    
C49   C52   A    
O30   Zn11  S    
O31   Zn9   S    
C121  C148  S    
C19   H42   S    
C141  C146  A    
C71   C87   S    
C74   H67   S    
O24   Zn9   S    
C74   C122  S    
C20   C22   A    
C86   H10   S    
C23   C35   S    
C144  C163  S    
C159  O36   A    
C109  H85   S    
C104  C108  A    
C32   H47   S    
C4    H31   S    
C124  C150  S    
C59   C119  S    
C115  C124  A    
O5    Zn12  S    
C39   C159  S    
C128  H12   S    
C103  H83   S    
C40   C160  S    
C73   C90   S    
O3    Zn4   S    
C75   C133  S    
C63   C93   T    
C80   H95   S    
C116  H87   S    
C42   C54   S    
C46   C133  S    
C38   C40   A    
C10   C29   S    
O45   Zn2   S    
C36   H55   S    
C66   C75   S    
C62   C156  S    
C60   C120  S    
C97   C124  A    
C83   H107  S    
C24   C68   S    
C129  C134  A    
C165  O41   A    
C110  C115  A    
C127  C149  A    
C89   O12   A    
C44   C49   A    
C123  C149  S    
C68   C86   S    
C14   C18   A    
C82   H103  S    
C4    C8    A    
C58   C87   T    
C2    C46   S    
O9    Zn6   S    
C84   H5    S    
C96   H77   S    
C70   C166  S    
O40   Zn12  S    
O43   Zn4   S    
C58   C118  S    
C154  O27   A    
C59   C88   T    
C134  H17   S    
C62   C92   T    
C170  O46   A    
C43   C48   A    
C139  H18   S    
C158  O30   A    
C65   H71   S    
O6    Zn2   S    
C142  H22   S    
C15   H38   S    
O37   Zn9   S    
C128  C132  A    
C72   C88   S    
C13   H64   S    
C161  H49   S    
C101  C105  A    
C119  O20   A    
C171  O47   A    
C19   C22   A    
C12   H36   S    
C100  O23   A    
C115  H76   S    
C16   C29   A    
O35   Zn10  S    
C81   H99   S    
C78   H92   S    
O23   Zn5   S    
C168  O48   A    
C67   C163  S    
C27   C164  S    
C13   C76   S    
C25   C162  S    
O21   Zn7   S    
C1    C104  S    
C69   H74   S    
C108  H84   S    
C22   C167  S    
C64   C158  S    
C67   H73   S    
O41   Zn2   S    
O29   Zn10  S    
C47   C55   A    
C106  C110  A    
C7    C9    A    
C3    H30   S    
C147  H26   S    
C26   H32   S    
C134  C138  A    
C6    H34   S    
C131  H15   S    
C155  C164  S    
C160  O39   A    
C143  H23   S    
O7    Zn3   S    
C169  O2    A    
C18   H41   S    
C6    C176  A    
C174  H27   S    
C102  C106  A    
C80   H94   S    
C110  H86   S    
C25   H21   S    
C153  O26   A    
C114  H65   S    
O39   Zn11  S    
C136  C169  S    
C67   C76   S    
C14   C28   A    
C82   H105  S    
C25   C46   S    
O32   Zn8   S    
C61   C91   T    
C97   H78   S    
C23   C161  S    
