data_mof_unit_58558.cif
_audit_creation_date              2012-12-11T14:38:21-0500
_audit_creation_method            fapswitch 2.2
_symmetry_space_group_name_H-M    P1
_symmetry_Int_Tables_number       1
_space_group_crystal_system       triclinic
_cell_length_a                    19.396371
_cell_length_b                    11.128332
_cell_length_c                    19.664675
_cell_angle_alpha                 89.968504
_cell_angle_beta                  97.031391
_cell_angle_gamma                 90.015295
_cell_volume                      4212.68206089

loop_
_atom_site_label
_atom_site_type_symbol
_atom_type_description
_atom_site_fract_x
_atom_site_fract_y
_atom_site_fract_z
_atom_type_partial_charge
C1    C     C_R   0.727274 0.949277 0.358522 0.520122
C2    C     C_3   0.185305 0.433601 0.465258 -0.256359
C3    C     C_3   0.317026 0.231164 0.331943 -0.004533
C4    C     C_3   0.256057 0.161041 0.293566 -0.275238
C5    C     C_3   0.262110 0.156864 0.216938 -0.440678
C6    C     C_3   0.183106 0.731019 0.668215 -0.004513
C7    C     C_3   0.244121 0.660964 0.706539 -0.275333
C8    C     C_3   0.238156 0.656641 0.783170 -0.440755
C9    C     C_3   0.816755 0.719616 0.345781 -0.013109
C10   C     C_3   0.760602 0.655405 0.297121 -0.273946
C11   C     C_3   0.778703 0.657399 0.223738 -0.445329
C12   C     C_3   0.314698 0.933652 0.534705 -0.256428
C13   C     C_3   0.688393 0.955251 0.468931 -0.254381
C14   C     C_3   0.738761 0.269743 0.565230 0.141120
C15   C     C_3   0.263195 0.267091 0.434659 0.146957
C16   C     C_3   0.236844 0.767113 0.565444 0.146985
C17   C     C_3   0.747424 0.767965 0.435169 0.149430
C18   C     C_3   0.752908 0.406310 0.571341 0.072430
C19   C     C_3   0.250301 0.404648 0.428231 0.069387
C20   C     C_3   0.249707 0.904684 0.571765 0.069587
C21   C     C_R   0.272193 0.948789 0.641640 0.524852
C22   C     C_3   0.747710 0.906698 0.428701 0.067214
C23   C     C_3   0.733852 0.355140 0.440977 0.011733
C24   C     C_3   0.269192 0.352047 0.558814 0.008458
C25   C     C_3   0.230814 0.851979 0.441204 0.008510
C26   C     C_3   0.767024 0.852317 0.558849 0.012323
C27   C     C_3   0.807374 0.406695 0.459673 -0.249268
C28   C     C_3   0.196885 0.407854 0.540207 -0.251412
C29   C     C_3   0.303107 0.907886 0.459765 -0.251395
C30   C     C_3   0.710008 0.948906 0.545780 -0.250504
C31   C     C_3   0.723353 0.244984 0.486741 -0.198994
C32   C     C_R   0.227818 0.448729 0.358341 0.524967
C33   C     C_3   0.279107 0.241252 0.513010 -0.193889
C34   C     C_3   0.220936 0.741197 0.487115 -0.194074
C35   C     C_3   0.744103 0.742691 0.512351 -0.181536
C36   C     C_3   0.492550 0.306649 0.961772 -0.230326
C37   C     C_3   0.509239 0.306665 0.037901 -0.230120
C38   C     C_3   0.992158 0.806669 0.961834 -0.230258
C39   C     C_3   0.008850 0.806684 0.037961 -0.230267
C40   C     C_3   0.427707 0.110791 0.968374 -0.221538
C41   C     C_3   0.572071 0.108948 0.031629 -0.221670
C42   C     C_3   0.927745 0.610378 0.968391 -0.221546
C43   C     C_R   0.773201 0.450116 0.641086 0.527370
C44   C     C_3   0.072121 0.609351 0.031642 -0.221542
C45   C     C_3   0.555198 0.109635 0.953066 -0.249502
C46   C     C_3   0.444549 0.111656 0.046914 -0.249571
C47   C     C_3   0.055255 0.610071 0.953085 -0.249572
C48   C     C_3   0.944591 0.611213 0.046937 -0.249705
C49   C     C_R   0.536260 0.180342 0.338699 0.519923
C50   C     C_R   0.463775 0.180389 0.661326 0.519567
C51   C     C_R   0.036399 0.680340 0.338800 0.518886
C52   C     C_R   0.964011 0.680319 0.661477 0.520089
C53   C     C_3   0.485858 0.175544 0.933996 0.055352
C54   C     C_3   0.680228 0.451109 0.457293 -0.248720
C55   C     C_3   0.514530 0.175591 0.065893 0.055135
C56   C     C_3   0.985770 0.675550 0.934026 0.055370
C57   C     C_3   0.014442 0.675591 0.065922 0.055144
C58   C     C_1   0.778416 0.468798 0.913639 -0.031039
C59   C     C_1   0.221690 0.468641 0.086390 -0.030810
C60   C     C_1   0.278407 0.968781 0.913626 -0.030875
C61   C     C_1   0.721751 0.968488 0.086396 -0.029011
C62   C     C_1   0.756473 0.430644 0.040455 -0.051247
C63   C     C_1   0.243628 0.430346 0.959610 -0.051323
C64   C     C_1   0.256433 0.930553 0.040415 -0.051381
C65   C     C_3   0.324495 0.445748 0.542356 -0.243673
C66   C     C_1   0.743635 0.930371 0.959582 -0.051425
C67   C     C_1   0.767543 0.451784 0.971900 -0.053860
C68   C     C_1   0.232574 0.451551 0.028150 -0.053837
C69   C     C_1   0.267520 0.951742 0.971876 -0.053932
C70   C     C_1   0.732618 0.951461 0.028144 -0.053649
C71   C     C_1   0.747501 0.405228 0.098268 -0.028360
C72   C     C_1   0.252578 0.404920 0.901809 -0.029124
C73   C     C_1   0.247453 0.905089 0.098214 -0.029168
C74   C     C_1   0.752555 0.905026 0.901761 -0.028817
C75   C     C_R   0.725629 0.316398 0.368070 0.547638
C76   C     C_3   0.175497 0.945615 0.457610 -0.243658
C77   C     C_R   0.275298 0.314434 0.632127 0.549995
C78   C     C_R   0.224699 0.814380 0.367889 0.550104
C79   C     C_R   0.774786 0.814749 0.632040 0.547369
C80   C     C_R   0.706275 0.994013 0.154366 0.545363
C81   C     C_R   0.293822 0.994198 0.845615 0.543555
C82   C     C_R   0.206226 0.494138 0.154367 0.543354
C83   C     C_R   0.793825 0.494206 0.845618 0.543357
C84   C     C_R   0.534350 0.179809 0.139935 0.535409
C85   C     C_R   0.465862 0.179770 0.859979 0.535493
C86   C     C_R   0.034302 0.679805 0.139956 0.535850
C87   C     C_3   0.835110 0.904939 0.536451 -0.226955
C88   C     C_R   0.965813 0.679774 0.860001 0.535428
C89   C     C_R   0.736573 0.360067 0.164343 0.536277
C90   C     C_R   0.263487 0.359836 0.835739 0.536619
C91   C     C_R   0.236526 0.859905 0.164279 0.536578
C92   C     C_R   0.763450 0.859971 0.835682 0.536839
C93   C     C_1   0.485208 0.173005 0.594254 -0.019966
C94   C     C_1   0.514949 0.172893 0.405825 -0.018111
C95   C     C_1   0.985923 0.672672 0.594598 -0.017892
C96   C     C_1   0.015478 0.672815 0.406098 -0.035789
C97   C     C_1   0.504576 0.169852 0.464979 -0.024255
C98   C     C_3   0.819318 0.431949 0.534959 -0.254489
C99   C     C_1   0.495650 0.169908 0.535123 -0.025418
C100  C     C_1   0.005349 0.669589 0.465326 -0.036131
C101  C     C_1   0.996535 0.669476 0.535508 -0.023255
C102  C     C_3   0.685219 0.466918 0.535477 -0.231721
C103  C     C_3   0.319080 0.464281 0.463944 -0.228771
C104  C     C_3   0.180914 0.964201 0.536008 -0.228787
C105  C     C_3   0.821636 0.948720 0.461379 -0.212161
C106  C     C_3   0.683258 0.234834 0.667457 -0.002598
C107  C     C_3   0.743454 0.163334 0.706291 -0.277357
C108  C     C_3   0.736805 0.159593 0.782815 -0.441091
Cr1   Cr    Cr6+3 0.765780 0.160710 0.267420 1.000886
Cr2   Cr    Cr6+3 0.383970 0.323720 0.751490 0.990703
Cr3   Cr    Cr6+3 0.116030 0.823720 0.248510 0.990426
Cr4   Cr    Cr6+3 0.883970 0.823720 0.751490 0.991075
Cr5   Cr    Cr6+3 0.234220 0.160710 0.732580 1.000969
Cr6   Cr    Cr6+3 0.265780 0.660710 0.267420 1.001315
Cr7   Cr    Cr6+3 0.734220 0.660710 0.732580 1.001399
Cr8   Cr    Cr6+3 0.612200 0.009560 0.248850 0.996436
Cr9   Cr    Cr6+3 0.387800 0.009560 0.751150 0.994660
Cr10  Cr    Cr6+3 0.112200 0.509560 0.248850 0.994123
Cr11  Cr    Cr6+3 0.887800 0.509560 0.751150 0.994394
Cr12  Cr    Cr6+3 0.616030 0.323720 0.248510 0.991947
H1    H     H_    0.678769 0.559208 0.550793 0.117747
H2    H     H_    0.140430 0.376898 0.443597 0.132576
H3    H     H_    0.359566 0.876958 0.556403 0.132684
H4    H     H_    0.641208 0.898136 0.456942 0.125635
H5    H     H_    0.848240 0.342238 0.447880 0.142936
H6    H     H_    0.154655 0.346158 0.551958 0.146894
H7    H     H_    0.345346 0.846248 0.448030 0.147029
H8    H     H_    0.663183 0.929193 0.571362 0.162692
H9    H     H_    0.442862 0.356771 0.948791 0.150471
H10   H     H_    0.559441 0.355271 0.050897 0.150158
H11   H     H_    0.942351 0.856458 0.948846 0.150346
H12   H     H_    0.328262 0.558344 0.450331 0.116010
H13   H     H_    0.058949 0.855626 0.050943 0.149937
H14   H     H_    0.534027 0.355785 0.938564 0.136007
H15   H     H_    0.468246 0.357282 0.060968 0.136704
H16   H     H_    0.033533 0.856140 0.938646 0.136079
H17   H     H_    0.967750 0.856985 0.061054 0.136527
H18   H     H_    0.377002 0.156481 0.953739 0.110434
H19   H     H_    0.623134 0.153536 0.046120 0.109679
H20   H     H_    0.876961 0.655834 0.953780 0.110472
H21   H     H_    0.123112 0.654181 0.046157 0.110115
H22   H     H_    0.402733 0.159110 0.070261 0.116245
H23   H     H_    0.171686 0.058242 0.549547 0.115605
H24   H     H_    0.597466 0.155597 0.929585 0.116005
H25   H     H_    0.902672 0.658347 0.070308 0.116877
H26   H     H_    0.097430 0.656366 0.929624 0.116077
H27   H     H_    0.551635 0.015751 0.933469 0.132145
H28   H     H_    0.447153 0.017853 0.066722 0.131889
H29   H     H_    0.051900 0.516193 0.933456 0.132001
H30   H     H_    0.947401 0.517382 0.066717 0.131766
H31   H     H_    0.576408 0.014167 0.049648 0.140727
H32   H     H_    0.422616 0.015975 0.950581 0.140359
H33   H     H_    0.076616 0.514553 0.049625 0.140749
H34   H     H_    0.829600 0.046388 0.458774 0.106769
H35   H     H_    0.922817 0.515561 0.950564 0.140442
H36   H     H_    0.638733 0.424343 0.553295 0.167206
H37   H     H_    0.364609 0.419839 0.445406 0.165381
H38   H     H_    0.135400 0.919693 0.554579 0.165466
H39   H     H_    0.862643 0.911667 0.432633 0.149901
H40   H     H_    0.626476 0.422885 0.437299 0.139991
H41   H     H_    0.377741 0.414041 0.561655 0.141815
H42   H     H_    0.122258 0.913834 0.438343 0.141777
H43   H     H_    0.876182 0.834778 0.541317 0.150528
H44   H     H_    0.690443 0.537074 0.432356 0.135980
H45   H     H_    0.756098 0.171824 0.472907 0.084791
H46   H     H_    0.316560 0.532006 0.568118 0.121582
H47   H     H_    0.183408 0.031868 0.431780 0.121467
H48   H     H_    0.854328 0.981868 0.569657 0.122720
H49   H     H_    0.333212 0.026315 0.543515 0.126428
H50   H     H_    0.668644 0.043144 0.451810 0.122256
H51   H     H_    0.842102 0.522347 0.544520 0.135371
H52   H     H_    0.166817 0.526267 0.456386 0.127212
H53   H     H_    0.307853 0.991953 0.430152 0.179869
H54   H     H_    0.730963 0.035343 0.565500 0.168402
H55   H     H_    0.814111 0.489619 0.430022 0.190529
H56   H     H_    0.247266 0.167769 0.526488 0.086553
H57   H     H_    0.192103 0.491898 0.569771 0.179923
H58   H     H_    0.785896 0.218042 0.585517 0.098353
H59   H     H_    0.215375 0.217977 0.414522 0.100599
H60   H     H_    0.284680 0.718060 0.585603 0.100691
H61   H     H_    0.699663 0.730184 0.406108 0.103770
H62   H     H_    0.667584 0.221318 0.474929 0.147748
H63   H     H_    0.334284 0.213571 0.524998 0.143640
H64   H     H_    0.165774 0.713411 0.475165 0.145004
H65   H     H_    0.774772 0.664016 0.529444 0.134593
H66   H     H_    0.634277 0.194579 0.680905 0.160297
H67   H     H_    0.252814 0.667759 0.473721 0.086262
H68   H     H_    0.681601 0.328530 0.685787 0.153415
H69   H     H_    0.742959 0.070054 0.686497 0.189693
H70   H     H_    0.794039 0.205390 0.699844 0.170805
H71   H     H_    0.731525 0.251787 0.803047 0.173625
H72   H     H_    0.783975 0.117978 0.810782 0.165898
H73   H     H_    0.690644 0.105867 0.792290 0.139039
H74   H     H_    0.365587 0.190537 0.317733 0.160458
H75   H     H_    0.318893 0.325217 0.314140 0.150381
H76   H     H_    0.255905 0.068006 0.313781 0.193190
H77   H     H_    0.205932 0.204460 0.300301 0.168969
H78   H     H_    0.688639 0.727572 0.517626 0.079702
H79   H     H_    0.267869 0.248902 0.196569 0.172619
H80   H     H_    0.214464 0.116189 0.189329 0.166353
H81   H     H_    0.307789 0.102180 0.207184 0.139415
H82   H     H_    0.134588 0.690260 0.682476 0.160340
H83   H     H_    0.181231 0.825031 0.686016 0.150433
H84   H     H_    0.244284 0.567975 0.686323 0.193318
H85   H     H_    0.294214 0.704506 0.699761 0.169126
H86   H     H_    0.232325 0.748606 0.803536 0.172568
H87   H     H_    0.285864 0.616138 0.810729 0.166491
H88   H     H_    0.192561 0.601745 0.792973 0.139335
H89   H     H_    0.862195 0.371151 0.556776 0.128531
H90   H     H_    0.867144 0.675881 0.339924 0.158199
H91   H     H_    0.823409 0.813858 0.329900 0.139354
H92   H     H_    0.756166 0.560943 0.313816 0.195857
H93   H     H_    0.709568 0.700172 0.297065 0.170391
H94   H     H_    0.787026 0.751177 0.207152 0.169492
H95   H     H_    0.735207 0.618412 0.188798 0.162021
H96   H     H_    0.826421 0.603951 0.219793 0.143053
O1    O     O_R   0.783100 0.287550 0.345460 -0.529068
O2    O     O_R   0.454350 0.284910 0.836260 -0.525658
O3    O     O_R   0.045650 0.784910 0.163740 -0.525388
O4    O     O_R   0.954350 0.784910 0.836260 -0.525751
O5    O     O_R   0.677950 0.374280 0.185410 -0.499956
O6    O     O_R   0.322050 0.374280 0.814590 -0.501534
O7    O     O_R   0.177950 0.874280 0.185410 -0.501665
O8    O     O_R   0.822050 0.874280 0.814590 -0.501288
O9    O     O_3   0.664670 0.164660 0.254930 -0.276120
O10   O     O_3   0.335330 0.164660 0.745070 -0.276599
O11   O     O_3   0.164670 0.664660 0.254930 -0.276335
O12   O     O_R   0.216900 0.287550 0.654540 -0.527783
O13   O     O_3   0.835330 0.664660 0.745070 -0.276334
O14   O     O_R   0.760020 0.037400 0.337700 -0.523743
O15   O     O_R   0.239980 0.037400 0.662300 -0.525508
O16   O     O_R   0.260020 0.537400 0.337700 -0.525452
O17   O     O_R   0.739980 0.537400 0.662300 -0.528081
O18   O     O_R   0.666600 0.921990 0.332020 -0.534296
O19   O     O_R   0.333400 0.921990 0.667980 -0.535310
O20   O     O_R   0.166600 0.421990 0.332020 -0.535306
O21   O     O_R   0.833400 0.421990 0.667980 -0.536472
O22   O     O_R   0.557260 0.082670 0.312540 -0.494329
O23   O     O_R   0.283100 0.787550 0.345460 -0.527748
O24   O     O_R   0.442740 0.082670 0.687460 -0.494056
O25   O     O_R   0.057260 0.582670 0.312540 -0.492986
O26   O     O_R   0.942740 0.582670 0.687460 -0.494615
O27   O     O_R   0.548410 0.285740 0.316480 -0.520650
O28   O     O_R   0.451590 0.285740 0.683520 -0.521412
O29   O     O_R   0.048410 0.785740 0.316480 -0.521520
O30   O     O_R   0.951590 0.785740 0.683520 -0.520645
O31   O     O_R   0.680500 0.375040 0.327000 -0.513137
O32   O     O_R   0.319500 0.375040 0.673000 -0.511688
O33   O     O_R   0.180500 0.875040 0.327000 -0.511649
O34   O     O_R   0.716900 0.787550 0.654540 -0.527332
O35   O     O_R   0.819500 0.875040 0.673000 -0.512147
O36   O     O_R   0.780350 0.286720 0.192720 -0.507688
O37   O     O_R   0.219650 0.286720 0.807280 -0.506688
O38   O     O_R   0.280350 0.786720 0.192720 -0.506543
O39   O     O_R   0.719650 0.786720 0.807280 -0.506719
O40   O     O_R   0.757470 0.036630 0.196110 -0.496941
O41   O     O_R   0.242530 0.036630 0.803890 -0.498594
O42   O     O_R   0.257470 0.536630 0.196110 -0.498507
O43   O     O_R   0.742530 0.536630 0.803890 -0.498439
O44   O     O_R   0.663840 0.921160 0.179280 -0.515365
O45   O     O_R   0.554710 0.081900 0.170950 -0.517057
O46   O     O_R   0.336160 0.921160 0.820720 -0.518436
O47   O     O_R   0.163840 0.421160 0.179280 -0.518612
O48   O     O_R   0.836160 0.421160 0.820720 -0.518393
O49   O     O_3   0.679247 0.228910 0.595064 -0.609444
O50   O     O_3   0.321634 0.223606 0.404282 -0.608797
O51   O     O_3   0.178425 0.723607 0.595882 -0.608469
O52   O     O_3   0.807725 0.709729 0.416154 -0.608112
O53   O     O_R   0.445290 0.081900 0.829050 -0.516438
O54   O     O_R   0.054710 0.581900 0.170950 -0.516698
O55   O     O_R   0.945290 0.581900 0.829050 -0.516553
O56   O     O_R   0.545650 0.284910 0.163740 -0.525432

loop_
_geom_bond_atom_site_label_1
_geom_bond_atom_site_label_2
_ccdc_geom_bond_type
C61   C70   T    
C76   C104  S    
C87   H43   S    
C58   C83   S    
C39   H17   S    
Cr1   O36   S    
C78   O23   A    
C89   O36   A    
C15   H59   S    
C12   C29   S    
C82   O42   A    
C11   H95   S    
C14   C18   S    
C76   H42   S    
C65   H41   S    
C59   C82   S    
C14   C31   S    
C7    H85   S    
C15   O50   S    
C32   O16   A    
C13   C22   S    
Cr5   O10   S    
C7    C8    S    
C27   C98   S    
Cr7   O34   S    
C105  H39   S    
C57   C86   S    
C103  H12   S    
Cr4   O30   S    
C6    O51   S    
C48   H30   S    
Cr12  O5    S    
Cr5   O41   S    
C62   C67   S    
Cr4   O35   S    
Cr11  O48   S    
C44   H33   S    
C17   C35   S    
C36   C37   S    
C51   O29   A    
C90   O6    A    
C17   O52   S    
C50   O28   A    
C5    H81   S    
C38   C39   S    
C56   C88   S    
C106  C107  S    
Cr9   O19   S    
C61   C80   S    
C74   C92   S    
C21   O15   A    
Cr8   O22   S    
C37   H10   S    
C40   H32   S    
C52   C95   S    
C29   H53   S    
C18   C102  S    
C85   O53   A    
C8    H88   S    
C33   H56   S    
C41   C55   S    
C36   C53   S    
C43   O21   A    
C16   C34   S    
Cr6   O11   S    
C19   C103  S    
C1    O14   A    
C46   H28   S    
Cr10  O47   S    
C47   H29   S    
Cr9   O24   S    
C26   C87   S    
C44   C47   S    
C40   H18   S    
C46   C55   S    
C33   H63   S    
C45   H24   S    
C64   C73   T    
C37   H15   S    
C108  H71   S    
C83   O43   A    
C80   O44   A    
Cr12  O31   S    
C23   C27   S    
C49   C94   S    
C102  H1    S    
C9    C10   S    
C93   C99   T    
C81   O46   A    
Cr8   O44   S    
C14   O49   S    
Cr3   O29   S    
C25   C34   S    
C11   H96   S    
C42   C56   S    
C44   C57   S    
C105  H34   S    
C47   H26   S    
C45   C53   S    
C1    C22   S    
Cr7   O43   S    
C3    O50   S    
C53   C85   S    
Cr4   O8    S    
C12   C20   S    
C83   O48   A    
C51   O25   A    
Cr3   O3    S    
C21   O19   A    
C19   C32   S    
Cr6   O16   S    
C49   O27   A    
C1    O18   A    
C28   H6    S    
Cr5   O15   S    
C5    H80   S    
C2    H2    S    
C25   C29   S    
Cr6   O38   S    
C9    O52   S    
C30   H8    S    
Cr9   O10   S    
C3    H74   S    
Cr5   O37   S    
Cr8   O45   S    
C76   H47   S    
C42   H20   S    
C25   C78   S    
C31   H45   S    
C13   C30   S    
C48   C57   S    
C17   C22   S    
C73   C91   S    
C5    H79   S    
C97   C99   S    
C23   C75   S    
C13   H4    S    
C84   O56   A    
C103  H37   S    
Cr5   O12   S    
Cr3   O7    S    
C94   C97   T    
C26   C79   S    
C65   H46   S    
C3    H75   S    
Cr4   O13   S    
C88   O4    A    
C36   H14   S    
Cr12  O27   S    
C23   C31   S    
C8    H87   S    
C15   C19   S    
C85   O2    A    
C7    H84   S    
C52   O26   A    
C59   C68   T    
C66   C74   T    
C72   C90   S    
Cr1   O14   S    
C58   C67   T    
C88   O55   A    
C87   H48   S    
C87   C105  S    
C92   O8    A    
C9    H90   S    
C16   C20   S    
C48   H25   S    
C107  H69   S    
Cr4   O4    S    
C104  H23   S    
Cr7   O39   S    
C10   H93   S    
C42   C48   S    
C64   C69   S    
C20   C21   S    
C8    H86   S    
Cr6   O42   S    
C41   H19   S    
C106  H66   S    
C14   H58   S    
C71   C89   S    
C41   H31   S    
Cr9   O46   S    
C24   C65   S    
C10   H92   S    
C4    H77   S    
C90   O37   A    
C26   C30   S    
C38   H16   S    
C29   H7    S    
C31   H62   S    
C43   O17   A    
C98   H89   S    
C34   H64   S    
C79   O34   A    
C84   O45   A    
C98   H51   S    
C107  C108  S    
C91   O7    A    
C3    C4    S    
Cr2   O6    S    
C75   O1    A    
C102  H36   S    
Cr7   O17   S    
C75   O31   A    
C23   C54   S    
C39   H13   S    
C86   O54   A    
Cr2   O32   S    
C16   H60   S    
C4    H76   S    
C63   C68   S    
C13   H50   S    
C106  O49   S    
Cr1   O9    S    
C80   O40   A    
C2    C19   S    
C45   H27   S    
C79   O35   A    
C54   C102  S    
Cr11  O21   S    
C24   C28   S    
C104  H38   S    
C49   O22   A    
Cr6   O23   S    
C52   O30   A    
Cr9   O53   S    
Cr10  O25   S    
C50   C93   S    
C6    H82   S    
C12   H49   S    
C20   C104  S    
C91   O38   A    
Cr10  O11   S    
Cr3   O33   S    
C22   C105  S    
Cr11  O55   S    
C51   C96   S    
Cr1   O40   S    
C81   O41   A    
C24   C33   S    
Cr12  O56   S    
Cr8   O9    S    
C24   C77   S    
C25   C76   S    
Cr3   O11   S    
C38   H11   S    
C77   O32   A    
C50   O24   A    
C42   H35   S    
C55   C84   S    
C106  H68   S    
C6    H83   S    
C41   C45   S    
C36   H9    S    
C89   O5    A    
C27   H5    S    
C32   O20   A    
Cr2   O10   S    
C66   C70   S    
C12   H3    S    
C60   C69   T    
C9    H91   S    
Cr2   O28   S    
C40   C46   S    
C96   C100  T    
C107  H70   S    
C100  C101  S    
C46   H22   S    
C60   C81   S    
C30   H54   S    
C62   C71   T    
C6    C7    S    
C86   O3    A    
C27   H55   S    
C34   H67   S    
Cr2   O2    S    
Cr11  O26   S    
Cr7   O13   S    
C16   O51   S    
Cr1   O1    S    
C10   C11   S    
Cr11  O13   S    
C11   H94   S    
C54   H40   S    
C37   C55   S    
C92   O39   A    
Cr10  O20   S    
C26   C35   S    
C4    C5    S    
C38   C56   S    
C63   C72   T    
C77   O12   A    
C40   C53   S    
Cr8   O18   S    
C82   O47   A    
C17   H61   S    
C78   O33   A    
C65   C103  S    
C28   H57   S    
C108  H72   S    
C2    C28   S    
C44   H21   S    
C18   C98   S    
C54   H44   S    
C108  H73   S    
C18   C43   S    
C35   H65   S    
Cr12  O9    S    
C15   C33   S    
C95   C101  T    
C35   H78   S    
C2    H52   S    
C47   C56   S    
Cr10  O54   S    
C39   C57   S    
