data_mof_unit_34062.cif
_audit_creation_date              2012-12-10T18:05:59-0500
_audit_creation_method            fapswitch 2.2
_symmetry_space_group_name_H-M    P1
_symmetry_Int_Tables_number       1
_space_group_crystal_system       triclinic
_cell_length_a                    12.607135
_cell_length_b                    13.095586
_cell_length_c                    14.930448
_cell_angle_alpha                 90.692382
_cell_angle_beta                  102.862482
_cell_angle_gamma                 82.146273
_cell_volume                      2380.16093012

loop_
_atom_site_label
_atom_site_type_symbol
_atom_type_description
_atom_site_fract_x
_atom_site_fract_y
_atom_site_fract_z
_atom_type_partial_charge
C1    C     C_R   0.438388 0.691624 0.488917 0.902505
C2    C     C_R   0.551024 0.563666 0.824110 -0.298614
C3    C     C_R   0.508807 0.485246 0.769589 -0.097995
C4    C     C_R   0.502872 0.494900 0.672989 0.865267
C5    C     C_R   0.471362 0.401598 0.806980 0.107591
C6    C     C_R   0.695733 0.066850 0.642820 -0.214124
C7    C     C_R   0.596934 0.200142 0.533455 -0.042190
C8    C     C_R   0.302849 0.840166 0.410140 -0.004116
C9    C     C_R   0.273127 0.946313 0.397362 -0.233928
C10   C     C_R   0.343831 0.013459 0.440037 -0.196542
C11   C     C_R   0.443818 0.975876 0.501266 0.093846
C12   C     C_R   0.450572 0.419585 0.084733 0.128891
C13   C     C_R   0.462109 0.872064 0.530313 0.068345
C14   C     C_R   0.526477 0.038118 0.534455 0.084763
C15   C     C_R   0.615563 0.003014 0.608391 0.175101
C16   C     C_R   0.561205 0.308677 0.511979 0.835367
C17   C     C_R   0.621780 0.905675 0.647467 -0.260235
C18   C     C_R   0.545973 0.840731 0.608895 -0.205745
C19   C     C_R   0.524201 0.133487 0.493781 -0.256541
C20   C     C_R   0.685174 0.166438 0.606524 -0.198449
C21   C     C_R   0.398053 0.802070 0.478355 -0.156943
C22   C     C_R   0.088432 0.344536 0.374207 -0.305073
C23   C     C_R   0.595430 0.645266 0.063983 -0.212132
C24   C     C_R   0.799898 0.630282 0.608650 0.030501
C25   C     C_R   0.904254 0.659458 0.630529 -0.246837
C26   C     C_R   0.985508 0.610454 0.589105 -0.192295
C27   C     C_R   0.962561 0.531103 0.525567 0.015240
C28   C     C_R   0.498803 0.500340 0.327076 0.916309
C29   C     C_R   0.854712 0.504106 0.505845 0.229407
C30   C     C_R   0.041823 0.477575 0.481132 -0.018651
C31   C     C_R   0.011723 0.398365 0.418469 0.190980
C32   C     C_R   0.905548 0.373182 0.400819 -0.280418
C33   C     C_R   0.828442 0.425186 0.444065 -0.201244
C34   C     C_R   0.596436 0.642733 0.971233 -0.203486
C35   C     C_R   0.150568 0.498812 0.496321 -0.042125
C36   C     C_R   0.194418 0.369195 0.392418 0.024463
C37   C     C_R   0.447328 0.424401 0.176827 -0.263229
C38   C     C_R   0.496697 0.499746 0.231077 -0.047978
C39   C     C_R   0.546561 0.572916 0.194479 -0.231371
C40   C     C_R   0.547721 0.571032 0.101947 0.114509
C41   C     C_R   0.500795 0.493084 0.046791 0.070897
C42   C     C_2   0.234853 0.774402 0.346531 0.405423
C43   C     C_3   0.448632 0.304877 0.751245 -0.405352
C44   C     C_3   0.535392 0.212670 0.787538 -0.874503
C45   C     C_R   0.551685 0.564764 0.916483 0.121901
C46   C     C_R   0.504654 0.488474 0.954044 0.015667
C47   C     C_R   0.462267 0.407536 0.899443 0.102903
C48   C     C_R   0.411395 0.335704 0.938924 -0.220485
C49   C     C_R   0.405355 0.342082 0.030514 -0.225892
H1    H     H_    0.409643 0.367860 0.207108 0.141165
H2    H     H_    0.066729 0.283852 0.326391 0.140266
H3    H     H_    0.583469 0.631491 0.238005 0.157077
H4    H     H_    0.181221 0.557056 0.542646 0.125080
H5    H     H_    0.736572 0.667933 0.640747 0.129387
H6    H     H_    0.064971 0.636109 0.608336 0.137677
H7    H     H_    0.922103 0.719965 0.679376 0.146991
H8    H     H_    0.748778 0.401541 0.428035 0.213357
H9    H     H_    0.631196 0.705461 0.105821 0.148433
H10   H     H_    0.632543 0.701421 0.942337 0.143095
H11   H     H_    0.581875 0.625270 0.793787 0.148021
H12   H     H_    0.686778 0.878681 0.706240 0.138527
H13   H     H_    0.374636 0.274525 0.899928 0.160782
H14   H     H_    0.366015 0.285749 0.059162 0.146945
H15   H     H_    0.741519 0.218527 0.638672 0.158148
H16   H     H_    0.146600 0.796736 0.326207 0.047255
H17   H     H_    0.617975 0.230163 0.783465 0.263500
H18   H     H_    0.536878 0.192664 0.859753 0.261052
H19   H     H_    0.517118 0.144482 0.744891 0.261142
H20   H     H_    0.365074 0.286830 0.750876 0.199277
H21   H     H_    0.450351 0.313690 0.678179 0.236071
H22   H     H_    0.763342 0.041507 0.700147 0.139325
H23   H     H_    0.462772 0.160169 0.432957 0.137766
H24   H     H_    0.317968 0.094590 0.424614 0.136892
H25   H     H_    0.198720 0.977304 0.348492 0.133833
H26   H     H_    0.553469 0.765898 0.641352 0.147904
H27   H     H_    0.255166 0.328059 0.359298 0.120100
H28   H     H_    0.881900 0.312638 0.353399 0.155229
N1    N     N_R   0.222190 0.444670 0.452360 -0.097112
N2    N     N_R   0.776970 0.554790 0.547140 -0.130530
O1    O     O_R   0.366740 0.627160 0.477250 -0.578774
O2    O     O_R   0.544830 0.662520 0.507680 -0.618751
O3    O     O_R   0.410940 0.482340 0.616930 -0.634780
O4    O     O_R   0.589030 0.517700 0.647360 -0.624026
O5    O     O_R   0.455170 0.337480 0.492320 -0.629422
O6    O     O_R   0.633260 0.372840 0.522750 -0.638501
O7    O     O_R   0.410970 0.482300 0.352640 -0.581612
O8    O     O_R   0.589060 0.517660 0.383070 -0.645442
O9    O     O_2   0.276720 0.699707 0.310895 -0.550858
Zn1   Zn    Zn3+2 0.381090 0.476390 0.479680 0.962331
Zn2   Zn    Zn3+2 0.618910 0.523610 0.520320 0.929793

loop_
_geom_bond_atom_site_label_1
_geom_bond_atom_site_label_2
_ccdc_geom_bond_type
C23   H9    S    
C1    C21   S    
C18   H26   S    
C49   H14   S    
C27   C29   A    
C44   H17   S    
C25   H7    S    
C26   H6    S    
C12   C49   A    
C45   C46   A    
C5    C47   A    
C26   C27   A    
C37   C38   A    
O3    Zn1   S    
C13   C18   A    
C8    C42   S    
C30   C31   A    
C11   C14   A    
C2    H11   S    
C35   H4    S    
C1    O2    A    
C23   C40   A    
C29   C33   A    
C16   O5    A    
C12   C37   A    
N2    Zn2   S    
C36   H27   S    
C17   H12   S    
C6    C15   A    
C47   C48   A    
C8    C9    A    
C42   H16   S    
C41   C46   A    
C9    C10   A    
C39   H3    S    
C5    C43   S    
C43   H20   S    
C27   C30   A    
C19   H23   S    
C8    C21   A    
N1    Zn1   S    
C6    H22   S    
O1    Zn1   S    
C22   C31   A    
C38   C39   A    
C24   C25   A    
C10   C11   A    
C39   C40   A    
C25   C26   A    
C20   H15   S    
C43   C44   S    
C12   C41   A    
C24   N2    A    
C48   H13   S    
C31   C32   A    
C29   N2    A    
C28   C38   S    
C23   C34   A    
C28   O8    A    
C17   C18   A    
C13   C21   A    
C34   C45   A    
O2    Zn2   S    
C30   C35   A    
C48   C49   A    
C43   H21   S    
C7    C19   A    
C28   O7    A    
C16   O6    A    
C44   H19   S    
C42   O9    D    
O5    Zn1   S    
C3    C4    S    
C6    C20   A    
C15   C17   A    
O4    Zn2   S    
C46   C47   A    
C7    C16   S    
C33   H8    S    
C14   C19   A    
C3    C5    A    
O7    Zn1   S    
O6    Zn2   S    
C22   C36   A    
C35   N1    A    
C32   C33   A    
C2    C3    A    
C36   N1    A    
C37   H1    S    
C11   C13   A    
C34   H10   S    
C4    O4    A    
C10   H24   S    
C32   H28   S    
C2    C45   A    
C4    O3    A    
C7    C20   A    
C9    H25   S    
O8    Zn2   S    
C1    O1    A    
C14   C15   A    
C44   H18   S    
C40   C41   A    
C24   H5    S    
C22   H2    S    
