data_mof_unit_9792.cif
_audit_creation_date              2012-12-10T17:43:41-0500
_audit_creation_method            fapswitch 2.2
_symmetry_space_group_name_H-M    P1
_symmetry_Int_Tables_number       1
_space_group_crystal_system       triclinic
_cell_length_a                    14.990423
_cell_length_b                    10.724272
_cell_length_c                    9.883062
_cell_angle_alpha                 91.653929
_cell_angle_beta                  90.150621
_cell_angle_gamma                 92.13445
_cell_volume                      1587.03990779

loop_
_atom_site_label
_atom_site_type_symbol
_atom_type_description
_atom_site_fract_x
_atom_site_fract_y
_atom_site_fract_z
_atom_type_partial_charge
C1    C     C_R   0.507911 0.261414 0.498301 0.854574
C2    C     C_R   0.183670 0.449814 0.387282 -0.272283
C3    C     C_R   0.231131 0.497721 0.500220 -0.069377
C4    C     C_R   0.326798 0.498969 0.499875 0.880014
C5    C     C_R   0.187411 0.544399 0.614361 -0.262906
C6    C     C_R   0.608221 0.139664 0.708457 -0.155783
C7    C     C_R   0.626255 0.087580 0.832301 -0.137370
C8    C     C_R   0.591530 0.969356 0.859530 -0.161927
C9    C     C_R   0.545422 0.899234 0.758932 -0.213427
C10   C     C_R   0.533749 0.946184 0.627030 0.095132
C11   C     C_R   0.555427 0.072828 0.609551 0.103372
C12   C     C_R   0.909683 0.553431 0.614533 0.024410
C13   C     C_R   0.520765 0.130226 0.495316 -0.111905
C14   C     C_R   0.484841 0.060676 0.386008 -0.232027
C15   C     C_R   0.477854 0.933705 0.392332 -0.190884
C16   C     C_R   0.499412 0.740762 0.503280 0.872479
C17   C     C_R   0.501000 0.875112 0.511289 -0.132397
C18   C     C_R   0.383990 0.334500 0.135495 -0.143872
C19   C     C_R   0.326083 0.253195 0.062898 -0.213815
C20   C     C_R   0.325148 0.253823 0.922870 -0.183520
C21   C     C_R   0.382273 0.335518 0.854755 -0.111833
C22   C     C_R   0.442329 0.418700 0.925122 0.151407
C23   C     C_R   0.949989 0.400155 0.276876 -0.196477
C24   C     C_R   0.442734 0.418414 0.069752 0.071479
C25   C     C_R   0.556539 0.577740 0.075581 0.516185
C26   C     C_R   0.555497 0.577310 0.930497 -0.274696
C27   C     C_R   0.673323 0.501603 0.500253 0.898799
C28   C     C_R   0.817278 0.561363 0.610645 0.445516
C29   C     C_R   0.769400 0.504614 0.500966 -0.220524
C30   C     C_R   0.813305 0.450993 0.390584 -0.340802
C31   C     C_R   0.905520 0.450388 0.389118 0.124422
C32   C     C_R   0.953899 0.500089 0.502129 -0.017946
C33   C     C_3   0.749690 0.743409 0.669396 0.109944
C34   C     C_R   0.042707 0.399947 0.275838 -0.225043
C35   C     C_3   0.806122 0.846469 0.740768 -0.887583
C36   C     C_3   0.694895 0.682846 0.098624 0.091474
C37   C     C_3   0.754702 0.748018 0.205477 -0.816753
C38   C     C_R   0.091231 0.448688 0.387692 0.121904
C39   C     C_R   0.046757 0.497838 0.501979 0.089935
C40   C     C_R   0.095271 0.545785 0.615655 0.125903
C41   C     C_R   0.051156 0.595224 0.728223 -0.250546
C42   C     C_R   0.958797 0.599504 0.727569 -0.185187
H1    H     H_    0.635606 0.232565 0.690867 0.158250
H2    H     H_    0.775548 0.409586 0.305758 0.182336
H3    H     H_    0.598562 0.640435 0.875502 0.158085
H4    H     H_    0.913109 0.361899 0.189802 0.143797
H5    H     H_    0.076419 0.361751 0.187947 0.148260
H6    H     H_    0.218573 0.412537 0.299962 0.156446
H7    H     H_    0.225181 0.581828 0.701128 0.163806
H8    H     H_    0.088109 0.631604 0.816085 0.151053
H9    H     H_    0.926153 0.638712 0.815796 0.192699
H10   H     H_    0.459538 0.104492 0.296926 0.170487
H11   H     H_    0.679113 0.755282 0.696904 0.180679
H12   H     H_    0.664670 0.140531 0.908631 0.137746
H13   H     H_    0.753957 0.755850 0.557682 0.113149
H14   H     H_    0.876731 0.841548 0.708222 0.252777
H15   H     H_    0.781232 0.938896 0.714169 0.234873
H16   H     H_    0.802321 0.836953 0.852162 0.252191
H17   H     H_    0.692411 0.745553 0.011400 0.137940
H18   H     H_    0.725253 0.593159 0.067429 0.150308
H19   H     H_    0.759197 0.689537 0.295674 0.259314
H20   H     H_    0.822748 0.764412 0.163906 0.206862
H21   H     H_    0.727100 0.839176 0.236449 0.250061
H22   H     H_    0.600951 0.931226 0.958572 0.150315
H23   H     H_    0.517275 0.811669 0.791019 0.181246
H24   H     H_    0.451366 0.881504 0.304658 0.178261
H25   H     H_    0.380794 0.329077 0.242719 0.198837
H26   H     H_    0.281512 0.189645 0.115774 0.143449
H27   H     H_    0.279773 0.190775 0.866479 0.147020
H28   H     H_    0.376990 0.330732 0.747390 0.201062
N1    N     N_R   0.499150 0.498800 0.142780 -0.155175
N2    N     N_R   0.499120 0.498720 0.857170 -0.136481
O1    O     O_R   0.500000 0.316780 0.614690 -0.643256
O2    O     O_3   0.608677 0.662846 0.153136 -0.580597
O3    O     O_R   0.499990 0.316750 0.385360 -0.647801
O4    O     O_R   0.367850 0.499980 0.614680 -0.642968
O5    O     O_R   0.367840 0.499960 0.385350 -0.641703
O6    O     O_R   0.500010 0.683250 0.614640 -0.649077
O7    O     O_R   0.500000 0.683220 0.385310 -0.561746
O8    O     O_R   0.632160 0.500040 0.614650 -0.591441
O9    O     O_R   0.632150 0.500020 0.385320 -0.590539
O10   O     O_3   0.774229 0.624921 0.713997 -0.632373
Zn1   Zn    Zn3+2 0.500010 0.500020 0.653130 0.930514
Zn2   Zn    Zn3+2 0.499990 0.499980 0.346870 0.973270

loop_
_geom_bond_atom_site_label_1
_geom_bond_atom_site_label_2
_ccdc_geom_bond_type
C33   H13   S    
C27   C29   S    
C26   N2    A    
C41   C42   A    
C19   C20   A    
C36   H17   S    
C5    H7    S    
C37   H20   S    
C7    C8    A    
C12   C28   A    
C35   H16   S    
C18   C24   A    
C36   C37   S    
C18   C19   A    
O7    Zn2   S    
O3    Zn2   S    
C10   C17   A    
C25   O2    S    
C32   C39   A    
C12   C42   A    
C26   H3    S    
O6    Zn1   S    
C14   H10   S    
C8    C9    A    
C25   N1    A    
C9    C10   A    
C42   H9    S    
C23   H4    S    
C21   C22   A    
C12   C32   A    
C30   H2    S    
O8    Zn1   S    
O4    Zn1   S    
C22   N2    A    
C37   H21   S    
C33   H11   S    
C38   C39   A    
C28   O10   S    
C1    O3    A    
C27   O9    A    
C27   O8    A    
C6    C11   A    
C16   C17   S    
O5    Zn2   S    
C2    H6    S    
C25   C26   A    
C15   H24   S    
C23   C31   A    
C29   C30   A    
C2    C38   A    
C31   C32   A    
C23   C34   A    
C19   H26   S    
C36   O2    S    
C8    H22   S    
C40   C41   A    
C6    H1    S    
C22   C24   A    
C20   H27   S    
C1    C13   S    
C3    C4    S    
C3    C5    A    
C41   H8    S    
C39   C40   A    
O9    Zn2   S    
N1    Zn2   S    
C33   O10   S    
C15   C17   A    
C28   C29   A    
C35   H14   S    
C34   C38   A    
C36   H18   S    
C37   H19   S    
C6    C7    A    
C21   H28   S    
C35   H15   S    
C16   O7    A    
C1    O1    A    
C2    C3    A    
C18   H25   S    
C4    O5    A    
C11   C13   A    
C30   C31   A    
C33   C35   S    
C16   O6    A    
C9    H23   S    
C4    O4    A    
N2    Zn1   S    
C10   C11   A    
C20   C21   A    
C5    C40   A    
C14   C15   A    
C34   H5    S    
C7    H12   S    
C13   C14   A    
O1    Zn1   S    
C24   N1    A    
