data_mof_unit_58430.cif
_audit_creation_date              2012-12-11T18:45:00-0500
_audit_creation_method            fapswitch 2.2
_symmetry_space_group_name_H-M    P1
_symmetry_Int_Tables_number       1
_space_group_crystal_system       triclinic
_cell_length_a                    8.210453
_cell_length_b                    14.353546
_cell_length_c                    18.724947
_cell_angle_alpha                 96.494426
_cell_angle_beta                  90.447036
_cell_angle_gamma                 92.214283
_cell_volume                      2190.75580547

loop_
_atom_site_label
_atom_site_type_symbol
_atom_type_description
_atom_site_fract_x
_atom_site_fract_y
_atom_site_fract_z
_atom_type_partial_charge
Ba1   Ba    Ba6+2 0.843240 0.541620 0.463500 1.657815
Ba2   Ba    Ba6+2 0.346570 0.458460 0.536510 1.685624
Br1   Br    Br    0.650397 0.670002 0.760682 -0.661276
Br2   Br    Br    0.576773 0.017742 0.697841 -0.725901
C1    C     C_3   0.641095 0.878803 0.273010 -0.352422
C2    C     C_R   0.921237 0.406418 0.103330 0.041868
C3    C     C_R   0.766649 0.367322 0.086069 -0.082544
C4    C     C_3   0.105865 0.725425 0.255509 0.308744
C5    C     C_R   0.697797 0.374354 0.019378 -0.076594
C6    C     C_R   0.785182 0.416410 0.965477 0.030060
C7    C     C_R   0.941982 0.456507 0.982707 0.060582
C8    C     C_R   0.716722 0.421110 0.896293 -0.084412
C9    C     C_R   0.812543 0.457237 0.840665 -0.069181
C10   C     C_R   0.967671 0.502357 0.860169 0.018544
C11   C     C_R   0.029513 0.502861 0.931643 0.036871
C12   C     C_3   0.614438 0.782144 0.297875 0.327744
C13   C     C_R   0.764660 0.448872 0.766182 0.012612
C14   C     C_R   0.868788 0.484716 0.715411 -0.213937
C15   C     C_R   0.012516 0.537216 0.734689 0.024442
C16   C     C_3   0.121996 0.755977 0.180183 -0.258559
C17   C     C_R   0.061929 0.547585 0.808694 -0.044028
C18   C     C_R   0.160328 0.497624 0.072641 0.029474
C19   C     C_R   0.221831 0.497730 0.143917 -0.002901
C20   C     C_R   0.129340 0.452650 0.195043 -0.045029
C21   C     C_R   0.985213 0.402283 0.171988 -0.039357
C22   C     C_R   0.204345 0.600463 0.832922 -0.043478
C23   C     C_3   0.502949 0.306346 0.322944 0.321859
C24   C     C_R   0.265090 0.600124 0.903348 0.015132
C25   C     C_R   0.180656 0.548915 0.952241 0.029014
C26   C     C_R   0.246558 0.545520 0.022393 0.042123
C27   C     C_R   0.412557 0.648289 0.925177 -0.084004
C28   C     C_3   0.185239 0.747387 0.607471 0.282265
C29   C     C_R   0.479898 0.642346 0.993302 -0.103291
C30   C     C_R   0.397919 0.591203 0.042499 0.016532
C31   C     C_R   0.373857 0.543938 0.164138 -0.054081
C32   C     C_R   0.462581 0.587923 0.112051 -0.116856
C33   C     C_R   0.428168 0.547496 0.236597 -0.000208
C34   C     C_3   0.478191 0.273025 0.243484 -0.371956
C35   C     C_R   0.328388 0.509472 0.287380 -0.295755
C36   C     C_R   0.180699 0.461579 0.268044 0.037494
C37   C     C_R   0.703800 0.936241 0.531839 0.029621
C38   C     C_R   0.515201 0.799220 0.493527 0.038941
C39   C     C_R   0.372747 0.764785 0.456385 -0.279924
C40   C     C_3   0.237655 0.850922 0.621907 -0.364638
C41   C     C_R   0.272208 0.824201 0.423439 -0.042373
C42   C     C_R   0.324246 0.917209 0.418133 -0.103782
C43   C     C_R   0.466675 0.954548 0.456113 -0.010810
C44   C     C_R   0.563163 0.895905 0.494224 -0.030830
C45   C     C_3   0.052446 0.231312 0.742233 0.357713
C46   C     C_R   0.646171 0.090586 0.498229 -0.029119
C47   C     C_R   0.747556 0.032020 0.532966 0.047270
C48   C     C_R   0.685681 0.187748 0.502464 0.013045
C49   C     C_R   0.822579 0.225123 0.541951 -0.268371
C50   C     C_R   0.930121 0.166769 0.571480 0.008561
C51   C     C_R   0.891799 0.070274 0.568192 -0.120305
C52   C     C_3   0.005790 0.250513 0.389123 0.315850
C53   C     C_R   0.508462 0.050858 0.460016 -0.029202
C54   C     C_3   0.954431 0.147689 0.370523 -0.405608
C55   C     C_3   0.741084 0.725852 0.680354 0.562567
C56   C     C_3   0.969671 0.145343 0.770005 -0.299032
C57   C     C_3   0.839127 0.813679 0.710795 -0.298433
C58   C     C_2   0.128014 0.297552 0.802546 0.560850
C59   C     C_2   0.540569 0.397192 0.887627 0.518694
C60   C     C_2   0.231670 0.972158 0.370226 0.449141
C61   C     C_2   0.960905 0.750377 0.141393 0.538424
C62   C     C_3   0.559572 0.217448 0.715707 0.339603
C63   C     C_3   0.520769 0.131792 0.754824 0.063286
C64   C     C_R   0.008386 0.453303 0.052709 0.048953
H1    H     H_    0.682315 0.781187 0.349239 0.099187
H2    H     H_    0.818925 0.674403 0.649803 -0.019255
H3    H     H_    0.772783 0.893788 0.264844 0.134294
H4    H     H_    0.888831 0.850200 0.666367 0.069334
H5    H     H_    0.939577 0.795565 0.746001 0.115581
H6    H     H_    0.759994 0.862185 0.743698 0.188085
H7    H     H_    0.482430 0.770499 0.306776 -0.043222
H8    H     H_    0.597083 0.933259 0.314269 0.119252
H9    H     H_    0.383452 0.326705 0.345760 0.015802
H10   H     H_    0.589384 0.368250 0.328362 0.051723
H11   H     H_    0.383016 0.215500 0.236419 0.154828
H12   H     H_    0.362472 0.857822 0.645041 0.200986
H13   H     H_    0.439250 0.331689 0.214351 0.045642
H14   H     H_    0.594000 0.246710 0.220277 0.121165
H15   H     H_    0.573448 0.882406 0.221865 0.127956
H16   H     H_    0.207957 0.710169 0.148944 0.081897
H17   H     H_    0.958547 0.271443 0.717172 -0.181434
H18   H     H_    0.060594 0.104336 0.796058 0.140674
H19   H     H_    0.874798 0.167300 0.809612 0.105626
H20   H     H_    0.911896 0.099371 0.724554 0.121265
H21   H     H_    0.693423 0.228512 0.713471 -0.070054
H22   H     H_    0.508786 0.205628 0.660155 0.105717
H23   H     H_    0.235572 0.884416 0.571455 0.060127
H24   H     H_    0.588290 0.138073 0.806807 0.110839
H25   H     H_    0.035542 0.657368 0.252708 0.085095
H26   H     H_    0.388775 0.126239 0.766469 0.154309
H27   H     H_    0.696022 0.333491 0.125113 0.063534
H28   H     H_    0.574939 0.345601 0.011834 0.130756
H29   H     H_    0.831507 0.476884 0.659447 0.069041
H30   H     H_    0.917100 0.361701 0.207573 0.099270
H31   H     H_    0.272107 0.640594 0.796862 0.145671
H32   H     H_    0.476879 0.690359 0.889425 0.148106
H33   H     H_    0.595137 0.679186 0.007917 0.123004
H34   H     H_    0.155815 0.889323 0.660607 0.132150
H35   H     H_    0.579543 0.622839 0.125625 0.133952
H36   H     H_    0.230843 0.714724 0.275178 -0.069407
H37   H     H_    0.368546 0.514787 0.342889 0.073552
H38   H     H_    0.334405 0.691881 0.456731 0.069243
H39   H     H_    0.974873 0.025338 0.592008 0.066835
H40   H     H_    0.852695 0.299540 0.544717 0.057291
H41   H     H_    0.780372 0.894784 0.561480 0.091798
H42   H     H_    0.428998 0.095934 0.435286 0.136951
H43   H     H_    0.173912 0.829020 0.183787 0.083519
H44   H     H_    0.284718 0.708409 0.580207 0.031221
H45   H     H_    0.904625 0.288394 0.416098 -0.000198
H46   H     H_    0.075380 0.740304 0.572438 0.056530
H47   H     H_    0.187817 0.362154 0.790086 0.020420
H48   H     H_    0.457361 0.451154 0.878959 0.023884
H49   H     H_    0.099732 0.968650 0.370095 0.025917
H50   H     H_    0.868371 0.799675 0.158299 0.044163
H51   H     H_    0.113178 0.255765 0.425650 0.068574
H52   H     H_    0.829437 0.140788 0.347248 0.136711
H53   H     H_    0.958388 0.110368 0.419099 0.044285
H54   H     H_    0.037849 0.114410 0.329904 0.171013
O1    O     O_2   0.887710 0.436190 0.327560 -0.467174
O2    O     O_2   0.267883 0.172861 0.562459 -0.482569
O3    O     O_3   0.176717 0.200431 0.694835 -0.603639
O4    O     O_3   0.135370 0.443490 0.416520 -0.497988
O5    O     O_3   0.551980 0.615210 0.532020 -0.459165
O6    O     O_2   0.394410 0.269100 0.474240 -0.467270
O7    O     O_3   0.566142 0.233152 0.356972 -0.631913
O8    O     O_2   0.432774 0.468493 0.753316 -0.463319
O9    O     O_3   0.486032 0.293765 0.753893 -0.587886
O10   O     O_3   0.634420 0.609440 0.364670 -0.489753
O11   O     O_2   0.768203 0.542790 0.242273 -0.481082
O12   O     O_3   0.609488 0.752606 0.640583 -0.604565
O13   O     O_3   0.046300 0.287010 0.325379 -0.638583
O14   O     O_3   0.671369 0.713958 0.245252 -0.606791
O15   O     O_2   0.795290 0.730930 0.525800 -0.507339
O16   O     O_3   0.044470 0.660110 0.398750 -0.472492
O17   O     O_2   0.932663 0.828419 0.434067 -0.514958
O18   O     O_2   0.122878 0.280854 0.865064 -0.579939
O19   O     O_2   0.486845 0.317693 0.892715 -0.548897
O20   O     O_2   0.302023 0.017306 0.327437 -0.601971
O21   O     O_2   0.933661 0.691372 0.090027 -0.598920
O22   O     O_3   0.026938 0.794318 0.300680 -0.610977
O23   O     O_2   0.301980 0.563840 0.672490 -0.405085
O24   O     O_3   0.054330 0.556590 0.583490 -0.508043
O25   O     O_3   0.555270 0.390630 0.635330 -0.467369
O26   O     O_3   0.150974 0.713185 0.672877 -0.632561
O27   O     O_3   0.637720 0.384870 0.467990 -0.475136
O28   O     O_3   0.145220 0.339960 0.601250 -0.474137
P1    P     P_3+3 0.061800 0.409390 0.339760 0.971110
P2    P     P_3+3 0.622760 0.718740 0.547830 0.995133
P3    P     P_3+3 0.069094 0.778326 0.390243 0.931255
P4    P     P_3+3 0.127890 0.590690 0.660240 0.997867
P5    P     P_3+3 0.127905 0.218744 0.606527 0.970013
P6    P     P_3+3 0.625301 0.602468 0.271034 0.949244
P7    P     P_3+3 0.575886 0.266899 0.449691 0.942256
P8    P     P_3+3 0.564779 0.399358 0.728117 0.986317

loop_
_geom_bond_atom_site_label_1
_geom_bond_atom_site_label_2
_ccdc_geom_bond_type
Ba2   O28   S    
C17   C22   A    
C11   C25   A    
C12   H7    S    
C31   C32   A    
Ba1   O10   S    
O7    P7    S    
C56   H20   S    
C62   H22   S    
C41   C42   A    
C48   C49   A    
Ba2   O23   S    
C4    C16   S    
C45   C56   S    
C32   H35   S    
C29   H33   S    
C10   C17   A    
C24   C25   A    
C15   C17   A    
C14   C15   A    
C1    H15   S    
C2    C21   A    
C34   H11   S    
O17   P3    D    
C23   C34   S    
O11   P6    D    
Ba1   P2    S    
C13   C14   A    
Ba1   Ba2   S    
O22   P3    S    
C1    C12   S    
O10   P6    S    
C42   C43   A    
C7    C11   A    
C53   H42   S    
C63   H26   S    
C46   C48   A    
C52   H45   S    
C27   C29   A    
O15   P2    D    
Ba1   O27   S    
C14   H29   S    
C38   P2    S    
C5    C6    A    
C30   C32   A    
C22   H31   S    
Ba2   O5    S    
C23   H10   S    
Ba2   O27   S    
C2    C64   A    
C62   C63   S    
Ba2   P4    S    
C37   H41   S    
C9    C10   A    
C34   H14   S    
C33   P6    S    
Ba1   O24   S    
O26   P4    S    
C56   H19   S    
O6    P7    D    
C29   C30   A    
C62   H21   S    
C28   C40   S    
O1    P1    D    
C55   C57   S    
C54   H54   S    
C26   C30   A    
C45   H17   S    
C16   C61   S    
C40   H12   S    
Ba1   O4    S    
C50   P5    S    
C8    C59   S    
C40   H34   S    
C55   H2    S    
C57   H5    S    
Ba2   O25   S    
C49   C50   A    
C60   H49   S    
C36   P1    S    
C42   C60   S    
C39   H38   S    
O9    P8    S    
Ba1   O1    S    
C25   C26   A    
O5    P2    S    
C43   C53   A    
C16   H43   S    
C39   C41   A    
O4    P1    S    
C43   C44   A    
O24   P4    S    
C61   H50   S    
O12   P2    S    
C54   H52   S    
C46   C47   A    
C59   O19   D    
C4    O22   S    
C38   C44   A    
C27   H32   S    
C20   C21   A    
C13   P8    S    
C4    H36   S    
C5    H28   S    
C18   C64   A    
C40   H23   S    
C6    C8    A    
O23   P4    D    
Ba2   O4    S    
C57   H4    S    
C19   C31   A    
O28   P5    S    
C16   H16   S    
C34   H13   S    
C23   O7    S    
C52   H51   S    
C41   P3    S    
C38   C39   A    
C59   H48   S    
C12   O14   S    
C35   C36   A    
C52   O13   S    
Ba1   O15   S    
C7    C64   A    
O16   P3    S    
C62   O9    S    
C48   P7    S    
C35   H37   S    
C50   C51   A    
C54   H53   S    
C56   H18   S    
C45   C58   S    
C28   H44   S    
C31   C33   A    
C10   C11   A    
C46   C53   A    
C24   C27   A    
C4    H25   S    
Ba1   O5    S    
C23   H9    S    
Br2   C63   S    
C3    H27   S    
C2    C3    A    
C28   O26   S    
C57   H6    S    
Ba2   O24   S    
C45   O3    S    
C12   H1    S    
C55   O12   S    
C22   C24   A    
C9    C13   A    
O8    P8    D    
C28   H46   S    
C1    H8    S    
C58   H47   S    
C1    H3    S    
C18   C26   A    
C49   H40   S    
C60   O20   D    
O13   P1    S    
C63   H24   S    
C20   C36   A    
C37   C44   A    
C52   C54   S    
Ba1   P1    S    
C47   C51   A    
O14   P6    S    
C6    C7    A    
C19   C20   A    
C3    C5    A    
C21   H30   S    
C8    C9    A    
C33   C35   A    
O2    P5    D    
C51   H39   S    
C15   P4    S    
C18   C19   A    
C58   O18   D    
O25   P8    S    
O27   P7    S    
C37   C47   A    
C61   O21   D    
Ba1   O16   S    
O3    P5    S    
Ba2   O6    S    
Br1   C55   S    
