data_mof_unit_41432.cif
_audit_creation_date              2013-03-05T16:03:01-0500
_audit_creation_method            fapswitch 2.2
_symmetry_space_group_name_H-M    P1
_symmetry_Int_Tables_number       1
_space_group_crystal_system       triclinic
_cell_length_a                    14.992226
_cell_length_b                    14.031108
_cell_length_c                    10.49682
_cell_angle_alpha                 90.492522
_cell_angle_beta                  90.10491
_cell_angle_gamma                 89.950817
_cell_volume                      2207.99918941

loop_
_atom_site_label
_atom_site_type_symbol
_atom_site_description
_atom_site_fract_x
_atom_site_fract_y
_atom_site_fract_z
_atom_type_partial_charge
O1    O     O_R   0.367850 0.580280 0.500030 -0.624068
O2    O     O_R   0.632150 0.419720 0.499970 -0.619374
O3    O     O_R   0.632150 0.580280 0.499970 -0.624486
O4    O     O_R   0.367850 0.419720 0.500030 -0.619965
C1    C     C_R   0.326566 0.500035 0.500198 0.894385
C2    C     C_R   0.673435 0.499961 0.499821 0.893983
O5    O     O_R   0.499970 0.580260 0.313950 -0.621893
O6    O     O_R   0.500030 0.419740 0.686050 -0.627230
O7    O     O_R   0.500030 0.580260 0.686050 -0.628741
O8    O     O_R   0.499970 0.419740 0.313950 -0.632108
C3    C     C_R   0.500015 0.499560 0.257146 0.883480
C4    C     C_R   0.500115 0.500425 0.742860 0.884225
Zn1   Zn    Zn3+2 0.500000 0.607200 0.500000 0.966847
Zn2   Zn    Zn3+2 0.500000 0.392800 0.500000 0.967707
C5    C     C_3   0.426655 0.544791 0.042788 -0.162331
C6    C     C_3   0.573660 0.455104 0.957211 -0.167899
C7    C     C_3   0.500060 0.591051 0.961165 -0.077401
C8    C     C_3   0.500269 0.408821 0.038866 -0.095133
C9    C     C_3   0.426811 0.455008 0.956716 -0.173145
C10   C     C_3   0.573504 0.544872 0.043313 -0.163823
H1    H     H_    0.367236 0.418600 0.916449 0.167481
H2    H     H_    0.633066 0.581302 0.083583 0.164385
H3    H     H_    0.366925 0.581107 0.082571 0.163425
H4    H     H_    0.633397 0.418819 0.917400 0.162031
H5    H     H_    0.500157 0.665244 0.925336 0.211694
H6    H     H_    0.500409 0.334557 0.074628 0.185216
C11   C     C_3   0.500199 0.501189 0.877792 -0.025657
C12   C     C_3   0.500103 0.498714 0.122226 -0.015701
C13   C     C_R   0.814807 0.582430 0.464252 -0.234729
C14   C     C_R   0.185205 0.417558 0.535859 -0.228982
C15   C     C_R   0.769233 0.499885 0.499590 -0.077973
C16   C     C_R   0.230771 0.500099 0.500470 -0.080513
C17   C     C_R   0.815027 0.417320 0.534855 -0.226263
C18   C     C_R   0.184973 0.582655 0.465190 -0.234604
C19   C     C_R   0.907305 0.416774 0.535528 0.108774
C20   C     C_R   0.092698 0.583202 0.464554 0.110457
C21   C     C_R   0.953599 0.499953 0.499896 0.063083
C22   C     C_R   0.046407 0.500027 0.500206 0.063564
C23   C     C_R   0.907080 0.583062 0.463968 0.109879
C24   C     C_R   0.092929 0.416922 0.536147 0.106383
C25   C     C_R   0.953886 0.334668 0.571402 -0.183201
C26   C     C_R   0.046119 0.665310 0.428692 -0.185776
C27   C     C_R   0.046574 0.334747 0.571734 -0.179922
C28   C     C_R   0.953435 0.665238 0.428389 -0.184824
H7    H     H_    0.778544 0.645868 0.436062 0.169542
H8    H     H_    0.221474 0.354129 0.564074 0.179970
H9    H     H_    0.778936 0.353857 0.562917 0.172836
H10   H     H_    0.221059 0.646111 0.437091 0.171199
H11   H     H_    0.918678 0.270639 0.599080 0.168648
H12   H     H_    0.081327 0.729338 0.401003 0.167075
H13   H     H_    0.081959 0.270774 0.599643 0.176808
H14   H     H_    0.918052 0.729216 0.400496 0.170117
C29   C     C_R   0.539701 0.797224 0.402593 0.029115
C30   C     C_R   0.461116 0.202771 0.598059 0.028209
C31   C     C_R   0.460180 0.798554 0.597321 0.026891
C32   C     C_R   0.538575 0.201459 0.401649 0.028104
N1    N     N_R   0.500000 0.750030 0.500000 -0.129508
N2    N     N_R   0.500000 0.249970 0.500000 -0.131043
C33   C     C_R   0.460211 0.899419 0.601485 -0.114425
C34   C     C_R   0.540504 0.100592 0.399023 -0.113733
C35   C     C_R   0.539276 0.898014 0.398061 -0.115198
C36   C     C_R   0.458918 0.101969 0.600410 -0.114113
C37   C     C_R   0.499747 0.949435 0.499763 0.013762
C38   C     C_R   0.499739 0.050563 0.499741 0.012717
C39   C     C_R   0.420278 0.950970 0.702966 0.227215
C40   C     C_R   0.580251 0.049053 0.297364 0.229802
C41   C     C_R   0.578708 0.948133 0.296128 0.226748
C42   C     C_R   0.418716 0.051848 0.701699 0.230657
H15   H     H_    0.571859 0.755369 0.329017 0.172503
H16   H     H_    0.432193 0.244631 0.674313 0.177416
H17   H     H_    0.428279 0.757710 0.671154 0.171312
H18   H     H_    0.567398 0.242337 0.325359 0.175288
N3    N     N_R   0.379814 0.901452 0.807051 0.222106
O9    O     O_R   0.296622 0.916822 0.835751 -0.319873
O10   O     O_R   0.428194 0.847926 0.880555 -0.354215
N4    N     N_R   0.620701 0.098622 0.193288 0.219525
O11   O     O_R   0.593563 0.083112 0.077150 -0.287307
O12   O     O_R   0.689816 0.152785 0.213224 -0.383327
N5    N     N_R   0.618498 0.897126 0.191504 0.220184
O13   O     O_R   0.701261 0.912565 0.160925 -0.325731
O14   O     O_R   0.570021 0.841290 0.120061 -0.348024
N6    N     N_R   0.377575 0.102834 0.805232 0.222045
O15   O     O_R   0.403789 0.088612 0.921762 -0.286273
O16   O     O_R   0.308735 0.157061 0.784305 -0.398281

loop_
_geom_bond_atom_site_label_1
_geom_bond_atom_site_label_2
_geom_bond_distance
_ccdc_geom_bond_type
C14   C16   1.398438 A    
C31   C33   1.415552 A    
N3    O10   1.300934 A    
N3    O9    1.301007 A    
C20   C26   1.400615 A    
C8    H6    1.110578 S    
O3    C2    1.285273 A    
C29   H15   1.080217 S    
O5    C3    1.275160 A    
O1    C1    1.285311 A    
C9    H1    1.110430 S    
N4    O12   1.301099 A    
Zn1   N1    2.004063 S    
C7    C10   1.542944 S    
C39   N3    1.435490 S    
C8    C9    1.543157 S    
C35   C37   1.414125 A    
O7    Zn1   1.992366 S    
C36   C38   1.414187 A    
C29   C35   1.415424 A    
C24   C27   1.400594 A    
C32   H18   1.080085 S    
C15   C17   1.398409 A    
C9    C11   1.526605 S    
O3    Zn1   2.016589 S    
O6    C4    1.275006 A    
C1    C16   1.436188 S    
C28   H14   1.084474 S    
C6    C11   1.526671 S    
C5    H3    1.110348 S    
C2    C15   1.436224 S    
C34   C40   1.416005 A    
C6    H4    1.110346 S    
C13   C15   1.398395 A    
C25   C27   1.389594 A    
O2    C2    1.285280 A    
C26   C28   1.389549 A    
C19   C25   1.400639 A    
C25   H11   1.084450 S    
Zn2   N2    2.004065 S    
C4    C11   1.416305 S    
C7    C11   1.528629 S    
C8    C12   1.528920 S    
N4    O11   1.301079 A    
O8    Zn2   1.992366 S    
N5    O14   1.301244 A    
C29   N1    1.361144 A    
C30   C36   1.415207 A    
C32   C34   1.415582 A    
C13   H7    1.085592 S    
C16   C18   1.398363 A    
C5    C9    1.543916 S    
C21   C22   1.391405 A    
C35   C41   1.415916 A    
C30   H16   1.080014 S    
C6    C10   1.543937 S    
C39   C42   1.415784 A    
C40   N4    1.435689 S    
C13   C23   1.383435 A    
C14   C24   1.383468 A    
C26   H12   1.084451 S    
C10   H2    1.110414 S    
N6    O16   1.301155 A    
C31   N1    1.361298 A    
C17   H9    1.085516 S    
N5    O13   1.301026 A    
O1    Zn1   2.017228 S    
C30   N2    1.361051 A    
C5    C7    1.542965 S    
O6    Zn2   1.985985 S    
C19   C21   1.411922 A    
C14   H8    1.085620 S    
O4    C1    1.285220 A    
C23   C28   1.400583 A    
C10   C12   1.526553 S    
C33   C37   1.414157 A    
C36   C42   1.415690 A    
C34   C38   1.414156 A    
C42   N6    1.435834 S    
C20   C22   1.411925 A    
C7    H5    1.109894 S    
C21   C23   1.411962 A    
C33   C39   1.415861 A    
C22   C24   1.411970 A    
C27   H13   1.084488 S    
C5    C12   1.526583 S    
C3    C12   1.416179 S    
C17   C19   1.383486 A    
C32   N2    1.361237 A    
C40   C41   1.416167 A    
C18   C20   1.383431 A    
O4    Zn2   2.016590 S    
O2    Zn2   2.017226 S    
O7    C4    1.273530 A    
O8    C3    1.273317 A    
C37   C38   1.418940 A    
O5    Zn1   1.985986 S    
C18   H10   1.085514 S    
C6    C8    1.543129 S    
N6    O15   1.301072 A    
C41   N5    1.436072 S    
C31   H17   1.080393 S    
