data_mof_unit_19779.cif
_audit_creation_date              2012-12-10T17:22:41-0500
_audit_creation_method            fapswitch 2.2
_symmetry_space_group_name_H-M    P1
_symmetry_Int_Tables_number       1
_space_group_crystal_system       triclinic
_cell_length_a                    10.643775
_cell_length_b                    10.862077
_cell_length_c                    9.686707
_cell_angle_alpha                 88.329633
_cell_angle_beta                  89.736905
_cell_angle_gamma                 96.531716
_cell_volume                      1112.13676113

loop_
_atom_site_label
_atom_site_type_symbol
_atom_type_description
_atom_site_fract_x
_atom_site_fract_y
_atom_site_fract_z
_atom_type_partial_charge
C1    C     C_R   0.492032 0.262415 0.502229 0.772381
C2    C     C_3   0.955760 0.463477 0.374047 -0.161768
C3    C     C_3   0.027923 0.383786 0.474269 -0.046145
C4    C     C_3   0.123400 0.497004 0.501042 -0.097272
C5    C     C_R   0.322858 0.101355 0.695220 -0.166621
C6    C     C_R   0.244315 0.024371 0.784607 -0.107858
C7    C     C_R   0.241221 0.896507 0.778651 -0.165158
C8    C     C_R   0.316669 0.844758 0.683285 -0.170220
C9    C     C_R   0.400413 0.920619 0.593811 0.110199
C10   C     C_R   0.403180 0.051454 0.599970 0.115189
C11   C     C_R   0.481182 0.127593 0.505261 -0.128111
C12   C     C_R   0.259875 0.497916 0.500364 0.749927
C13   C     C_R   0.542094 0.075138 0.398665 -0.142853
C14   C     C_R   0.531120 0.948458 0.383853 -0.004746
C15   C     C_R   0.473560 0.869422 0.491068 -0.192423
C16   C     C_R   0.686927 0.669692 0.128120 0.417497
C17   C     C_R   0.769494 0.749550 0.044006 -0.314383
C18   C     C_R   0.754873 0.756365 0.904491 -0.089952
C19   C     C_R   0.669565 0.669649 0.843382 -0.106026
C20   C     C_R   0.586078 0.582455 0.920393 0.112826
C21   C     C_R   0.589260 0.582688 0.069737 0.128792
C22   C     C_R   0.415883 0.421824 0.075104 0.048408
C23   C     C_R   0.492152 0.736736 0.497498 0.854761
C24   C     C_R   0.417785 0.422732 0.927773 -0.004258
C25   C     C_R   0.740115 0.499378 0.499630 0.924173
C26   C     C_3   0.045522 0.532957 0.625322 -0.296644
C27   C     C_3   0.949144 0.420144 0.595781 0.379210
C28   C     C_3   0.877085 0.499305 0.498027 -0.053619
C29   C     C_3   0.973859 0.611838 0.524141 -0.026363
C30   C     C_3   0.053690 0.577723 0.400726 -0.202049
Cu1   Cu    Cu3+1 0.499990 0.499990 0.640660 0.971027
Cu2   Cu    Cu3+1 0.500010 0.500010 0.359340 0.969296
H1    H     H_    0.177230 0.836944 0.845448 0.127392
H2    H     H_    0.303059 0.745174 0.676559 0.156585
H3    H     H_    0.839484 0.816432 0.089758 0.176344
H4    H     H_    0.674064 0.673917 0.734421 0.242924
H5    H     H_    0.351021 0.360101 0.872482 0.159579
H6    H     H_    0.082868 0.560684 0.728065 0.155766
H7    H     H_    0.099469 0.643663 0.320902 0.151086
H8    H     H_    0.917591 0.435461 0.271744 0.187933
H9    H     H_    0.593901 0.134720 0.320789 0.204422
H10   H     H_    0.315455 0.199359 0.698822 0.133238
H11   H     H_    0.183079 0.064125 0.856398 0.171604
N1    N     N_R   0.501210 0.501210 0.147910 -0.229145
N2    N     N_R   0.501250 0.501290 0.852040 -0.212652
O1    O     O_R   0.499990 0.319640 0.618810 -0.562942
O2    O     O_R   0.500000 0.319660 0.381240 -0.621104
O3    O     O_R   0.316850 0.499960 0.618770 -0.607831
O4    O     O_R   0.316860 0.499980 0.381190 -0.611754
O5    O     O_R   0.500000 0.680340 0.618760 -0.595211
O6    O     O_R   0.500010 0.680360 0.381190 -0.549902
O7    O     O_R   0.683140 0.500020 0.618810 -0.569728
O8    O     O_R   0.683150 0.500040 0.381230 -0.531293
O9    O     O_3   0.891087 0.337342 0.696272 -0.690132
H12   H     H_    0.961320 0.302683 0.745256 0.325869
C31   C     C_2   0.569181 0.906068 0.247775 0.436629
H13   H     H_    0.513618 0.829852 0.199058 0.094960
O10   O     O_2   0.658752 0.961344 0.184100 -0.533416
C32   C     C_2   0.319096 0.332129 0.146188 0.389707
H14   H     H_    0.314620 0.320106 0.256401 0.140840
O11   O     O_2   0.240410 0.267925 0.080333 -0.567408
O12   O     O_3   0.697487 0.688743 0.266030 -0.670339
H15   H     H_    0.775132 0.743854 0.287680 0.351245
C33   C     C_2   0.824044 0.861262 0.825514 0.473326
H16   H     H_    0.917140 0.900378 0.858415 0.038197
O13   O     O_2   0.773994 0.910488 0.728671 -0.472307
C34   C     C_2   0.948943 0.742056 0.546780 0.324540
H17   H     H_    0.024849 0.809794 0.579582 0.089104
O14   O     O_2   0.844140 0.773145 0.526201 -0.525450
C35   C     C_2   0.061314 0.255837 0.450838 0.396327
H18   H     H_    0.113491 0.209541 0.528720 0.033109
O15   O     O_2   0.030258 0.203374 0.344572 -0.487330

loop_
_geom_bond_atom_site_label_1
_geom_bond_atom_site_label_2
_ccdc_geom_bond_type
C8    C9    A    
C14   C31   S    
C5    H10   S    
C16   C21   A    
C19   C20   A    
C1    C11   S    
Cu1   O7    S    
C12   O3    A    
C13   H9    S    
C12   O4    A    
C27   O9    S    
C7    C8    A    
C25   C28   S    
C26   C27   S    
C29   C30   S    
C24   N2    A    
C28   C29   S    
C25   O8    A    
C19   H4    S    
C5    C6    A    
C1    O1    A    
C31   H13   S    
C18   C19   A    
C29   C34   S    
C22   N1    A    
C16   C17   A    
Cu1   O1    S    
C35   H18   S    
C4    C12   S    
C9    C10   A    
C20   N2    A    
C15   C23   S    
C32   H14   S    
C13   C14   A    
C7    H1    S    
C16   O12   S    
C24   H5    S    
C32   O11   D    
C35   O15   D    
C34   H17   S    
C3    C35   S    
C22   C32   S    
C26   H6    S    
C23   O5    A    
C34   O14   D    
C33   O13   D    
Cu2   O6    S    
O12   H15   S    
C21   N1    A    
C23   O6    A    
Cu1   Cu2   S    
C17   C18   A    
Cu2   N1    S    
C8    H2    S    
Cu1   O3    S    
Cu2   O2    S    
C22   C24   A    
Cu1   O5    S    
C3    C4    S    
Cu2   O8    S    
O9    H12   S    
C14   C15   A    
C1    O2    A    
C4    C26   S    
C6    C7    A    
C2    C30   S    
C33   H16   S    
C3    C27   S    
C2    C3    S    
C9    C15   A    
C25   O7    A    
C5    C10   A    
C11   C13   A    
C18   C33   S    
C31   O10   D    
C30   H7    S    
Cu2   O4    S    
C10   C11   A    
C2    H8    S    
C20   C21   A    
C26   C29   S    
Cu1   N2    S    
C27   C28   S    
C6    H11   S    
C2    C28   S    
C17   H3    S    
C4    C30   S    
