data_mof_unit_66410.cif
_audit_creation_date              2013-03-05T16:14:13-0500
_audit_creation_method            fapswitch 2.2
_symmetry_space_group_name_H-M    P1
_symmetry_Int_Tables_number       1
_space_group_crystal_system       triclinic
_cell_length_a                    6.928246
_cell_length_b                    23.052165
_cell_length_c                    25.519432
_cell_angle_alpha                 90.467191
_cell_angle_beta                  90.176837
_cell_angle_gamma                 89.901703
_cell_volume                      4075.57506092

loop_
_atom_site_label
_atom_site_type_symbol
_atom_site_description
_atom_site_fract_x
_atom_site_fract_y
_atom_site_fract_z
_atom_type_partial_charge
O1    O     O_R   0.692030 0.303130 0.695360 -0.595349
O2    O     O_R   0.307970 0.696870 0.304640 -0.613570
O3    O     O_R   0.363210 0.310250 0.803560 -0.592446
O4    O     O_R   0.636790 0.689750 0.196440 -0.597697
O5    O     O_R   0.192880 0.197710 0.803930 -0.603984
O6    O     O_R   0.807120 0.802290 0.196070 -0.601341
C1    C     C_R   0.532507 0.325479 0.820966 1.025923
C2    C     C_R   0.467903 0.676631 0.177248 1.028911
O7    O     O_R   0.362320 0.310070 0.695740 -0.590511
O8    O     O_R   0.637680 0.689930 0.304260 -0.596100
O9    O     O_R   0.191980 0.197530 0.695350 -0.575342
O10   O     O_R   0.808020 0.802470 0.304650 -0.575705
C3    C     C_R   0.530856 0.324259 0.677481 1.078254
C4    C     C_R   0.469166 0.675804 0.322573 1.024909
O11   O     O_R   0.692920 0.303310 0.803940 -0.589424
O12   O     O_R   0.307080 0.696690 0.196060 -0.583593
O13   O     O_3   0.525970 0.213500 0.749640 -0.258775
O14   O     O_3   0.474030 0.786500 0.250360 -0.249167
V1    V     V_3+5 0.251120 0.257270 0.749650 1.261995
V2    V     V_3+5 0.748880 0.742730 0.250350 1.245305
O15   O     O_R   0.862270 0.190590 0.695730 -0.576470
O16   O     O_R   0.137730 0.809410 0.304270 -0.575967
C5    C     C_R   0.030774 0.177904 0.676387 1.035775
C6    C     C_R   0.969225 0.822102 0.323609 1.029655
O17   O     O_R   0.863160 0.190770 0.803550 -0.584426
O18   O     O_R   0.136840 0.809230 0.196450 -0.553778
C7    C     C_R   0.032615 0.175322 0.819945 0.988578
C8    C     C_R   0.967417 0.824559 0.179951 1.073551
V3    V     V_3+5 0.751120 0.243570 0.749640 1.272772
V4    V     V_3+5 0.248880 0.756430 0.250360 1.278602
O19   O     O_3   0.026140 0.287350 0.749650 -0.259895
O20   O     O_3   0.973860 0.712650 0.250350 -0.296717
C9    C     C_R   0.044065 0.129847 0.860163 -0.280126
C10   C     C_R   0.956136 0.869617 0.139369 -0.295814
C11   C     C_R   0.904280 0.085175 0.863587 0.340020
C12   C     C_R   0.096069 0.914197 0.135589 0.351112
C13   C     C_R   0.915148 0.045677 0.904927 -0.171207
C14   C     C_R   0.085449 0.953249 0.093904 -0.179905
C15   C     C_R   0.064260 0.049134 0.942137 0.007102
C16   C     C_R   0.936497 0.949423 0.056672 0.008203
C17   C     C_R   0.207171 0.091424 0.936923 -0.017715
C18   C     C_R   0.793621 0.907168 0.062164 0.004664
C19   C     C_R   0.196476 0.131670 0.896614 -0.169041
C20   C     C_R   0.804069 0.867357 0.102829 -0.104976
C21   C     C_2   0.078274 0.007300 0.985439 0.505255
C22   C     C_2   0.922311 0.990989 0.013165 0.487813
H1    H     H_    0.694431 0.834022 0.105156 0.169523
H2    H     H_    0.306169 0.165007 0.894513 0.143016
H3    H     H_    0.325278 0.094059 0.964767 0.175587
H4    H     H_    0.675656 0.904251 0.034297 0.187970
H5    H     H_    0.189542 0.988141 0.091831 0.198427
H6    H     H_    0.811050 0.010767 0.906760 0.206878
C23   C     C_R   0.959880 0.863039 0.369030 -0.307288
C24   C     C_R   0.040120 0.136974 0.630960 -0.311407
C25   C     C_R   0.103994 0.905495 0.375313 -0.090978
C26   C     C_R   0.895984 0.094526 0.624666 -0.086244
C27   C     C_R   0.097752 0.945323 0.416997 -0.118003
C28   C     C_R   0.902231 0.054703 0.582979 -0.112824
C29   C     C_R   0.945408 0.943908 0.453552 0.185354
C30   C     C_R   0.054598 0.056114 0.546431 0.183755
C31   C     C_R   0.801668 0.901878 0.447295 -0.250003
C32   C     C_R   0.198353 0.098138 0.552697 -0.255196
C33   C     C_R   0.808520 0.860758 0.406371 0.362909
C34   C     C_R   0.191499 0.139254 0.593625 0.366720
N1    N     N_2   0.931056 0.982795 0.497349 -0.078858
N2    N     N_2   0.068955 0.017229 0.502632 -0.079920
H7    H     H_    0.778277 0.091806 0.652376 0.183904
H8    H     H_    0.221677 0.908219 0.347595 0.181795
H9    H     H_    0.788044 0.022881 0.579655 0.139207
H10   H     H_    0.211922 0.977152 0.420314 0.136296
H11   H     H_    0.686378 0.899865 0.475819 0.171359
H12   H     H_    0.313659 0.100149 0.524178 0.168505
C35   C     C_R   0.543166 0.370417 0.863323 -0.352216
C36   C     C_R   0.457316 0.634396 0.132533 -0.363244
C37   C     C_R   0.394931 0.373581 0.900805 -0.122118
C38   C     C_R   0.605286 0.593081 0.125765 -0.123870
C39   C     C_R   0.403570 0.413365 0.942495 -0.176623
C40   C     C_R   0.597478 0.551964 0.085068 -0.178934
C41   C     C_R   0.563244 0.450629 0.948368 0.022833
C42   C     C_R   0.438854 0.550362 0.050438 0.022057
C43   C     C_R   0.712696 0.447344 0.911516 0.685094
C44   C     C_R   0.289576 0.590786 0.057307 0.684395
C45   C     C_R   0.702144 0.408954 0.868195 0.140706
C46   C     C_R   0.299641 0.633899 0.096757 0.156307
N3    N     N_2   0.580122 0.491425 0.990709 -0.006166
N4    N     N_2   0.422477 0.508741 0.008780 -0.007199
H13   H     H_    0.727267 0.592196 0.152397 0.166829
H14   H     H_    0.272553 0.344492 0.898276 0.160065
H15   H     H_    0.713850 0.520816 0.081282 0.172360
H16   H     H_    0.286990 0.414187 0.970651 0.173095
C47   C     C_R   0.539803 0.367326 0.633895 -0.205715
C48   C     C_R   0.460289 0.632868 0.366275 -0.199498
C49   C     C_R   0.373416 0.397233 0.617083 -0.081956
C50   C     C_R   0.626677 0.602978 0.383114 -0.110665
C51   C     C_R   0.382204 0.437158 0.575796 -0.171863
C52   C     C_R   0.617946 0.563149 0.424478 -0.181865
C53   C     C_R   0.558119 0.447884 0.549689 0.052340
C54   C     C_R   0.442090 0.552505 0.450642 0.055380
C55   C     C_R   0.723493 0.417911 0.566464 0.777253
C56   C     C_R   0.276748 0.582502 0.433876 0.780218
C57   C     C_R   0.714941 0.378457 0.608020 -0.292308
C58   C     C_R   0.285251 0.621868 0.392249 -0.325194
N5    N     N_2   0.576387 0.487708 0.506938 -0.023699
N6    N     N_2   0.423826 0.512706 0.493413 -0.023221
H17   H     H_    0.764175 0.610172 0.364196 0.156266
H18   H     H_    0.235869 0.389965 0.635952 0.168213
H19   H     H_    0.748854 0.540840 0.435804 0.224935
H20   H     H_    0.251287 0.459461 0.564471 0.228815
H21   H     H_    0.845925 0.356175 0.619540 0.180100
H22   H     H_    0.154295 0.644172 0.380739 0.181978
N7    N     N_R   0.757087 0.077366 0.824360 0.241004
O21   O     O_R   0.585806 0.059921 0.837782 -0.369366
O22   O     O_R   0.802086 0.078180 0.774894 -0.402290
N8    N     N_R   0.243179 0.922375 0.174779 0.238879
O23   O     O_R   0.414569 0.939612 0.161240 -0.378321
O24   O     O_R   0.198088 0.922050 0.224247 -0.419864
F1    F     F_    0.864494 0.484234 0.916398 -0.606163
F2    F     F_    0.138611 0.590227 0.023211 -0.605860
N9    N     N_R   0.846986 0.412060 0.828077 0.269373
O25   O     O_R   0.796136 0.414865 0.779021 -0.377159
O26   O     O_R   0.027118 0.420291 0.840531 -0.323809
N10   N     N_R   0.156097 0.678938 0.097703 0.265089
O27   O     O_R   0.208866 0.733075 0.096970 -0.391481
O28   O     O_R   0.974709 0.666300 0.091062 -0.340190
F3    F     F_    0.894467 0.426749 0.542070 -0.693151
F4    F     F_    0.105837 0.573755 0.458333 -0.688780
F5    F     F_    0.744471 0.012706 0.001520 -0.676494
F6    F     F_    0.256093 0.985564 0.997082 -0.665327
N11   N     N_R   0.667796 0.815104 0.405467 0.238130
O29   O     O_R   0.488861 0.826357 0.417169 -0.402953
O30   O     O_R   0.724002 0.761278 0.402794 -0.397543
N12   N     N_R   0.332247 0.184901 0.594539 0.235686
O31   O     O_R   0.511178 0.173643 0.582837 -0.409958
O32   O     O_R   0.276070 0.238731 0.597223 -0.412174

loop_
_geom_bond_atom_site_label_1
_geom_bond_atom_site_label_2
_geom_bond_distance
_ccdc_geom_bond_type
V4    O20   2.157706 S    
C50   H17   1.082931 S    
O13   V3    1.708063 S    
N7    O21   1.301404 A    
O4    C2    1.302186 A    
V1    O19   1.704906 S    
N8    O23   1.301402 A    
C55   F3    1.356346 S    
C21   C22   1.349104 D    
C7    C9    1.474904 S    
C16   C22   1.475408 S    
O9    V1    1.987931 S    
C36   C38   1.408166 A    
C56   F4    1.356367 S    
C11   C13   1.400951 A    
C38   C40   1.401312 A    
N11   O29   1.301257 A    
O3    C1    1.300764 A    
C9    C11   1.418251 A    
C40   C42   1.408455 A    
C27   C29   1.411381 A    
C21   F6    1.362044 S    
C28   C30   1.411380 A    
C43   F1    1.358405 S    
C30   C32   1.398488 A    
C45   N9    1.438083 S    
C31   C33   1.405521 A    
O7    C3    1.301800 A    
C32   C34   1.405528 A    
C53   C55   1.404457 A    
O5    C7    1.294018 A    
O7    V1    2.001192 S    
O6    C8    1.293961 A    
C34   N12   1.435867 S    
O8    V2    2.001194 S    
N12   O31   1.301256 A    
C52   C54   1.413930 A    
C42   N4    1.430583 S    
O3    V1    1.989125 S    
C1    C35   1.492792 S    
O14   V4    1.708062 S    
C27   H10   1.082473 S    
C19   H2    1.083485 S    
C10   C12   1.418077 A    
C20   H1    1.083528 S    
C48   C58   1.408215 A    
C15   C21   1.475428 S    
C31   H11   1.083643 S    
C39   C41   1.408659 A    
C30   N2    1.430654 S    
C2    O12   1.297568 A    
C3    C47   1.498434 S    
C17   C19   1.392554 A    
C18   C20   1.392557 A    
C47   C57   1.408174 A    
C2    C36   1.495684 S    
C43   C45   1.412271 A    
O11   V3    1.987382 S    
C23   C25   1.407240 A    
C40   H15   1.082739 S    
O17   V3    1.998546 S    
C13   C15   1.402959 A    
C24   C26   1.407237 A    
C39   H16   1.082736 S    
C29   C31   1.398483 A    
C9    C19   1.405545 A    
C22   F5    1.362022 S    
C10   C20   1.405545 A    
C42   C44   1.401392 A    
O8    C4    1.301793 A    
C41   C43   1.402456 A    
C13   H6    1.082953 S    
C25   H8    1.083285 S    
C14   H5    1.082950 S    
C6    C23   1.490214 S    
N3    N4    1.250408 D    
O15   V3    1.988267 S    
C49   H18   1.082946 S    
C47   C49   1.409717 A    
O10   V2    1.987933 S    
O1    V3    1.999261 S    
C32   H12   1.083643 S    
N7    O22   1.301480 A    
C50   C52   1.406161 A    
C37   C39   1.400173 A    
C38   H13   1.083119 S    
C4    C48   1.498611 S    
C53   N5    1.437567 S    
N9    O26   1.300728 A    
C18   H4    1.083532 S    
C55   C57   1.404146 A    
C52   H19   1.081571 S    
O18   V4    1.998545 S    
C44   C46   1.410534 A    
C25   C27   1.400218 A    
O16   C6    1.300814 A    
C58   H22   1.083069 S    
O1    C3    1.300359 A    
C35   C37   1.407018 A    
O12   V4    1.987386 S    
N10   O28   1.300782 A    
C12   C14   1.400833 A    
C26   H7    1.083279 S    
C41   N3    1.431306 S    
C11   N7    1.437313 S    
C5    C24   1.490217 S    
C56   C58   1.404191 A    
V2    O20   1.704905 S    
O16   V4    1.988265 S    
C46   N10   1.436599 S    
O18   C8    1.295343 A    
C36   C46   1.421519 A    
C16   C18   1.398110 A    
N8    O24   1.301490 A    
N9    O25   1.301530 A    
C51   C53   1.413926 A    
C28   H9    1.082472 S    
O5    V1    2.000761 S    
O17   C7    1.295436 A    
C17   H3    1.083537 S    
O6    V2    2.000761 S    
O10   C6    1.296574 A    
C54   C56   1.404473 A    
O2    V4    1.999263 S    
O15   C5    1.300820 A    
V3    O19   2.157708 S    
C29   N1    1.430648 S    
C14   C16   1.402995 A    
C23   C33   1.420437 A    
C48   C50   1.409740 A    
C49   C51   1.406157 A    
C24   C34   1.420444 A    
C54   N6    1.437580 S    
C1    O11   1.297133 A    
O9    C5    1.296573 A    
O13   V1    2.153500 S    
C26   C28   1.400207 A    
C12   N8    1.437316 S    
O14   V2    2.153499 S    
C33   N11   1.435859 S    
O2    C4    1.300432 A    
C51   H20   1.081549 S    
C8    C10   1.474536 S    
O4    V2    1.989128 S    
C37   H14   1.083321 S    
C15   C17   1.398100 A    
N12   O32   1.301178 A    
N1    N2    1.249431 D    
N5    N6    1.251928 D    
C44   F2    1.358480 S    
N10   O27   1.301319 A    
C57   H21   1.083070 S    
C35   C45   1.420743 A    
N11   O30   1.301175 A    
