data_mof_unit_30304.cif
_audit_creation_date              2012-10-26T20:58:58-0400
_audit_creation_method            fapswitch 2.2
_symmetry_space_group_name_H-M    P1
_symmetry_Int_Tables_number       1
_space_group_crystal_system       triclinic
_cell_length_a                    27.801095
_cell_length_b                    10.645917
_cell_length_c                    9.430441
_cell_angle_alpha                 90.286019
_cell_angle_beta                  89.472125
_cell_angle_gamma                 89.594889
_cell_volume                      2790.88626175

loop_
_atom_site_label
_atom_site_type_symbol
_atom_type_description
_atom_site_fract_x
_atom_site_fract_y
_atom_site_fract_z
_atom_type_partial_charge
C1    C     C_R   0.500779 0.259887 0.499364 0.551820
C2    C     C_R   0.872879 0.391563 0.461948 0.023514
C3    C     C_R   0.354598 0.497186 0.502296 -0.019744
C4    C     C_R   0.645429 0.503109 0.497724 -0.020084
C5    C     C_R   0.974954 0.391686 0.455435 0.020039
C6    C     C_R   0.025167 0.608321 0.550955 0.019674
C7    C     C_R   0.974037 0.609506 0.547497 0.019949
C8    C     C_R   0.026052 0.394081 0.448640 0.019580
C9    C     C_R   0.949239 0.500326 0.502171 0.037946
C10   C     C_R   0.050866 0.501458 0.499061 0.037726
C11   C     C_R   0.948402 0.283650 0.417898 -0.135784
C12   C     C_R   0.499215 0.740112 0.500637 0.551569
C13   C     C_R   0.051773 0.710392 0.605570 -0.135803
C14   C     C_R   0.898458 0.283999 0.420782 -0.105138
C15   C     C_R   0.101720 0.709089 0.605146 -0.104837
C16   C     C_R   0.407579 0.498667 0.500753 0.583076
C17   C     C_R   0.592430 0.501383 0.499242 0.582788
C18   C     C_R   0.053476 0.292755 0.391958 -0.135767
C19   C     C_R   0.946558 0.716795 0.587105 -0.135694
C20   C     C_3   0.529961 0.042280 0.604128 -0.146977
C21   C     C_3   0.470027 0.957718 0.395877 -0.147036
C22   C     C_3   0.544069 0.955794 0.477951 0.130739
C23   C     C_R   0.102029 0.501910 0.497722 -0.027405
C24   C     C_3   0.455919 0.044205 0.522055 0.130686
C25   C     C_3   0.498940 0.876270 0.502069 0.010090
C26   C     C_3   0.501049 0.123728 0.497935 0.010052
C27   C     C_3   0.484171 0.963116 0.626196 0.147086
C28   C     C_3   0.515818 0.036881 0.373809 0.147117
C29   C     C_3   0.497127 0.614132 0.051492 -0.023827
C30   C     C_3   0.502872 0.385866 0.948510 -0.023975
C31   C     C_3   0.461751 0.549739 0.952735 0.240532
C32   C     C_3   0.538248 0.450254 0.047273 0.240734
C33   C     C_3   0.536341 0.563293 0.948409 -0.002426
C34   C     C_R   0.898075 0.499827 0.503422 -0.027428
C35   C     C_3   0.463660 0.436702 0.051595 -0.002532
C36   C     C_R   0.178585 0.400260 0.443768 0.456010
C37   C     C_R   0.821484 0.605424 0.545521 0.456116
C38   C     C_R   0.177758 0.604075 0.549736 0.455503
C39   C     C_R   0.822382 0.393405 0.462840 0.455645
C40   C     C_R   0.279571 0.555386 0.387446 0.239668
C41   C     C_R   0.720469 0.447017 0.613850 0.240004
C42   C     C_R   0.329936 0.551673 0.388888 -0.218390
C43   C     C_R   0.670105 0.450221 0.612055 -0.218569
C44   C     C_R   0.328639 0.444483 0.616606 0.198602
C45   C     C_R   0.128107 0.398147 0.443446 0.023875
C46   C     C_R   0.671397 0.554575 0.382681 0.198574
C47   C     C_R   0.277637 0.442630 0.612022 0.236243
C48   C     C_R   0.722396 0.556762 0.387355 0.236109
C49   C     C_R   0.253751 0.501089 0.499366 0.297177
C50   C     C_R   0.746312 0.500045 0.501141 0.295702
C51   C     C_3   0.453911 0.017955 0.862857 -0.305757
C52   C     C_3   0.546081 0.982041 0.137151 -0.305792
C53   C     C_3   0.381546 0.636833 0.996042 -0.313404
C54   C     C_3   0.618481 0.363288 0.004107 -0.313872
C55   C     C_3   0.629912 0.993102 0.444563 -0.276213
C56   C     C_R   0.871961 0.607658 0.545909 0.023992
C57   C     C_3   0.370079 0.006903 0.555534 -0.276515
C58   C     C_R   0.103409 0.294899 0.389860 -0.104559
C59   C     C_R   0.896622 0.715492 0.586577 -0.104798
C60   C     C_R   0.127261 0.606029 0.550888 0.023716
Cu1   Cu    Cu3+1 0.500010 0.499990 0.643150 0.962363
Cu2   Cu    Cu3+1 0.499990 0.500010 0.356850 0.962516
H1    H     H_    0.554145 0.077879 0.688075 0.102221
H2    H     H_    0.349971 0.594093 0.302821 0.114547
H3    H     H_    0.879931 0.198931 0.390424 0.169925
H4    H     H_    0.120280 0.789703 0.648184 0.170629
H5    H     H_    0.965008 0.195791 0.387698 0.111528
H6    H     H_    0.035228 0.792629 0.652142 0.113395
H7    H     H_    0.037579 0.210455 0.345775 0.113722
H8    H     H_    0.962390 0.804851 0.617041 0.111689
H9    H     H_    0.333869 0.404489 0.816545 0.332879
H10   H     H_    0.666217 0.592113 0.182095 0.332293
H11   H     H_    0.489590 0.854114 0.807320 0.252405
H12   H     H_    0.445842 0.922120 0.311934 0.102129
H13   H     H_    0.438613 0.975119 0.960300 0.126767
H14   H     H_    0.426344 0.081684 0.817879 0.212290
H15   H     H_    0.486131 0.072948 0.891879 0.124980
H16   H     H_    0.510393 0.145869 0.192679 0.252359
H17   H     H_    0.561381 0.024877 0.039712 0.126791
H18   H     H_    0.513863 0.927044 0.108123 0.124982
H19   H     H_    0.573648 0.918315 0.182137 0.212152
H20   H     H_    0.426854 0.681296 0.827710 0.272764
H21   H     H_    0.350262 0.678430 0.940429 0.161854
H22   H     H_    0.394622 0.705367 0.075939 0.119797
H23   H     H_    0.493481 0.709231 0.098869 0.099407
H24   H     H_    0.369390 0.549930 0.049738 0.154094
H25   H     H_    0.573102 0.318530 0.172179 0.272708
H26   H     H_    0.649713 0.321434 0.059727 0.160932
H27   H     H_    0.630702 0.450338 0.950860 0.153034
H28   H     H_    0.605428 0.295042 0.923861 0.120318
H29   H     H_    0.268966 0.313638 0.754714 0.337320
H30   H     H_    0.731068 0.683848 0.242519 0.338038
H31   H     H_    0.722069 0.361668 0.795658 0.322408
H32   H     H_    0.277940 0.643347 0.207269 0.322724
H33   H     H_    0.599321 0.829794 0.522469 0.258450
H34   H     H_    0.506519 0.290767 0.901134 0.099434
H35   H     H_    0.663933 0.944135 0.414629 0.173974
H36   H     H_    0.634864 0.040870 0.548380 0.136816
H37   H     H_    0.621914 0.064243 0.362215 0.182751
H38   H     H_    0.400662 0.170179 0.477508 0.258737
H39   H     H_    0.336066 0.055874 0.585543 0.173010
H40   H     H_    0.378095 0.935763 0.637868 0.182909
H41   H     H_    0.365103 0.959130 0.451732 0.136242
H42   H     H_    0.566772 0.615459 0.900255 0.106658
H43   H     H_    0.433232 0.384527 0.099751 0.106799
H44   H     H_    0.122626 0.214654 0.345753 0.171261
H45   H     H_    0.877372 0.800164 0.617967 0.170674
H46   H     H_    0.650083 0.408736 0.698721 0.114938
N1    N     N_R   0.202196 0.502061 0.496931 -0.332109
N2    N     N_2   0.408437 0.097470 0.545571 -0.498867
N3    N     N_R   0.797889 0.499456 0.503831 -0.333015
N4    N     N_3   0.500040 0.499970 0.858290 -0.242690
N5    N     N_3   0.499960 0.500030 0.141710 -0.242671
N6    N     N_2   0.466986 0.919870 0.762910 -0.522067
N7    N     N_2   0.533002 0.080126 0.237094 -0.522055
N8    N     N_2   0.419142 0.607526 0.894228 -0.458304
N9    N     N_2   0.580835 0.392398 0.105822 -0.457545
N10   N     N_2   0.591553 0.902532 0.454439 -0.499520
O1    O     O_R   0.500020 0.316850 0.620870 -0.498051
O2    O     O_2   0.796121 0.708165 0.586367 -0.476087
O3    O     O_2   0.797900 0.290442 0.422348 -0.475146
O4    O     O_2   0.202297 0.702967 0.601333 -0.477127
O5    O     O_3   0.353707 0.394962 0.729356 -0.671728
O6    O     O_3   0.646344 0.602588 0.269081 -0.671178
O7    O     O_3   0.249967 0.383223 0.713499 -0.673684
O8    O     O_3   0.750033 0.614646 0.284661 -0.672933
O9    O     O_3   0.745404 0.394102 0.724822 -0.653578
O10   O     O_3   0.254615 0.610205 0.277700 -0.654604
O11   O     O_R   0.499980 0.683150 0.379130 -0.498269
O12   O     O_R   0.500000 0.316860 0.379090 -0.525449
O13   O     O_R   0.500000 0.683140 0.620910 -0.525494
O14   O     O_R   0.430270 0.500020 0.620880 -0.413354
O15   O     O_R   0.569730 0.499980 0.379120 -0.412896
O16   O     O_R   0.430250 0.500030 0.379090 -0.532348
O17   O     O_R   0.569750 0.499970 0.620910 -0.532490
O18   O     O_2   0.203931 0.301427 0.391808 -0.476683

loop_
_geom_bond_atom_site_label_1
_geom_bond_atom_site_label_2
_ccdc_geom_bond_type
C54   H26   S    
C3    C42   A    
H38   N2    S    
C23   C45   A    
C12   O13   A    
Cu1   O1    S    
C33   H42   S    
C15   C60   A    
C41   O9    S    
H16   N7    S    
C24   C27   S    
C32   N9    S    
C16   O16   A    
C51   H15   S    
C47   C49   A    
C4    C46   A    
C34   C56   A    
C57   H40   S    
C30   C35   S    
C53   H22   S    
Cu2   O15   S    
H9    O5    S    
C24   C26   S    
H25   N9    S    
C11   C14   A    
C40   C49   A    
C40   O10   S    
C29   C33   S    
C7    C9    A    
C1    O1    A    
Cu2   O12   S    
C30   H34   S    
Cu1   O14   S    
C37   C56   A    
C2    C39   A    
C18   C58   A    
C22   C25   S    
C17   O17   A    
C31   N4    S    
C53   H24   S    
C32   N5    S    
C52   H17   S    
C29   H23   S    
C53   N8    S    
C2    C34   A    
C18   H7    S    
C40   C42   A    
C22   C28   S    
H10   O6    S    
C41   C43   A    
Cu2   O11   S    
C46   O6    S    
Cu1   Cu2   S    
C16   O14   A    
C36   O18   S    
C11   H5    S    
C47   O7    S    
H33   N10   S    
C23   C60   A    
C57   H41   S    
C46   C48   A    
C45   C58   A    
C51   N6    S    
C12   O11   A    
C24   N2    S    
C51   H14   S    
Cu2   N5    S    
C1    O12   A    
C19   C59   A    
C15   H4    S    
C21   H12   S    
C8    C18   A    
H11   N6    S    
C30   N4    S    
C58   H44   S    
C41   C50   A    
H31   O9    S    
C5    C9    A    
C35   H43   S    
C28   N7    S    
C57   N2    S    
C55   H35   S    
C36   C45   A    
C33   N4    S    
C38   N1    A    
C48   C50   A    
C38   O4    S    
C54   H27   S    
C54   H28   S    
C38   C60   A    
C4    C17   S    
C20   C27   S    
C21   C28   S    
C20   C22   S    
C7    C19   A    
C3    C44   A    
C13   C15   A    
C17   O15   A    
C9    C34   A    
C31   C35   S    
C21   C24   S    
C55   H37   S    
C42   H2    S    
C31   N8    S    
Cu1   O17   S    
C49   N1    S    
C52   N7    S    
C22   N10   S    
C21   C25   S    
H29   O7    S    
C51   H13   S    
H30   O8    S    
C6    C10   A    
C5    C8    A    
C44   C47   A    
C5    C11   A    
C6    C7    A    
C4    C43   A    
H32   O10   S    
C10   C23   A    
C25   C27   S    
C57   H39   S    
C44   O5    S    
C26   C28   S    
C39   O3    S    
C56   C59   A    
C12   C25   S    
C53   H21   S    
C32   C33   S    
Cu2   O16   S    
C20   H1    S    
H20   N8    S    
C29   C31   S    
C6    C13   A    
C30   C32   S    
C1    C26   S    
C37   O2    S    
C20   C26   S    
C55   H36   S    
C39   N3    A    
C50   N3    S    
C14   H3    S    
C35   N5    S    
C43   H46   S    
C52   H19   S    
C2    C14   A    
C59   H45   S    
C37   N3    A    
Cu1   O13   S    
C48   O8    S    
C27   N6    S    
C8    C10   A    
C54   N9    S    
C29   N5    S    
C36   N1    A    
C19   H8    S    
C52   H18   S    
Cu1   N4    S    
C13   H6    S    
C3    C16   S    
C55   N10   S    
