data_mof_unit_46987.cif
_audit_creation_date              2012-12-11T21:12:10-0500
_audit_creation_method            fapswitch 2.2
_symmetry_space_group_name_H-M    P1
_symmetry_Int_Tables_number       1
_space_group_crystal_system       triclinic
_cell_length_a                    8.225661
_cell_length_b                    18.779688
_cell_length_c                    26.997706
_cell_angle_alpha                 99.170723
_cell_angle_beta                  92.785067
_cell_angle_gamma                 88.344235
_cell_volume                      4111.36305028

loop_
_atom_site_label
_atom_site_type_symbol
_atom_type_description
_atom_site_fract_x
_atom_site_fract_y
_atom_site_fract_z
_atom_type_partial_charge
Ba1   Ba    Ba6+2 0.160810 0.465630 0.521640 1.689698
Ba2   Ba    Ba6+2 0.649380 0.534380 0.478400 1.689685
C1    C     C_3   0.425281 0.284035 0.700491 -0.350390
C2    C     C_R   0.062855 0.095728 0.447700 -0.091479
C3    C     C_R   0.200890 0.951919 0.455209 -0.103377
C4    C     C_3   0.959553 0.269894 0.624334 0.357522
C5    C     C_R   0.051002 0.976424 0.475918 0.018631
C6    C     C_R   0.256551 0.881223 0.454324 -0.093618
C7    C     C_R   0.166005 0.831330 0.474129 -0.030645
C8    C     C_R   0.020755 0.855249 0.498345 0.000798
C9    C     C_R   0.963606 0.928180 0.499692 0.023525
C10   C     C_R   0.217233 0.758316 0.471013 -0.012949
C11   C     C_R   0.120319 0.709581 0.489458 -0.302543
C12   C     C_3   0.432831 0.307352 0.649303 0.345886
C13   C     C_R   0.983887 0.732723 0.516785 0.025618
C14   C     C_R   0.934892 0.806689 0.522285 -0.040654
C15   C     C_R   0.844567 0.071809 0.499751 0.024023
C16   C     C_3   0.989675 0.196491 0.640438 -0.356509
C17   C     C_R   0.786205 0.144487 0.500491 -0.000727
C18   C     C_R   0.872653 0.193085 0.476746 -0.039956
C19   C     C_R   0.005426 0.166152 0.448432 -0.027007
C20   C     C_R   0.804006 0.833916 0.551379 -0.026029
C21   C     C_R   0.746928 0.904484 0.552369 -0.088035
C22   C     C_R   0.820105 0.952249 0.525027 0.010806
C23   C     C_3   0.465318 0.314654 0.394394 0.309763
C24   C     C_R   0.757687 0.023669 0.523787 0.018081
C25   C     C_R   0.607885 0.048155 0.544557 -0.103035
C26   C     C_R   0.639961 0.168219 0.524227 -0.032997
C27   C     C_R   0.550815 0.118540 0.544734 -0.092029
C28   C     C_3   0.816752 0.629719 0.632869 0.886172
C29   C     C_R   0.586584 0.240846 0.526311 -0.003847
C30   C     C_R   0.681362 0.289309 0.506740 -0.305705
C31   C     C_R   0.822193 0.266767 0.481506 0.038088
C32   C     C_R   0.312537 0.465021 0.177084 0.618813
C33   C     C_R   0.196566 0.583278 0.175604 0.565834
C34   C     C_3   0.462554 0.233515 0.377509 -0.389273
C35   C     C_2   0.064587 0.563943 0.274085 0.039813
C36   C     C_3   0.052954 0.583617 0.330266 -0.077724
C37   C     C_1   0.283614 0.500085 0.337834 0.027419
C38   C     C_2   0.324162 0.503579 0.291315 -0.082061
C39   C     C_2   0.203266 0.532054 0.255126 0.227039
C40   C     C_3   0.792736 0.655650 0.688373 -0.299350
C41   C     C_R   0.314937 0.517759 0.100043 -0.081323
C42   C     C_R   0.358698 0.461261 0.126999 -0.041207
C43   C     C_R   0.448005 0.401905 0.103502 -0.052757
C44   C     C_R   0.229639 0.578340 0.124333 -0.015770
C45   C     C_3   0.839507 0.733368 0.374055 0.372318
C46   C     C_2   0.158087 0.536045 0.359205 -0.201815
C47   C     C_2   0.647880 0.470707 0.636921 -0.187638
C48   C     C_R   0.493046 0.449585 0.974774 0.020820
C49   C     C_R   0.346605 0.565415 0.970297 0.021009
C50   C     C_R   0.440392 0.505345 0.947261 0.048745
C51   C     C_R   0.587742 0.391567 0.950108 -0.101586
C52   C     C_3   0.958925 0.378392 0.367251 0.257043
C53   C     C_R   0.623519 0.386992 0.899951 -0.059988
C54   C     C_R   0.570236 0.440818 0.872273 -0.023714
C55   C     C_R   0.481801 0.500846 0.895986 -0.081265
C56   C     C_3   0.801255 0.805783 0.357037 -0.361024
C57   C     C_R   0.434122 0.556163 0.868361 -0.034012
C58   C     C_R   0.480262 0.551899 0.818141 0.596809
C59   C     C_R   0.603308 0.435228 0.821035 0.576428
C60   C     C_2   0.741652 0.454846 0.724420 -0.077129
C61   C     C_3   0.751970 0.427167 0.669223 -0.051435
C62   C     C_1   0.519378 0.507724 0.655834 -0.019059
C63   C     C_2   0.478563 0.508948 0.703163 -0.121311
C64   C     C_3   0.950363 0.358921 0.310248 0.420577
C65   C     C_2   0.599566 0.485233 0.741374 0.183327
C66   C     C_R   0.449246 0.453336 0.025615 0.020553
C67   C     C_3   0.368130 0.699868 0.350825 0.351590
C68   C     C_R   0.356811 0.513697 0.048854 0.049121
C69   C     C_R   0.305888 0.569986 0.021582 0.020590
C70   C     C_R   0.493703 0.398250 0.054274 -0.096955
C71   C     C_R   0.180636 0.633490 0.097189 -0.057911
C72   C     C_R   0.296816 0.618973 0.940884 -0.099697
C73   C     C_R   0.341180 0.614726 0.891383 -0.060139
C74   C     C_R   0.216262 0.629220 0.046945 -0.103199
C75   C     C_3   0.333232 0.685465 0.591086 0.301139
C76   C     C_3   0.334226 0.766930 0.606763 -0.391339
C77   C     C_3   0.379228 0.726769 0.300951 -0.361514
C78   C     C_R   0.988832 0.047880 0.474768 0.012241
F1    F     F_    0.968809 0.419394 0.288242 -0.729621
F2    F     F_    0.914102 0.568339 0.627729 -0.695547
H1    H     H_    0.365376 0.359663 0.650285 0.072401
H2    H     H_    0.298659 0.271070 0.707662 0.147982
H3    H     H_    0.253649 0.783089 0.638649 0.130190
H4    H     H_    0.459932 0.784688 0.618315 0.113403
H5    H     H_    0.562427 0.313909 0.641940 -0.064523
H6    H     H_    0.466804 0.328488 0.729989 0.126838
H7    H     H_    0.594086 0.330721 0.401934 0.012291
H8    H     H_    0.530175 0.218791 0.342603 0.129231
H9    H     H_    0.520961 0.205553 0.407252 0.056054
H10   H     H_    0.334884 0.215589 0.370345 0.117651
H11   H     H_    0.929324 0.154263 0.612727 0.071668
H12   H     H_    0.711113 0.704154 0.693075 0.067704
H13   H     H_    0.803025 0.736251 0.413528 0.074395
H14   H     H_    0.973193 0.724708 0.372737 -0.083437
H15   H     H_    0.873596 0.848472 0.380758 0.069703
H16   H     H_    0.832473 0.803278 0.317144 0.118041
H17   H     H_    0.237907 0.699469 0.359306 -0.071260
H18   H     H_    0.421532 0.644377 0.347247 0.056862
H19   H     H_    0.319805 0.688152 0.270752 0.123270
H20   H     H_    0.508278 0.731456 0.291965 0.151734
H21   H     H_    0.010089 0.268549 0.586777 0.079960
H22   H     H_    0.317226 0.780351 0.302542 0.114007
H23   H     H_    0.737521 0.612785 0.705511 0.070572
H24   H     H_    0.158517 0.653474 0.485746 0.064295
H25   H     H_    0.371762 0.866492 0.437619 0.111702
H26   H     H_    0.067747 0.198948 0.426288 0.097236
H27   H     H_    0.742333 0.801138 0.573687 0.086583
H28   H     H_    0.435255 0.133136 0.561271 0.113497
H29   H     H_    0.641090 0.345060 0.509307 0.074266
H30   H     H_    0.280772 0.986526 0.439985 0.071617
H31   H     H_    0.164623 0.080102 0.424464 0.059511
H32   H     H_    0.646018 0.920265 0.575951 0.059870
H33   H     H_    0.825679 0.279164 0.621427 -0.082167
H34   H     H_    0.082085 0.396866 0.380265 -0.008162
H35   H     H_    0.528949 0.013655 0.560241 0.072123
H36   H     H_    0.445611 0.486963 0.279674 0.126877
H37   H     H_    0.485069 0.357880 0.123419 0.125896
H38   H     H_    0.837809 0.440218 0.750051 0.118268
H39   H     H_    0.694748 0.340735 0.882973 0.122461
H40   H     H_    0.636941 0.348094 0.968220 0.069801
H41   H     H_    0.562800 0.350549 0.039855 0.070250
H42   H     H_    0.968546 0.582313 0.249928 0.108930
H43   H     H_    0.113222 0.680635 0.114670 0.122394
H44   H     H_    0.222938 0.665470 0.954796 0.069333
H45   H     H_    0.869210 0.422340 0.378410 0.088471
H46   H     H_    0.122072 0.183735 0.642632 0.148485
H47   H     H_    0.355338 0.524672 0.713813 0.146996
H48   H     H_    0.172684 0.674243 0.029461 0.069266
H49   H     H_    0.149842 0.544430 0.399754 0.051421
H50   H     H_    0.658238 0.457502 0.596575 0.085818
H51   H     H_    0.939337 0.196343 0.677831 0.118101
H52   H     H_    0.697207 0.617349 0.613816 -0.059787
H53   H     H_    0.911725 0.669461 0.708275 0.119766
H54   H     H_    0.290137 0.794249 0.575044 0.061346
H55   H     H_    0.398226 0.327143 0.429578 0.056783
H56   H     H_    0.048032 0.318808 0.298010 0.051186
H57   H     H_    0.504985 0.235705 0.702350 0.115394
H58   H     H_    0.670562 0.820349 0.360749 0.151974
H59   H     H_    0.300160 0.657633 0.870892 0.122300
H60   H     H_    0.830292 0.335326 0.297438 0.046748
H61   H     H_    0.206895 0.668433 0.581413 0.025515
H62   H     H_    0.408692 0.671199 0.557829 0.062852
N1    N     N_R   0.236003 0.526492 0.201706 -0.428092
N2    N     N_R   0.561909 0.491234 0.794421 -0.421503
O1    O     O_2   0.106080 0.324280 0.466820 -0.460880
O2    O     O_2   0.725844 0.537325 0.324944 -0.449181
O3    O     O_3   0.754036 0.678368 0.342538 -0.595028
O4    O     O_3   0.859130 0.413620 0.470620 -0.482576
O5    O     O_3   0.459240 0.537930 0.559910 -0.499971
O6    O     O_2   0.583120 0.462390 0.379940 -0.468209
O7    O     O_3   0.391784 0.349621 0.356434 -0.624617
O8    O     O_2   0.554986 0.757455 0.481458 -0.489465
O9    O     O_3   0.454858 0.745908 0.388159 -0.598825
O10   O     O_2   0.339162 0.412986 0.198500 -0.574239
O11   O     O_2   0.666599 0.379658 0.800013 -0.618900
O12   O     O_3   0.395148 0.652932 0.631358 -0.631936
O13   O     O_2   0.135052 0.638962 0.197054 -0.626112
O14   O     O_2   0.448839 0.602686 0.795834 -0.597686
O15   O     O_3   0.376230 0.370290 0.556910 -0.492971
O16   O     O_2   0.247527 0.243263 0.520635 -0.490545
O17   O     O_3   0.924156 0.316564 0.387210 -0.693220
O18   O     O_3   0.361573 0.254641 0.612739 -0.606814
O19   O     O_2   0.227190 0.537650 0.620070 -0.379007
O20   O     O_3   0.971110 0.406970 0.583250 -0.449173
O21   O     O_2   0.086811 0.462362 0.674899 -0.446673
O22   O     O_3   0.036370 0.323363 0.659541 -0.605884
O23   O     O_2   0.704230 0.675760 0.533200 -0.490194
O24   O     O_3   0.951180 0.586390 0.529420 -0.435682
O25   O     O_3   0.434080 0.629720 0.443130 -0.484974
O26   O     O_3   0.891477 0.683994 0.612876 -0.672264
O27   O     O_3   0.351080 0.462080 0.440130 -0.483891
O28   O     O_3   0.839200 0.593040 0.416790 -0.487833
P1    P     P_3+3 0.929380 0.335110 0.452880 0.967678
P2    P     P_3+3 0.398530 0.559060 0.613740 1.022728
P3    P     P_3+3 0.962709 0.407555 0.647607 1.035829
P4    P     P_3+3 0.880940 0.664900 0.547160 1.009776
P5    P     P_3+3 0.841495 0.595612 0.352581 0.997425
P6    P     P_3+3 0.393195 0.276766 0.553490 0.931879
P7    P     P_3+3 0.398039 0.442890 0.376714 0.971848
P8    P     P_3+3 0.414639 0.723174 0.446511 0.934599

loop_
_geom_bond_atom_site_label_1
_geom_bond_atom_site_label_2
_ccdc_geom_bond_type
C54   C59   A    
Ba2   O4    S    
C38   H36   S    
C53   C54   A    
C53   H39   S    
Ba1   P2    S    
C47   C61   S    
C30   H29   S    
C25   C27   A    
Ba1   O24   S    
O25   P8    S    
C17   C18   A    
C56   H16   S    
C49   C72   A    
C41   C42   A    
O17   P1    S    
O9    P8    S    
C75   C76   S    
O19   P2    D    
C5    C9    A    
O16   P6    D    
Ba1   O27   S    
C24   C25   A    
C67   O9    S    
C49   C69   A    
C60   C65   D    
O24   P4    S    
C15   C24   A    
C26   C27   A    
C22   C24   A    
C12   H5    S    
C2    C78   A    
C51   H40   S    
Ba2   O27   S    
C69   C74   A    
C32   N1    Am   
O1    P1    D    
C55   C57   A    
C56   H58   S    
C13   C14   A    
C9    C22   A    
O3    P5    S    
C54   C55   A    
C16   H51   S    
Ba1   Ba2   S    
C33   N1    Am   
O26   P4    S    
C73   H59   S    
C16   H46   S    
C74   H48   S    
C10   P8    S    
C45   O3    S    
C6    C7    A    
C63   C65   S    
C52   H34   S    
C48   C50   A    
C45   H14   S    
C77   H20   S    
C68   C69   A    
O5    P2    S    
C52   O17   S    
C62   P2    S    
C7    C8    A    
C60   H38   S    
O18   P6    S    
C75   O12   S    
C34   H10   S    
C51   C53   A    
O4    P1    S    
Ba1   O15   S    
C57   C58   A    
C47   C62   D    
C43   C70   A    
C12   O18   S    
C56   H15   S    
C58   N2    Am   
C12   H1    S    
C65   N2    S    
C48   C66   A    
C7    C10   A    
C25   H35   S    
Ba2   O6    S    
C4    C16   S    
C47   H50   S    
C4    O22   S    
C48   C51   A    
C72   C73   A    
C64   F1    S    
C23   O7    S    
C49   C50   A    
C27   H28   S    
C32   C42   A    
C8    C9    A    
C37   C38   D    
C3    C5    A    
Ba2   O23   S    
C28   H52   S    
C15   C78   A    
C40   H53   S    
C28   F2    S    
C23   H55   S    
C59   N2    Am   
C75   H61   S    
C35   C36   S    
C59   O11   D    
C35   H42   S    
C2    H31   S    
C29   C30   A    
C64   H56   S    
Ba1   O19   S    
C66   C70   A    
C20   H27   S    
C60   C61   S    
Ba1   O4    S    
C46   H49   S    
O20   P3    S    
C4    H21   S    
C10   C11   A    
O15   P6    S    
C17   C26   A    
C28   O26   S    
C37   P7    S    
C1    C12   S    
Ba2   O24   S    
C64   H60   S    
C18   C31   A    
C67   H17   S    
C76   H3    S    
O12   P2    S    
C38   C39   S    
O21   P3    D    
O7    P7    S    
C41   C68   A    
C11   C13   A    
C70   H41   S    
C71   C74   A    
C77   H22   S    
C67   C77   S    
C1    H57   S    
C6    H25   S    
C57   C73   A    
O23   P4    D    
C5    C78   A    
C42   C43   A    
C34   H9    S    
C34   H8    S    
Ba2   O5    S    
Ba1   P1    S    
C14   C20   A    
C36   P5    S    
C21   C22   A    
C1    H6    S    
C40   H12   S    
C36   C46   S    
C26   C29   A    
C77   H19   S    
C58   O14   D    
C11   H24   S    
C3    C6    A    
C63   H47   S    
C52   C64   S    
C3    H30   S    
C32   O10   D    
O2    P5    D    
C52   H45   S    
Ba2   O25   S    
C23   H7    S    
C61   P3    S    
C29   P6    S    
C62   C63   D    
C75   H62   S    
C8    C14   A    
C30   C31   A    
C45   C56   S    
C2    C19   A    
C43   H37   S    
C72   H44   S    
C41   C44   A    
Ba1   O20   S    
C71   H43   S    
O8    P8    D    
C15   C17   A    
Ba1   O5    S    
C35   C39   D    
C31   P1    S    
C40   H23   S    
C33   O13   D    
C4    H33   S    
C19   H26   S    
Ba1   O1    S    
C50   C55   A    
C23   C34   S    
O27   P7    S    
C67   H18   S    
C39   N1    S    
C18   C19   A    
C66   C68   A    
C76   H4    S    
C13   P4    S    
C1    H2    S    
C16   H11   S    
C45   H13   S    
C20   C21   A    
C28   C40   S    
Ba2   P4    S    
O6    P7    D    
C33   C44   A    
C76   H54   S    
O28   P5    S    
C44   C71   A    
Ba2   O28   S    
O22   P3    S    
C37   C46   D    
C21   H32   S    
