data_mof_unit_21394.cif
_audit_creation_date              2012-12-11T14:01:36-0500
_audit_creation_method            fapswitch 2.2
_symmetry_space_group_name_H-M    P1
_symmetry_Int_Tables_number       1
_space_group_crystal_system       triclinic
_cell_length_a                    18.915604
_cell_length_b                    10.980383
_cell_length_c                    18.694918
_cell_angle_alpha                 90.152337
_cell_angle_beta                  89.583707
_cell_angle_gamma                 89.829162
_cell_volume                      3882.81154824

loop_
_atom_site_label
_atom_site_type_symbol
_atom_type_description
_atom_site_fract_x
_atom_site_fract_y
_atom_site_fract_z
_atom_type_partial_charge
C1    C     C_R   0.272105 0.043810 0.853155 0.544618
C2    C     C_R   0.005558 0.665814 0.964695 -0.123895
C3    C     C_R   0.489849 0.165309 0.037465 -0.123511
C4    C     C_R   0.505560 0.165813 0.964694 -0.123897
C5    C     C_2   0.280246 0.699014 0.935660 0.007900
C6    C     C_2   0.719389 0.699250 0.064573 0.008847
C7    C     C_2   0.780247 0.199013 0.935659 0.007899
C8    C     C_2   0.219387 0.199250 0.064573 0.008847
C9    C     C_2   0.247257 0.590404 0.076826 -0.029267
C10   C     C_2   0.752730 0.590553 0.923284 -0.029889
C11   C     C_2   0.747259 0.090413 0.076829 -0.029280
C12   C     C_R   0.727938 0.043831 0.146885 0.542356
C13   C     C_2   0.252728 0.090560 0.923282 -0.029905
C14   C     C_2   0.312561 0.591449 0.048850 -0.106997
C15   C     C_2   0.687390 0.591795 0.951166 -0.106245
C16   C     C_2   0.812561 0.091443 0.048849 -0.106995
C17   C     C_2   0.187390 0.091790 0.951167 -0.106246
C18   C     C_2   0.322426 0.620694 0.972041 -0.089314
C19   C     C_2   0.677405 0.621024 0.028018 -0.089503
C20   C     C_2   0.822424 0.120687 0.972040 -0.089307
C21   C     C_2   0.177406 0.121018 0.028020 -0.089498
C22   C     C_2   0.453569 0.828544 0.565370 -0.106500
C23   C     C_R   0.772106 0.543809 0.853155 0.544621
C24   C     C_2   0.480111 0.838429 0.411939 -0.110563
C25   C     C_2   0.953569 0.328544 0.565370 -0.106500
C26   C     C_2   0.980110 0.338429 0.411939 -0.110563
C27   C     C_2   0.453388 0.740603 0.445125 -0.150867
C28   C     C_2   0.429030 0.745171 0.519555 -0.163579
C29   C     C_2   0.953388 0.240603 0.445125 -0.150867
C30   C     C_2   0.929030 0.245171 0.519555 -0.163579
C31   C     C_2   0.246558 0.564910 0.583218 -0.105873
C32   C     C_2   0.753959 0.565508 0.416582 -0.103124
C33   C     C_2   0.746558 0.064910 0.583218 -0.105873
C34   C     C_R   0.227938 0.543830 0.146885 0.542359
C35   C     C_2   0.253959 0.065508 0.416582 -0.103124
C36   C     C_2   0.237922 0.570664 0.427822 -0.089094
C37   C     C_2   0.761875 0.570137 0.572152 -0.089615
C38   C     C_2   0.737922 0.070664 0.427822 -0.089094
C39   C     C_2   0.261875 0.070137 0.572152 -0.089615
C40   C     C_R   0.471792 0.822267 0.852933 0.543512
C41   C     C_R   0.528127 0.822212 0.147149 0.531569
C42   C     C_R   0.971792 0.322267 0.852933 0.543513
C43   C     C_R   0.028127 0.322212 0.147149 0.531570
C44   C     C_2   0.182049 0.558698 0.472255 -0.147505
C45   C     C_R   0.484959 0.055200 0.074110 -0.070486
C46   C     C_2   0.818224 0.562787 0.527919 -0.152986
C47   C     C_2   0.682049 0.058697 0.472256 -0.147505
C48   C     C_2   0.318224 0.062786 0.527919 -0.152986
C49   C     C_2   0.186527 0.582955 0.548112 -0.158648
C50   C     C_2   0.813628 0.585283 0.451973 -0.161742
C51   C     C_2   0.686527 0.082955 0.548112 -0.158648
C52   C     C_2   0.313628 0.085282 0.451973 -0.161742
C53   C     C_R   0.277080 0.695930 0.856996 0.561597
C54   C     C_R   0.722807 0.695843 0.143171 0.560232
C55   C     C_R   0.777080 0.195930 0.856996 0.561598
C56   C     C_R   0.511993 0.056149 0.927406 -0.070964
C57   C     C_R   0.222807 0.195843 0.143171 0.560234
C58   C     C_R   0.273726 0.042827 0.646409 0.553762
C59   C     C_R   0.726380 0.043385 0.353486 0.558530
C60   C     C_R   0.773726 0.542828 0.646409 0.553762
C61   C     C_R   0.226380 0.543385 0.353486 0.558530
C62   C     C_R   0.436588 0.819452 0.640522 0.569714
C63   C     C_R   0.526639 0.824392 0.350272 0.553167
C64   C     C_R   0.936588 0.319452 0.640522 0.569714
C65   C     C_R   0.026639 0.324392 0.350272 0.553167
C66   C     C_R   0.259974 0.633579 0.647498 0.561666
C67   C     C_R   0.984958 0.555199 0.074110 -0.070485
C68   C     C_R   0.740181 0.633670 0.352350 0.571175
C69   C     C_R   0.759974 0.133579 0.647498 0.561665
C70   C     C_R   0.240181 0.133670 0.352350 0.571174
C71   C     C_R   0.499711 0.830424 0.074866 0.020127
C72   C     C_R   0.500027 0.830856 0.925313 0.018515
C73   C     C_R   0.999712 0.330423 0.074866 0.020131
C74   C     C_R   0.000028 0.330857 0.925313 0.018520
C75   C     C_R   0.495602 0.943114 0.038102 0.037167
C76   C     C_R   0.502738 0.943466 0.962709 0.035661
C77   C     C_R   0.995602 0.443114 0.038102 0.037170
C78   C     C_R   0.011991 0.556150 0.927406 -0.070963
C79   C     C_R   0.002738 0.443466 0.962708 0.035664
C80   C     C_R   0.501748 0.721358 0.963293 -0.149137
C81   C     C_R   0.499219 0.721115 0.036329 -0.148797
C82   C     C_R   0.001750 0.221358 0.963292 -0.149129
C83   C     C_R   0.999222 0.221115 0.036328 -0.148790
C84   C     C_2   0.239140 0.797632 0.971574 0.183345
C85   C     C_2   0.760178 0.797763 0.028899 0.184429
C86   C     C_2   0.739149 0.297637 0.971574 0.183339
C87   C     C_2   0.260170 0.297768 0.028899 0.184425
C88   C     C_R   0.989847 0.665308 0.037466 -0.123508
Cr1   Cr    Cr6+3 0.230530 0.836340 0.748870 1.010511
Cr2   Cr    Cr6+3 0.614360 0.677860 0.250770 1.024451
Cr3   Cr    Cr6+3 0.885640 0.177860 0.749230 1.021657
Cr4   Cr    Cr6+3 0.114360 0.177860 0.250770 1.024452
Cr5   Cr    Cr6+3 0.769470 0.836340 0.251130 1.009809
Cr6   Cr    Cr6+3 0.730530 0.336340 0.748870 1.010511
Cr7   Cr    Cr6+3 0.269470 0.336340 0.251130 1.009810
Cr8   Cr    Cr6+3 0.387420 0.989430 0.750820 1.016575
Cr9   Cr    Cr6+3 0.612580 0.989430 0.249180 1.016606
Cr10  Cr    Cr6+3 0.887420 0.489430 0.750820 1.016576
Cr11  Cr    Cr6+3 0.112580 0.489430 0.249180 1.016609
Cr12  Cr    Cr6+3 0.385640 0.677860 0.749230 1.021655
H1    H     H_    0.501001 0.633612 0.936631 0.130949
H2    H     H_    0.858446 0.630343 0.426890 0.153046
H3    H     H_    0.641361 0.127489 0.573302 0.157422
H4    H     H_    0.358446 0.130342 0.426890 0.153045
H5    H     H_    0.290919 0.590332 0.446425 0.084431
H6    H     H_    0.708406 0.585013 0.553347 0.099604
H7    H     H_    0.790918 0.090333 0.446425 0.084431
H8    H     H_    0.208406 0.085014 0.553347 0.099603
H9    H     H_    0.289960 0.513467 0.559421 0.102269
H10   H     H_    0.710931 0.513493 0.440107 0.109395
H11   H     H_    0.789960 0.013467 0.559421 0.102269
H12   H     H_    0.501005 0.633245 0.062526 0.130676
H13   H     H_    0.210931 0.013493 0.440107 0.109395
H14   H     H_    0.471308 0.058776 0.130344 0.137721
H15   H     H_    0.525801 0.060666 0.871259 0.141256
H16   H     H_    0.971306 0.558774 0.130345 0.137721
H17   H     H_    0.025800 0.560668 0.871259 0.141256
H18   H     H_    0.982450 0.750518 0.065846 0.108346
H19   H     H_    0.011834 0.751443 0.936825 0.109331
H20   H     H_    0.482454 0.250519 0.065846 0.108345
H21   H     H_    0.511837 0.251442 0.936824 0.109331
H22   H     H_    0.356782 0.555531 0.079009 0.109256
H23   H     H_    0.001004 0.133612 0.936630 0.130950
H24   H     H_    0.643286 0.556004 0.920855 0.110737
H25   H     H_    0.856779 0.055507 0.079004 0.109254
H26   H     H_    0.143290 0.055984 0.920859 0.110737
H27   H     H_    0.359700 0.563032 0.943198 0.138591
H28   H     H_    0.640392 0.563281 0.056700 0.138857
H29   H     H_    0.859694 0.063019 0.943195 0.138601
H30   H     H_    0.140397 0.063268 0.056702 0.138866
H31   H     H_    0.202434 0.616670 0.044361 0.142013
H32   H     H_    0.797496 0.616612 0.955844 0.140482
H33   H     H_    0.702436 0.116695 0.044368 0.142005
H34   H     H_    0.001009 0.133244 0.062525 0.130677
H35   H     H_    0.297493 0.116634 0.955838 0.140474
H36   H     H_    0.455943 0.651210 0.420175 0.153649
H37   H     H_    0.396950 0.670140 0.539036 0.132977
H38   H     H_    0.955943 0.151210 0.420175 0.153649
H39   H     H_    0.896950 0.170140 0.539036 0.132977
H40   H     H_    0.473424 0.929392 0.433898 0.091567
H41   H     H_    0.487504 0.902741 0.548464 0.099126
H42   H     H_    0.973425 0.429392 0.433898 0.091567
H43   H     H_    0.987504 0.402740 0.548464 0.099126
H44   H     H_    0.191778 0.833115 0.946698 0.116542
H45   H     H_    0.129639 0.538601 0.451859 0.152423
H46   H     H_    0.807597 0.832898 0.053703 0.116516
H47   H     H_    0.691783 0.333120 0.946703 0.116539
H48   H     H_    0.307594 0.332900 0.053697 0.116510
H49   H     H_    0.871106 0.547937 0.548519 0.147500
H50   H     H_    0.629639 0.038599 0.451859 0.152423
H51   H     H_    0.371106 0.047935 0.548519 0.147499
H52   H     H_    0.141361 0.627489 0.573302 0.157422
O1    O     O_R   0.215090 0.709860 0.828130 -0.522390
O2    O     O_R   0.543740 0.718170 0.330000 -0.508744
O3    O     O_R   0.956260 0.218170 0.670000 -0.495769
O4    O     O_R   0.043740 0.218170 0.330000 -0.508744
O5    O     O_R   0.320940 0.626760 0.674370 -0.514341
O6    O     O_R   0.679060 0.626760 0.325630 -0.490184
O7    O     O_R   0.820940 0.126760 0.674370 -0.514341
O8    O     O_R   0.179060 0.126760 0.325630 -0.490184
O9    O     O_3   0.334530 0.834540 0.749640 -0.297530
O10   O     O_3   0.665470 0.834540 0.250360 -0.272545
O11   O     O_3   0.834530 0.334540 0.749640 -0.297531
O12   O     O_R   0.784910 0.709860 0.171870 -0.526906
O13   O     O_3   0.165470 0.334540 0.250360 -0.272546
O14   O     O_R   0.236990 0.958390 0.823710 -0.530003
O15   O     O_R   0.763010 0.958390 0.176290 -0.532981
O16   O     O_R   0.736990 0.458390 0.823710 -0.530004
O17   O     O_R   0.263010 0.458390 0.176290 -0.532981
O18   O     O_R   0.332380 0.074750 0.830850 -0.501259
O19   O     O_R   0.667620 0.074750 0.169150 -0.502305
O20   O     O_R   0.832380 0.574750 0.830850 -0.501256
O21   O     O_R   0.167620 0.574750 0.169150 -0.502300
O22   O     O_R   0.445800 0.917770 0.825070 -0.506761
O23   O     O_R   0.715090 0.209860 0.828130 -0.522388
O24   O     O_R   0.554200 0.917770 0.174930 -0.511860
O25   O     O_R   0.945800 0.417770 0.825070 -0.506762
O26   O     O_R   0.054200 0.417770 0.174930 -0.511861
O27   O     O_R   0.456410 0.716580 0.829970 -0.529746
O28   O     O_R   0.543590 0.716580 0.170030 -0.535458
O29   O     O_R   0.956410 0.216580 0.829970 -0.529745
O30   O     O_R   0.043590 0.216580 0.170030 -0.535457
O31   O     O_R   0.321080 0.625290 0.822650 -0.489270
O32   O     O_R   0.678920 0.625290 0.177350 -0.491105
O33   O     O_R   0.821080 0.125290 0.822650 -0.489271
O34   O     O_R   0.284910 0.209860 0.171870 -0.526904
O35   O     O_R   0.178920 0.125290 0.177350 -0.491107
O36   O     O_R   0.214930 0.711450 0.668160 -0.505918
O37   O     O_R   0.785070 0.711450 0.331840 -0.510308
O38   O     O_R   0.714930 0.211450 0.668160 -0.505918
O39   O     O_R   0.285070 0.211450 0.331840 -0.510308
O40   O     O_R   0.236850 0.959870 0.675420 -0.492753
O41   O     O_R   0.763150 0.959870 0.324580 -0.493229
O42   O     O_R   0.736850 0.459870 0.675420 -0.492753
O43   O     O_R   0.263150 0.459870 0.324580 -0.493229
O44   O     O_R   0.332230 0.076350 0.670880 -0.516164
O45   O     O_R   0.445660 0.919250 0.676780 -0.502241
O46   O     O_R   0.667770 0.076350 0.329120 -0.510240
O47   O     O_R   0.832230 0.576350 0.670880 -0.516163
O48   O     O_R   0.167770 0.576350 0.329120 -0.510240
O49   O     O_2   0.259079 0.842864 0.027662 -0.515312
O50   O     O_2   0.739951 0.843194 0.973057 -0.513756
O51   O     O_2   0.759096 0.342875 0.027658 -0.515312
O52   O     O_2   0.239934 0.343204 0.973062 -0.513755
O53   O     O_R   0.554340 0.919250 0.323220 -0.505005
O54   O     O_R   0.945660 0.419250 0.676780 -0.502241
O55   O     O_R   0.054340 0.419250 0.323220 -0.505005
O56   O     O_R   0.456260 0.718170 0.670000 -0.495769

loop_
_geom_bond_atom_site_label_1
_geom_bond_atom_site_label_2
_ccdc_geom_bond_type
C44   C49   S    
C43   C73   S    
C31   C66   S    
C71   C75   A    
C43   O26   A    
C53   O1    A    
C14   H22   S    
C66   O36   A    
C39   H8    S    
C7    C20   D    
C14   C18   S    
C41   O28   A    
C67   C77   A    
C24   C27   D    
C7    C55   S    
C20   H29   S    
C72   C76   A    
C86   H47   S    
C12   O15   A    
Cr10  O11   S    
Cr12  O56   S    
Cr4   O35   S    
C60   O42   A    
C32   C68   S    
C24   H40   S    
Cr7   O39   S    
C15   C19   S    
C6    C19   D    
C64   O3    A    
C67   C88   A    
C6    C85   S    
C32   H10   S    
Cr10  O47   S    
Cr2   O10   S    
C56   C76   A    
C27   H36   S    
C68   O37   A    
C5    C53   S    
C31   C49   D    
C87   O52   D    
C65   O4    A    
C10   C15   D    
C11   H33   S    
C8    C57   S    
C17   H26   S    
C7    C86   S    
Cr12  O5    S    
C84   H44   S    
C59   O46   A    
C51   H3    S    
C67   H16   S    
C1    O18   A    
Cr8   O9    S    
C22   H41   S    
Cr1   O9    S    
C38   H7    S    
Cr12  O31   S    
C83   H34   S    
C60   O47   A    
Cr4   O13   S    
C56   H15   S    
C23   O20   A    
C35   C70   S    
Cr11  O48   S    
C47   H50   S    
C2    C88   A    
Cr12  O9    S    
C33   H11   S    
Cr2   O2    S    
C16   H25   S    
C61   O43   A    
Cr3   O7    S    
C33   C69   S    
Cr6   O23   S    
C41   C71   S    
Cr10  O20   S    
C77   C79   A    
Cr3   O33   S    
Cr9   O24   S    
Cr8   O18   S    
C4    C56   A    
C13   H35   S    
Cr3   O11   S    
C25   H43   S    
C6    C54   S    
C68   O6    A    
Cr7   O13   S    
C61   O48   A    
C62   O56   A    
C70   O39   A    
C8    C21   D    
C12   O19   A    
C10   H32   S    
C9    H31   S    
C42   O29   A    
Cr8   O45   S    
Cr1   O14   S    
Cr2   O28   S    
C42   C74   S    
C87   H48   S    
C78   H17   S    
C85   H46   S    
C63   O2    A    
Cr11  O26   S    
C15   H24   S    
Cr6   O16   S    
C9    C14   D    
C78   C79   A    
C47   C51   S    
C5    C18   D    
Cr5   O12   S    
C45   H14   S    
C39   C58   S    
C64   O54   A    
C3    C45   A    
C59   O41   A    
C23   O16   A    
Cr11  O55   S    
C25   C64   S    
Cr2   O6    S    
C75   C76   A    
Cr6   O38   S    
Cr3   O3    S    
C29   C30   S    
C2    C78   A    
C18   H27   S    
C22   C62   S    
C40   O27   A    
C11   C16   D    
Cr1   O1    S    
Cr11  O21   S    
C81   H12   S    
C48   C52   S    
C16   C20   S    
C32   C50   D    
C44   H45   S    
C31   H9    S    
Cr4   O4    S    
Cr10  O25   S    
Cr7   O17   S    
C55   O23   A    
C38   C47   D    
C34   O17   A    
Cr8   O22   S    
C85   O50   D    
Cr11  O13   S    
C41   O24   A    
Cr2   O32   S    
C50   H2    S    
C24   C63   S    
C74   C79   A    
Cr3   O29   S    
C58   O40   A    
C9    C34   S    
Cr1   O36   S    
C54   O32   A    
C36   C44   D    
C57   O34   A    
C88   H18   S    
C36   C61   S    
C82   H23   S    
C35   C52   D    
C74   C82   A    
C25   C30   D    
C5    C84   S    
C84   O49   D    
C52   H4    S    
Cr7   O43   S    
C30   H39   S    
C40   C72   S    
C49   H52   S    
C36   H5    S    
Cr6   O42   S    
C26   C65   S    
Cr9   O46   S    
Cr5   O41   S    
C28   H37   S    
C62   O45   A    
C80   C81   A    
C29   H38   S    
C69   O38   A    
C19   H28   S    
C11   C12   S    
C65   O55   A    
Cr5   O37   S    
C10   C23   S    
C33   C51   D    
C46   C50   S    
C43   O30   A    
Cr9   O19   S    
C13   C17   D    
C80   H1    S    
C45   C75   A    
C8    C87   S    
Cr9   O53   S    
C53   O31   A    
C37   H6    S    
C72   C80   A    
C34   O21   A    
Cr4   O30   S    
C82   C83   A    
C40   O22   A    
Cr4   O8    S    
Cr5   O10   S    
C86   O51   D    
C2    H19   S    
C58   O44   A    
C69   O7    A    
Cr1   O40   S    
C4    H21   S    
C35   H13   S    
C70   O8    A    
C55   O33   A    
C17   C21   S    
C21   H30   S    
C57   O35   A    
C37   C60   S    
C3    H20   S    
C38   C59   S    
Cr8   O44   S    
C46   H49   S    
C1    C13   S    
Cr5   O15   S    
C26   C29   D    
Cr9   O10   S    
C63   O53   A    
C48   H51   S    
C27   C28   S    
C73   C77   A    
Cr10  O54   S    
C22   C28   D    
C42   O25   A    
C54   O12   A    
C37   C46   D    
C26   H42   S    
Cr12  O27   S    
Cr6   O11   S    
C73   C83   A    
C66   O5    A    
C3    C4    A    
Cr7   O34   S    
C1    O14   A    
C39   C48   D    
C71   C81   A    
