data_mof_unit_34748.cif
_audit_creation_date              2012-12-10T16:48:45-0500
_audit_creation_method            fapswitch 2.2
_symmetry_space_group_name_H-M    P1
_symmetry_Int_Tables_number       1
_space_group_crystal_system       triclinic
_cell_length_a                    17.229202
_cell_length_b                    8.683949
_cell_length_c                    7.438748
_cell_angle_alpha                 103.063706
_cell_angle_beta                  89.267046
_cell_angle_gamma                 92.889925
_cell_volume                      1082.78273766

loop_
_atom_site_label
_atom_site_type_symbol
_atom_type_description
_atom_site_fract_x
_atom_site_fract_y
_atom_site_fract_z
_atom_type_partial_charge
C1    C     C_R   0.497628 0.199750 0.453592 0.912350
C2    C     C_R   0.502371 0.800250 0.546408 0.912343
C3    C     C_2   0.496483 0.031795 0.427517 -0.293224
C4    C     C_2   0.503517 0.968205 0.572483 -0.293244
C5    C     C_R   0.351375 0.501883 0.527870 0.874840
C6    C     C_R   0.648625 0.498112 0.472129 0.874842
C7    C     C_R   0.267551 0.502094 0.550882 -0.152697
C8    C     C_R   0.732449 0.497858 0.449119 -0.152690
C9    C     C_R   0.220735 0.375934 0.448626 0.215176
C10   C     C_R   0.779277 0.623986 0.551390 0.215183
C11   C     C_R   0.140369 0.381423 0.460861 -0.150422
C12   C     C_R   0.859643 0.618434 0.539201 -0.150430
C13   C     C_R   0.106030 0.512412 0.573045 0.060263
C14   C     C_R   0.893966 0.487413 0.427048 0.060260
C15   C     C_R   0.152547 0.633522 0.682165 -0.158323
C16   C     C_R   0.847438 0.366336 0.317910 -0.158311
C17   C     C_R   0.233182 0.629805 0.671185 0.227175
C18   C     C_R   0.766803 0.370115 0.328844 0.227165
C19   C     C_2   0.021694 0.527099 0.575806 -0.168559
C20   C     C_2   0.978298 0.472678 0.424308 -0.168557
Cu1   Cu    Cu3+1 0.508700 0.517250 0.683000 1.045763
Cu2   Cu    Cu3+1 0.491300 0.482750 0.317000 1.045767
H1    H     H_    0.004498 0.410424 0.296625 0.157897
H2    H     H_    0.995493 0.589354 0.703486 0.157898
H3    H     H_    0.126158 0.734076 0.770585 0.175500
H4    H     H_    0.873815 0.265760 0.229510 0.175510
H5    H     H_    0.895025 0.716788 0.617453 0.169771
H6    H     H_    0.104997 0.283045 0.382620 0.169776
H7    H     H_    0.489856 0.960146 0.287854 0.194476
H8    H     H_    0.510144 0.039854 0.712146 0.194474
H9    H     H_    0.439202 0.379726 0.958850 0.244826
H10   H     H_    0.560798 0.620274 0.041150 0.244826
N1    N     N_2   0.478180 0.456750 0.041980 -0.199912
N2    N     N_2   0.521820 0.543250 0.958020 -0.199914
O1    O     O_R   0.505650 0.286040 0.618880 -0.597494
O2    O     O_R   0.494350 0.713960 0.381120 -0.597490
O3    O     O_R   0.490960 0.256910 0.309800 -0.555713
O4    O     O_R   0.509040 0.743090 0.690200 -0.555721
O5    O     O_R   0.394600 0.516230 0.672450 -0.572057
O6    O     O_R   0.605400 0.483770 0.327550 -0.572054
O7    O     O_R   0.379910 0.487100 0.363380 -0.551133
O8    O     O_R   0.620090 0.512900 0.636620 -0.551137
Br1   Br    Br    0.263659 0.191587 0.294027 -0.442995
Br2   Br    Br    0.736374 0.808372 0.705950 -0.443004
Br3   Br    Br    0.706602 0.192556 0.187326 -0.435506
Br4   Br    Br    0.293365 0.807401 0.812686 -0.435489

loop_
_geom_bond_atom_site_label_1
_geom_bond_atom_site_label_2
_ccdc_geom_bond_type
C2    C4    S    
H9    N1    S    
C15   C17   A    
Cu1   O1    S    
C14   C20   S    
C8    C18   A    
C11   C13   A    
C2    O4    A    
C19   C20   D    
Cu1   O5    S    
C20   H1    S    
C1    O3    A    
Cu2   O6    S    
C5    O5    A    
N1    N2    D    
Cu1   Cu2   S    
C9    C11   A    
C3    H7    S    
C10   C12   A    
C11   H6    S    
C8    C10   A    
C12   C14   A    
C19   H2    S    
C6    O6    A    
C13   C15   A    
C16   H4    S    
C14   C16   A    
C15   H3    S    
Cu2   O7    S    
C9    Br1   S    
C13   C19   S    
C12   H5    S    
C10   Br2   S    
Cu1   O8    S    
C18   Br3   S    
C7    C9    A    
Cu2   O2    S    
C17   Br4   S    
C1    O1    A    
C16   C18   A    
C6    O8    A    
C2    O2    A    
C5    C7    S    
Cu2   N1    S    
C5    O7    A    
C6    C8    S    
Cu1   N2    S    
C1    C3    S    
Cu2   O3    S    
C4    H8    S    
Cu1   O4    S    
C3    C4    D    
C7    C17   A    
H10   N2    S    
