data_mof_unit_42600.cif
_audit_creation_date              2012-12-11T19:09:50-0500
_audit_creation_method            fapswitch 2.2
_symmetry_space_group_name_H-M    P1
_symmetry_Int_Tables_number       1
_space_group_crystal_system       triclinic
_cell_length_a                    8.199506
_cell_length_b                    15.097094
_cell_length_c                    26.970558
_cell_angle_alpha                 98.397856
_cell_angle_beta                  92.760398
_cell_angle_gamma                 81.311709
_cell_volume                      3263.78915694

loop_
_atom_site_label
_atom_site_type_symbol
_atom_type_description
_atom_site_fract_x
_atom_site_fract_y
_atom_site_fract_z
_atom_type_partial_charge
Ba1   Ba    Ba6+2 0.860050 0.456430 0.522540 1.639086
Ba2   Ba    Ba6+2 0.329780 0.543490 0.477450 1.635255
C1    C     C_3   0.694090 0.136107 0.649651 -0.369508
C2    C     C_R   0.893999 0.586544 0.178537 0.571306
C3    C     C_2   0.750929 0.555613 0.273081 -0.083769
C4    C     C_3   0.196764 0.256742 0.654135 0.288053
C5    C     C_3   0.731289 0.587333 0.328344 -0.045122
C6    C     C_1   0.983957 0.484313 0.342564 0.034477
C7    C     C_2   0.025659 0.480411 0.294753 -0.107746
C8    C     C_2   0.900971 0.515231 0.256196 0.187848
C9    C     C_R   0.022615 0.507210 0.101500 -0.079774
C10   C     C_R   0.072355 0.431480 0.126500 -0.036185
C11   C     C_R   0.163101 0.354330 0.100094 -0.060540
C12   C     C_3   0.690125 0.227076 0.631421 0.342438
C13   C     C_R   0.932146 0.584848 0.127857 -0.023411
C14   C     C_2   0.843737 0.530129 0.360613 -0.292278
C15   C     C_2   0.356248 0.480925 0.640565 -0.283786
C16   C     C_3   0.176059 0.236992 0.706898 -0.344309
C17   C     C_R   0.203788 0.427367 0.973503 0.019748
C18   C     C_R   0.043376 0.579365 0.973682 0.020543
C19   C     C_R   0.143826 0.502795 0.948260 0.050117
C20   C     C_R   0.308034 0.354351 0.946845 -0.099904
C21   C     C_R   0.349002 0.354698 0.897275 -0.060683
C22   C     C_R   0.288027 0.427671 0.871645 -0.030775
C23   C     C_3   0.485996 0.687312 0.631486 0.301385
C24   C     C_R   0.184927 0.501795 0.897035 -0.077690
C25   C     C_R   0.123501 0.575172 0.871267 -0.033486
C26   C     C_R   0.165653 0.573680 0.820809 0.590012
C27   C     C_R   0.328463 0.427894 0.821136 0.578674
C28   C     C_3   0.219227 0.264784 0.411687 0.314429
C29   C     C_2   0.465537 0.484064 0.728774 -0.072738
C30   C     C_3   0.506374 0.488402 0.674834 -0.051517
C31   C     C_1   0.210594 0.519311 0.657246 0.038024
C32   C     C_2   0.172399 0.519046 0.704600 -0.105111
C33   C     C_2   0.306282 0.499606 0.743514 0.199808
C34   C     C_3   0.459850 0.722651 0.686732 -0.373216
C35   C     C_R   0.158850 0.427594 0.024269 0.019904
C36   C     C_R   0.063154 0.505505 0.050147 0.049848
C37   C     C_R   0.007630 0.581943 0.025292 0.020313
C38   C     C_R   0.205659 0.352338 0.050374 -0.099199
C39   C     C_R   0.882323 0.660411 0.103277 -0.059737
C40   C     C_3   0.239100 0.162628 0.396479 -0.384932
C41   C     C_R   0.981285 0.650960 0.946227 -0.100352
C42   C     C_R   0.020809 0.648850 0.896417 -0.061983
C43   C     C_R   0.918908 0.659166 0.053377 -0.102711
C44   C     C_R   0.346249 0.175075 0.531622 -0.002467
C45   C     C_3   0.028401 0.732350 0.343132 0.337338
C46   C     C_R   0.575250 0.211233 0.489714 0.054499
C47   C     C_R   0.758593 0.771347 0.482959 -0.317037
C48   C     C_R   0.845459 0.828924 0.462766 0.004715
C49   C     C_R   0.781243 0.921052 0.463834 0.117051
C50   C     C_R   0.636539 0.958743 0.492442 0.010984
C51   C     C_R   0.554410 0.897686 0.514810 -0.047392
C52   C     C_3   0.977962 0.733598 0.585171 0.307082
C53   C     C_R   0.570221 0.053753 0.500797 0.012301
C54   C     C_R   0.417550 0.082784 0.525995 -0.024695
C55   C     C_R   0.341147 0.020028 0.545980 -0.105595
C56   C     C_3   0.039508 0.754110 0.290230 -0.325876
C57   C     C_R   0.410712 0.930488 0.541943 -0.043540
C58   C     C_R   0.649956 0.121950 0.485968 -0.143599
C59   C     C_R   0.426916 0.238193 0.513650 -0.287585
C60   C     C_R   0.616924 0.804386 0.509680 0.020616
C61   C     C_3   0.956291 0.836017 0.599185 -0.379978
C62   C     C_3   0.694092 0.341384 0.371476 0.299997
C63   C     C_3   0.698494 0.318165 0.314721 -0.362773
C64   C     C_3   0.786425 0.979209 0.384806 -0.233651
C65   C     C_3   0.477290 0.784790 0.367840 0.376679
C66   C     C_3   0.419036 0.876414 0.350855 -0.365423
C67   C     C_R   0.029391 0.434090 0.177236 0.598406
H1    H     H_    0.806341 0.225735 0.611702 0.109523
H2    H     H_    0.814796 0.359765 0.385689 0.012921
H3    H     H_    0.595853 0.399802 0.380938 0.076076
H4    H     H_    0.705404 0.081265 0.617168 0.075877
H5    H     H_    0.800600 0.262330 0.304039 0.133160
H6    H     H_    0.718193 0.378077 0.297691 0.070849
H7    H     H_    0.579520 0.296920 0.299900 0.132932
H8    H     H_    0.583501 0.236573 0.604932 -0.030435
H9    H     H_    0.578622 0.134879 0.669278 0.123815
H10   H     H_    0.367265 0.668960 0.614739 0.031014
H11   H     H_    0.581883 0.626539 0.627999 0.035859
H12   H     H_    0.319516 0.142602 0.363528 0.125655
H13   H     H_    0.370525 0.786213 0.690690 0.137592
H14   H     H_    0.409503 0.672339 0.705428 0.076312
H15   H     H_    0.578880 0.736277 0.705489 0.126639
H16   H     H_    0.801404 0.123936 0.675770 0.134950
H17   H     H_    0.226686 0.288457 0.734398 0.132557
H18   H     H_    0.109458 0.667270 0.346290 0.087628
H19   H     H_    0.898358 0.725790 0.349416 -0.053718
H20   H     H_    0.156629 0.779711 0.285395 0.148535
H21   H     H_    0.037200 0.691611 0.263305 0.121977
H22   H     H_    0.934488 0.805933 0.281894 0.114155
H23   H     H_    0.296006 0.127349 0.427644 0.059968
H24   H     H_    0.614516 0.775223 0.370126 -0.079680
H25   H     H_    0.429070 0.786061 0.405749 0.088172
H26   H     H_    0.483061 0.881950 0.316323 0.108131
H27   H     H_    0.446336 0.930874 0.380963 0.061862
H28   H     H_    0.135726 0.326888 0.651840 0.079411
H29   H     H_    0.284118 0.886215 0.343213 0.157315
H30   H     H_    0.151066 0.453980 0.283692 0.136214
H31   H     H_    0.202468 0.294546 0.117928 0.121580
H32   H     H_    0.565844 0.474195 0.756103 0.105954
H33   H     H_    0.429521 0.296832 0.878963 0.122218
H34   H     H_    0.116509 0.141019 0.386756 0.126353
H35   H     H_    0.362755 0.295802 0.963406 0.069294
H36   H     H_    0.273885 0.289680 0.033257 0.069198
H37   H     H_    0.652720 0.578064 0.247355 0.123554
H38   H     H_    0.814004 0.721718 0.122681 0.122994
H39   H     H_    0.899078 0.709811 0.961799 0.069289
H40   H     H_    0.330468 0.251462 0.647223 -0.011372
H41   H     H_    0.969722 0.705864 0.877532 0.122253
H42   H     H_    0.044471 0.533091 0.715462 0.128744
H43   H     H_    0.877612 0.721136 0.038299 0.069209
H44   H     H_    0.824143 0.543129 0.400683 0.083438
H45   H     H_    0.857926 0.712238 0.573249 0.007332
H46   H     H_    0.368061 0.444953 0.602672 0.075554
H47   H     H_    0.371414 0.308400 0.516647 0.070584
H48   H     H_    0.227618 0.039372 0.566101 0.108911
H49   H     H_    0.772113 0.110598 0.472302 0.151523
H50   H     H_    0.807660 0.700214 0.480601 0.069526
H51   H     H_    0.043060 0.239601 0.714151 0.139398
H52   H     H_    0.346310 0.887185 0.559914 0.105302
H53   H     H_    0.242626 0.168867 0.711587 0.120241
H54   H     H_    0.341920 0.285258 0.420707 0.006833
H55   H     H_    0.140226 0.282875 0.445001 0.064132
H56   H     H_    0.064421 0.714371 0.553799 0.077076
H57   H     H_    0.986335 0.962070 0.435121 0.223840
H58   H     H_    0.859409 0.017951 0.364439 0.117219
H59   H     H_    0.658961 0.016233 0.387754 0.110729
H60   H     H_    0.785253 0.910872 0.363109 0.116480
H61   H     H_    0.863138 0.857666 0.628759 0.133862
H62   H     H_    0.914526 0.869847 0.566074 0.055942
H63   H     H_    0.075710 0.857594 0.613309 0.117959
N1    N     N_R   0.941811 0.511507 0.203243 -0.421357
N2    N     N_R   0.266163 0.500172 0.795913 -0.424418
N3    N     N_2   0.859229 0.972398 0.434251 -0.441507
O1    O     O_2   0.906490 0.548660 0.619040 -0.468232
O2    O     O_2   0.186405 0.823320 0.470448 -0.495383
O3    O     O_3   0.080566 0.802050 0.377523 -0.605877
O4    O     O_3   0.138490 0.548590 0.558860 -0.492753
O5    O     O_3   0.572560 0.389970 0.472910 -0.490497
O6    O     O_2   0.345680 0.723560 0.528460 -0.470320
O7    O     O_3   0.538327 0.755185 0.608523 -0.643999
O8    O     O_2   0.406891 0.541418 0.323893 -0.497223
O9    O     O_3   0.417922 0.715964 0.333935 -0.593405
O10   O     O_2   0.068184 0.366806 0.197846 -0.597427
O11   O     O_2   0.418476 0.363263 0.799581 -0.599169
O12   O     O_3   0.662468 0.265681 0.391770 -0.635497
O13   O     O_2   0.818983 0.655935 0.200759 -0.620370
O14   O     O_2   0.114709 0.638732 0.799315 -0.598881
O15   O     O_3   0.686290 0.382320 0.585720 -0.488056
O16   O     O_2   0.849708 0.425288 0.670738 -0.497912
O17   O     O_3   0.038249 0.693839 0.627305 -0.626451
O18   O     O_3   0.673698 0.296446 0.672469 -0.591153
O19   O     O_2   0.844020 0.276410 0.471510 -0.464219
O20   O     O_3   0.101490 0.335510 0.560360 -0.486969
O21   O     O_2   0.004932 0.176070 0.528235 -0.493393
O22   O     O_3   0.123636 0.194025 0.619945 -0.611262
O23   O     O_2   0.283210 0.451320 0.380930 -0.462126
O24   O     O_3   0.051220 0.451340 0.441130 -0.497267
O25   O     O_3   0.503420 0.617610 0.414270 -0.478858
O26   O     O_3   0.147987 0.306353 0.371326 -0.624610
O27   O     O_3   0.617160 0.609950 0.527080 -0.474195
O28   O     O_3   0.088220 0.664410 0.439630 -0.489813
P1    P     P_3+3 0.071960 0.575810 0.612130 0.995247
P2    P     P_3+3 0.664360 0.290070 0.457280 0.979317
P3    P     P_3+3 0.143765 0.218701 0.559369 0.927410
P4    P     P_3+3 0.117760 0.424110 0.387870 0.991093
P5    P     P_3+3 0.050300 0.780486 0.438041 0.936466
P6    P     P_3+3 0.679814 0.400281 0.651148 0.972567
P7    P     P_3+3 0.532832 0.724073 0.543467 0.941372
P8    P     P_3+3 0.514369 0.611820 0.349447 0.947850

loop_
_geom_bond_atom_site_label_1
_geom_bond_atom_site_label_2
_ccdc_geom_bond_type
C57   H52   S    
C53   C54   A    
C5    P8    S    
C4    O22   S    
C1    H16   S    
C23   H11   S    
C67   O10   D    
C23   O7    S    
C8    N1    S    
C30   P6    S    
C14   H44   S    
Ba2   O27   S    
C51   C57   A    
C43   H43   S    
C2    C13   A    
C64   H58   S    
O9    P8    S    
C24   C25   A    
C66   H27   S    
C63   H7    S    
C26   N2    Am   
Ba2   O4    S    
C29   H32   S    
C55   H48   S    
O4    P1    S    
C17   C19   A    
C22   C24   A    
C32   C33   S    
C35   C38   A    
C36   C37   A    
C55   C57   A    
O15   P6    S    
C52   C61   S    
O20   P3    S    
C2    O13   D    
C20   H35   S    
C54   C55   A    
O3    P5    S    
Ba1   Ba2   S    
C62   H2    S    
Ba1   O20   S    
C22   C27   A    
C11   C38   A    
O12   P2    S    
C49   N3    S    
C25   C42   A    
C46   P2    S    
Ba1   P1    S    
C34   H13   S    
Ba2   O24   S    
C65   H25   S    
C21   C22   A    
O19   P2    D    
C58   H49   S    
C61   H62   S    
Ba1   O1    S    
C17   C35   A    
C56   H22   S    
Ba1   O4    S    
C50   C53   A    
O7    P7    S    
C64   H60   S    
C27   N2    Am   
C26   O14   D    
C6    C14   D    
C53   C58   A    
C40   H34   S    
C32   H42   S    
C12   H1    S    
C40   H12   S    
C15   C31   D    
O24   P4    S    
C4    C16   S    
C65   O9    S    
C33   N2    S    
C19   C24   A    
O23   P4    D    
C46   C58   A    
C3    H37   S    
C60   P7    S    
C52   H56   S    
C66   H26   S    
C44   C59   A    
C65   C66   S    
C61   H61   S    
C4    H28   S    
Ba1   O24   S    
C17   C20   A    
C13   C39   A    
C27   O11   D    
C12   H8    S    
C18   C37   A    
C6    C7    D    
C52   O17   S    
C63   H5    S    
C49   C50   A    
C45   H18   S    
O22   P3    S    
C9    C36   A    
C41   C42   A    
C35   C36   A    
C6    P4    S    
C51   C60   A    
C29   C30   S    
O27   P7    S    
O21   P3    D    
Ba2   O23   S    
C31   P1    S    
C59   H47   S    
C48   C49   A    
Ba1   O15   S    
C16   H17   S    
C61   H63   S    
C18   C19   A    
C28   H54   S    
C56   H21   S    
O26   P4    S    
C1    C12   S    
C16   H53   S    
C5    C14   S    
C10   C67   A    
C28   H55   S    
H57   N3    S    
C9    C13   A    
C62   O12   S    
C48   P5    S    
C4    H40   S    
C29   C33   D    
C2    N1    Am   
C44   C54   A    
C16   H51   S    
C18   C41   A    
C50   C51   A    
C15   H46   S    
C3    C5    S    
O1    P1    D    
O5    P2    S    
C15   C30   S    
C67   N1    Am   
C47   C60   A    
C44   P3    S    
Ba1   P2    S    
C23   H10   S    
C64   H59   S    
O17   P1    S    
C63   H6    S    
Ba2   O28   S    
Ba1   O27   S    
C9    C10   A    
C7    H30   S    
O16   P6    D    
C37   C43   A    
Ba2   O5    S    
C62   C63   S    
C11   H31   S    
O28   P5    S    
O8    P8    D    
C3    C8    D    
C12   O18   S    
C45   H19   S    
C45   C56   S    
C46   C59   A    
C47   H50   S    
C34   H15   S    
C52   H45   S    
C45   O3    S    
O6    P7    D    
O25   P8    S    
C31   C32   D    
C7    C8    S    
C40   H23   S    
C41   H39   S    
C62   H3    S    
Ba1   O19   S    
C1    H4    S    
C56   H20   S    
C66   H29   S    
C23   C34   S    
C64   N3    S    
C21   H33   S    
C39   H38   S    
C10   C11   A    
Ba2   O25   S    
C47   C48   A    
O18   P6    S    
C25   C26   A    
C65   H24   S    
Ba2   O6    S    
C39   C43   A    
C20   C21   A    
C28   C40   S    
Ba1   O5    S    
C34   H14   S    
C28   O26   S    
C1    H9    S    
Ba2   P4    S    
O2    P5    D    
C38   H36   S    
C42   H41   S    
