data_mof_unit_56169.cif
_audit_creation_date              2013-03-05T16:47:41-0500
_audit_creation_method            fapswitch 2.2
_symmetry_space_group_name_H-M    P1
_symmetry_Int_Tables_number       1
_space_group_crystal_system       triclinic
_cell_length_a                    8.926116
_cell_length_b                    8.125865
_cell_length_c                    10.556784
_cell_angle_alpha                 89.707386
_cell_angle_beta                  89.903741
_cell_angle_gamma                 90.055431
_cell_volume                      765.69759226

loop_
_atom_site_label
_atom_site_type_symbol
_atom_site_description
_atom_site_fract_x
_atom_site_fract_y
_atom_site_fract_z
_atom_type_partial_charge
O1    O     O_R   0.285350 0.636850 0.500000 -0.599736
O2    O     O_R   0.714650 0.363150 0.500000 -0.599743
O3    O     O_R   0.714650 0.636850 0.500000 -0.622931
O4    O     O_R   0.285350 0.363150 0.500000 -0.622932
C1    C     C_R   0.218084 0.499944 0.499628 0.966854
C2    C     C_R   0.781916 0.500056 0.500373 0.966865
O5    O     O_R   0.499970 0.636850 0.313950 -0.628775
O6    O     O_R   0.500030 0.363150 0.686050 -0.628778
O7    O     O_R   0.500030 0.636850 0.686050 -0.606640
O8    O     O_R   0.499970 0.363150 0.313950 -0.606652
C3    C     C_R   0.501243 0.500491 0.256951 0.960990
C4    C     C_R   0.498756 0.499508 0.743049 0.960981
Zn1   Zn    Zn3+2 0.500000 0.682780 0.500000 1.045884
Zn2   Zn    Zn3+2 0.500000 0.317220 0.500000 1.045877
C5    C     C_3   0.483264 0.657031 0.040579 -0.244334
C6    C     C_3   0.516733 0.342969 0.959422 -0.244342
C7    C     C_3   0.613570 0.594736 0.955432 -0.255060
C8    C     C_3   0.386427 0.405264 0.044568 -0.255070
C9    C     C_3   0.371086 0.559135 0.960918 0.368913
C10   C     C_3   0.628911 0.440865 0.039081 0.368916
H1    H     H_    0.467357 0.784338 0.075897 0.194053
H2    H     H_    0.532640 0.215662 0.924103 0.194059
H3    H     H_    0.707234 0.669299 0.916138 0.205473
H4    H     H_    0.292764 0.330701 0.083862 0.205477
C11   C     C_3   0.498159 0.498523 0.877228 -0.142343
C12   C     C_3   0.501839 0.501478 0.122772 -0.142345
C13   C     C_1   0.065222 0.499918 0.499853 -0.103691
C14   C     C_1   0.934778 0.500082 0.500148 -0.103684
N1    N     N_1   0.500000 0.073640 0.500000 -0.017405
N2    N     N_1   0.500000 0.926360 0.500000 -0.017404
N3    N     N_R   0.227041 0.623757 0.918924 0.222256
O9    O     O_R   0.128945 0.670944 0.002356 -0.343424
O10   O     O_R   0.193577 0.630167 0.799208 -0.400070
N4    N     N_R   0.772956 0.376244 0.081076 0.222268
O11   O     O_R   0.871026 0.328990 0.997648 -0.343435
O12   O     O_R   0.806448 0.369909 0.200791 -0.400074

loop_
_geom_bond_atom_site_label_1
_geom_bond_atom_site_label_2
_geom_bond_distance
_ccdc_geom_bond_type
C5    C9    1.533220 S    
N3    O10   1.299926 A    
N1    N2    1.196777 T    
C6    C11   1.538764 S    
N3    O9    1.300380 A    
O3    Zn1   1.952357 S    
O5    Zn1   2.001108 S    
C4    C11   1.416482 S    
O6    C4    1.263624 A    
O3    C2    1.263869 A    
C7    C11   1.536877 S    
C9    N3    1.458180 S    
O2    C2    1.263680 A    
O5    C3    1.263624 A    
C7    H3    1.110606 S    
C10   C12   1.520487 S    
O1    C1    1.263681 A    
C6    C10   1.533220 S    
N4    O11   1.300372 A    
N4    O12   1.299943 A    
O4    Zn2   1.952357 S    
O2    Zn2   1.951648 S    
O7    C4    1.265223 A    
C8    H4    1.110606 S    
O1    Zn1   1.951648 S    
O8    C3    1.265225 A    
C9    C11   1.520488 S    
C10   N4    1.458178 S    
Zn1   N2    1.979298 S    
C5    H1    1.110573 S    
C7    C10   1.533412 S    
C6    C8    1.555422 S    
C8    C9    1.533415 S    
O8    Zn2   1.997363 S    
C13   C14   1.164358 T    
C5    C7    1.555425 S    
O7    Zn1   1.997363 S    
C5    C12   1.538762 S    
O6    Zn2   2.001108 S    
Zn2   N1    1.979298 S    
C3    C12   1.416480 S    
C1    C13   1.364465 S    
C2    C14   1.364465 S    
C6    H2    1.110573 S    
O4    C1    1.263869 A    
C8    C12   1.536879 S    
