data_mof_unit_66693.cif
_audit_creation_date              2012-12-10T17:16:43-0500
_audit_creation_method            fapswitch 2.2
_symmetry_space_group_name_H-M    P1
_symmetry_Int_Tables_number       1
_space_group_crystal_system       triclinic
_cell_length_a                    10.268771
_cell_length_b                    10.626976
_cell_length_c                    11.023386
_cell_angle_alpha                 91.270208
_cell_angle_beta                  96.198064
_cell_angle_gamma                 74.076719
_cell_volume                      1149.9842227

loop_
_atom_site_label
_atom_site_type_symbol
_atom_type_description
_atom_site_fract_x
_atom_site_fract_y
_atom_site_fract_z
_atom_type_partial_charge
Br1   Br    Br    0.400492 0.195945 0.964940 -0.323716
Br2   Br    Br    0.578113 0.846042 0.026861 -0.325106
Br3   Br    Br    0.357518 0.821992 0.217956 -0.280031
Br4   Br    Br    0.650275 0.188436 0.786323 -0.334531
Br5   Br    Br    0.754700 0.544839 0.929206 -0.239792
Br6   Br    Br    0.207033 0.552516 0.095106 -0.230685
Br7   Br    Br    0.946025 0.429543 0.696493 -0.255851
Br8   Br    Br    0.154676 0.354698 0.366788 -0.307697
C1    C     C_R   0.442885 0.502396 0.268150 0.934800
C2    C     C_R   0.489977 0.745043 0.499441 0.872016
C3    C     C_R   0.689520 0.040183 0.343881 -0.121013
C4    C     C_R   0.318382 0.972201 0.659439 -0.241728
C5    C     C_R   0.693927 0.976693 0.228307 -0.263418
C6    C     C_R   0.308745 0.042037 0.771841 -0.159261
C7    C     C_R   0.595250 0.910115 0.190574 0.291297
C8    C     C_R   0.407280 0.107225 0.811151 0.288147
C9    C     C_R   0.511406 0.885782 0.274224 0.236348
C10   C     C_R   0.499425 0.120902 0.731218 0.227187
C11   C     C_R   0.522470 0.932087 0.394088 -0.041494
C12   C     C_R   0.555279 0.502605 0.732461 0.864046
C13   C     C_R   0.494182 0.066853 0.614259 -0.034684
C14   C     C_R   0.587880 0.030296 0.419005 -0.004799
C15   C     C_R   0.428441 0.969266 0.590368 -0.006089
C16   C     C_R   0.462554 0.888185 0.487698 -0.043047
C17   C     C_R   0.547538 0.112745 0.518607 -0.048029
C18   C     C_2   0.799406 0.100432 0.393154 0.962072
C19   C     C_2   0.195409 0.942341 0.597461 1.005770
C20   C     C_2   0.798161 0.979790 0.144871 1.073228
C21   C     C_2   0.190716 0.060482 0.843612 1.031560
C22   C     C_2   0.349644 0.623375 0.894040 0.982929
C23   C     C_2   0.402856 0.504449 0.137789 0.108856
C24   C     C_2   0.616898 0.346484 0.093543 1.094042
C25   C     C_2   0.844748 0.494517 0.329109 1.089341
C26   C     C_2   0.068451 0.677892 0.559072 1.034033
C27   C     C_2   0.585025 0.511486 0.865407 0.146895
C28   C     C_2   0.499829 0.465798 0.059282 -0.183271
C29   C     C_2   0.481595 0.528619 0.936351 -0.109042
C30   C     C_2   0.086554 0.473012 0.495583 0.207968
C31   C     C_2   0.945126 0.463794 0.527950 0.207263
C32   C     C_R   0.511601 0.255379 0.502262 0.921900
H1    H     H_    0.913791 0.140892 0.541672 0.390310
H2    H     H_    0.148162 0.859552 0.743293 0.325303
H3    H     H_    0.957471 0.891150 0.264701 0.346906
H4    H     H_    0.989112 0.137205 0.851235 0.406948
H5    H     H_    0.153626 0.650873 0.828883 0.384503
H6    H     H_    0.807708 0.237718 0.071256 0.410275
H7    H     H_    0.842657 0.645987 0.220940 0.370968
H8    H     H_    0.965389 0.841872 0.467634 0.367673
N1    N     N_2   0.157300 0.551390 0.551120 -0.170856
N2    N     N_2   0.842700 0.448610 0.448880 -0.196301
O1    O     O_R   0.568940 0.489660 0.307530 -0.642375
O2    O     O_R   0.841654 0.093378 0.518421 -0.720561
O3    O     O_2   0.166485 0.963000 0.487946 -0.504840
O4    O     O_R   0.104553 0.903226 0.662896 -0.730807
O5    O     O_2   0.761769 0.020815 0.040766 -0.479560
O6    O     O_R   0.937500 0.932885 0.181058 -0.666322
O7    O     O_2   0.207386 0.015743 0.947141 -0.458304
O8    O     O_R   0.061008 0.130823 0.793420 -0.725597
O9    O     O_2   0.336571 0.740466 0.905935 -0.576279
O10   O     O_R   0.241322 0.578213 0.840613 -0.713869
O11   O     O_2   0.607945 0.273254 0.174243 -0.621440
O12   O     O_R   0.431060 0.510340 0.692470 -0.628818
O13   O     O_R   0.732597 0.312415 0.031375 -0.681560
O14   O     O_2   0.847367 0.420097 0.243024 -0.533915
O15   O     O_R   0.841303 0.625175 0.310026 -0.822910
O16   O     O_2   0.996670 0.704839 0.642800 -0.568227
O17   O     O_R   0.045829 0.762886 0.459902 -0.739892
O18   O     O_R   0.348880 0.522640 0.340350 -0.541205
O19   O     O_R   0.651120 0.477360 0.659650 -0.531679
O20   O     O_R   0.610030 0.300280 0.483580 -0.594654
O21   O     O_R   0.389970 0.699720 0.516420 -0.617968
O22   O     O_R   0.389970 0.333270 0.516400 -0.579149
O23   O     O_R   0.610030 0.666730 0.483600 -0.596678
O24   O     O_2   0.852720 0.156271 0.325545 -0.549720
Zn1   Zn    Zn3+2 0.646940 0.477980 0.478080 1.085500
Zn2   Zn    Zn3+2 0.353060 0.522020 0.521920 1.078687

loop_
_geom_bond_atom_site_label_1
_geom_bond_atom_site_label_2
_ccdc_geom_bond_type
C26   O17   S    
C15   C16   A    
C19   O3    D    
C5    C20   S    
O19   Zn1   S    
C11   C14   A    
C18   O2    S    
O18   Zn2   S    
C10   C13   A    
O23   Zn1   S    
C3    C14   A    
C1    O1    A    
H1    O2    S    
C4    C6    A    
H6    O13   S    
O22   Zn2   S    
Br4   C10   S    
C2    O21   A    
C26   O16   D    
C5    C7    A    
C11   C16   A    
C20   O6    S    
C19   O4    S    
C25   O15   S    
C17   C32   S    
Br1   C8    S    
N2    Zn1   S    
H2    O4    S    
Br2   C7    S    
C3    C5    A    
C4    C15   A    
O12   Zn2   S    
C30   C31   S    
C32   O20   A    
Br8   C30   S    
C25   O14   D    
C24   C28   S    
N1    Zn2   S    
C28   C29   S    
C27   C29   D    
C20   O5    D    
O1    Zn1   S    
C24   O11   D    
Br3   C9    S    
C13   C15   A    
H8    O17   S    
C12   O12   A    
O21   Zn2   S    
C2    O23   A    
C6    C8    A    
C12   O19   A    
C1    O18   A    
C1    C23   S    
C6    C21   S    
Br5   C27   S    
H3    O6    S    
C31   N2    D    
C21   O8    S    
C22   C29   S    
C8    C10   A    
C13   C17   A    
H4    O8    S    
O20   Zn1   S    
C30   N1    D    
C22   O9    D    
Br7   C31   S    
C23   C28   D    
C9    C11   A    
H5    O10   S    
Br6   C23   S    
C32   O22   A    
C3    C18   S    
C18   O24   D    
C25   N2    S    
C7    C9    A    
C12   C27   S    
H7    O15   S    
C2    C16   S    
C24   O13   S    
C21   O7    D    
C4    C19   S    
C26   N1    S    
C14   C17   A    
C22   O10   S    
