data_mof_unit_47326.cif
_audit_creation_date              2012-12-10T17:42:39-0500
_audit_creation_method            fapswitch 2.2
_symmetry_space_group_name_H-M    P1
_symmetry_Int_Tables_number       1
_space_group_crystal_system       triclinic
_cell_length_a                    9.946863
_cell_length_b                    10.698954
_cell_length_c                    13.114338
_cell_angle_alpha                 91.57292
_cell_angle_beta                  69.684458
_cell_angle_gamma                 88.288825
_cell_volume                      1307.17646783

loop_
_atom_site_label
_atom_site_type_symbol
_atom_type_description
_atom_site_fract_x
_atom_site_fract_y
_atom_site_fract_z
_atom_type_partial_charge
C1    C     C_R   0.499687 0.741057 0.494874 0.898916
C2    C     C_R   0.433930 0.476002 0.983703 0.082578
C3    C     C_R   0.464501 0.440950 0.873510 0.082067
C4    C     C_R   0.544982 0.461948 0.027227 0.069660
C5    C     C_R   0.675536 0.395659 0.966834 0.171912
C6    C     C_R   0.694850 0.345426 0.863468 -0.242975
C7    C     C_R   0.590309 0.366950 0.817534 -0.191822
C8    C     C_R   0.530224 0.513723 0.129028 -0.252811
C9    C     C_R   0.759074 0.419936 0.118922 -0.220011
C10   C     C_R   0.369191 0.482726 0.821820 -0.114369
C11   C     C_R   0.237674 0.907339 0.510923 -0.279764
C12   C     C_R   0.420383 0.493227 0.703812 0.851264
C13   C     C_R   0.129830 0.975146 0.487042 0.026399
C14   C     C_R   0.165973 0.080961 0.423527 0.185377
C15   C     C_R   0.300537 0.129682 0.404249 -0.149300
C16   C     C_R   0.400465 0.070048 0.442835 0.071161
C17   C     C_R   0.380119 0.947600 0.476454 0.074917
C18   C     C_R   0.504936 0.873749 0.470324 -0.182520
C19   C     C_R   0.641156 0.927365 0.424978 -0.056764
C20   C     C_R   0.646621 0.057272 0.432551 -0.265817
C21   C     C_R   0.520908 0.129047 0.450636 -0.151450
C22   C     C_R   0.784269 0.644108 0.660205 -0.081011
C23   C     C_R   0.508895 0.261249 0.482838 0.876896
C24   C     C_R   0.814401 0.706589 0.743693 -0.163762
C25   C     C_R   0.952656 0.701999 0.745629 -0.199788
C26   C     C_R   0.061327 0.635756 0.663598 -0.192149
C27   C     C_R   0.032858 0.564371 0.582278 0.202297
C28   C     C_R   0.888827 0.566271 0.581473 0.226389
C29   C     C_R   0.967844 0.443955 0.418195 -0.125028
C30   C     C_R   0.110877 0.445094 0.417749 -0.090952
C31   C     C_R   0.580115 0.499501 0.295824 0.907929
C32   C     C_R   0.783273 0.377947 0.012164 -0.190020
C33   C     C_R   0.629700 0.484346 0.178167 -0.040324
C34   C     C_R   0.231524 0.530807 0.884247 -0.204879
C35   C     C_R   0.192494 0.546467 0.996362 -0.139459
C36   C     C_R   0.293408 0.522912 0.045827 -0.192437
H1    H     H_    0.837360 0.396780 0.156556 0.150066
H2    H     H_    0.205759 0.827708 0.559872 0.181069
H3    H     H_    0.328527 0.213300 0.358082 0.149531
H4    H     H_    0.747712 0.102024 0.416289 0.202707
H5    H     H_    0.946336 0.398168 0.351237 0.136321
H6    H     H_    0.682039 0.667740 0.654991 0.184341
H7    H     H_    0.731881 0.764793 0.803497 0.147021
H8    H     H_    0.977674 0.756171 0.807195 0.149898
H9    H     H_    0.167673 0.650289 0.661284 0.188544
H10   H     H_    0.791462 0.290628 0.817543 0.163205
H11   H     H_    0.196902 0.402127 0.349621 0.133995
H12   H     H_    0.882914 0.326834 0.966974 0.145012
H13   H     H_    0.438092 0.573207 0.174385 0.160260
H14   H     H_    0.155631 0.559891 0.846230 0.157278
H15   H     H_    0.257417 0.538909 0.132935 0.134972
H16   H     H_    0.085598 0.582282 0.044599 0.148401
H17   H     H_    0.608400 0.323605 0.738132 0.188621
N1    N     N_R   0.856860 0.501200 0.500990 -0.118765
N2    N     N_R   0.142450 0.501280 0.501020 -0.118351
O1    O     O_R   0.385310 0.683220 0.500000 -0.629982
O2    O     O_R   0.614640 0.683250 0.500010 -0.601941
O3    O     O_R   0.328400 0.499950 0.653610 -0.628403
O4    O     O_R   0.557730 0.499970 0.653620 -0.641179
O5    O     O_R   0.385360 0.316750 0.499990 -0.613313
O6    O     O_R   0.614690 0.316780 0.500000 -0.615739
O7    O     O_R   0.442270 0.500030 0.346380 -0.632690
O8    O     O_R   0.671600 0.500050 0.346390 -0.596003
Zn1   Zn    Zn3+2 0.346880 0.499980 0.499990 0.938904
Zn2   Zn    Zn3+2 0.653120 0.500020 0.500010 0.953399
C37   C     C_2   0.982419 0.931398 0.525833 0.957417
O9    O     O_2   0.962101 0.821439 0.512257 -0.628014
O10   O     O_R   0.866739 0.015167 0.577888 -0.825884
H18   H     H_    0.771479 0.972878 0.602139 0.335363
C38   C     C_3   0.065590 0.140152 0.373937 -0.889314
H19   H     H_    0.033207 0.069082 0.325522 0.285239
H20   H     H_    0.969692 0.183158 0.438371 0.271325
H21   H     H_    0.118706 0.211875 0.315865 0.206467
C39   C     C_2   0.769907 0.854003 0.352259 0.988979
O11   O     O_2   0.889810 0.891577 0.335652 -0.653628
O12   O     O_R   0.753425 0.747462 0.294351 -0.800690
H22   H     H_    0.848510 0.707435 0.245474 0.335212

loop_
_geom_bond_atom_site_label_1
_geom_bond_atom_site_label_2
_ccdc_geom_bond_type
C37   O10   S    
O8    Zn2   S    
C16   C21   A    
C14   C38   S    
C35   C36   A    
C4    C8    A    
N1    Zn2   S    
C1    C18   S    
C39   O12   S    
C1    O1    A    
C34   C35   A    
C3    C7    A    
C5    C6    A    
C20   H4    S    
C27   N2    A    
C29   N1    A    
C15   C16   A    
C18   C19   A    
O7    Zn1   S    
C9    C32   A    
C12   O4    A    
C19   C20   A    
C16   C17   A    
O1    Zn1   S    
C38   H19   S    
C26   H9    S    
C5    C32   A    
C12   O3    A    
C37   O9    D    
C22   C28   A    
C13   C14   A    
C9    C33   A    
C32   H12   S    
C31   O7    A    
C25   H8    S    
C13   C37   S    
O3    Zn1   S    
C23   O5    A    
C34   H14   S    
C39   O11   D    
C31   O8    A    
C30   H11   S    
O12   H22   S    
C28   N1    A    
O10   H18   S    
C25   C26   A    
C11   H2    S    
C2    C4    A    
C29   C30   A    
C1    O2    A    
N2    Zn1   S    
C38   H21   S    
C9    H1    S    
C17   C18   A    
C26   C27   A    
C10   C34   A    
C24   C25   A    
C15   H3    S    
C36   H15   S    
C10   C12   S    
C21   C23   S    
C22   C24   A    
C7    H17   S    
C27   C28   A    
C2    C36   A    
C11   C17   A    
C31   C33   S    
C6    H10   S    
C29   H5    S    
C19   C39   S    
O2    Zn2   S    
C4    C5    A    
C6    C7    A    
C30   N2    A    
O5    Zn1   S    
C2    C3    A    
C3    C10   A    
O4    Zn2   S    
C11   C13   A    
C22   H6    S    
C8    C33   A    
O6    Zn2   S    
C23   O6    A    
C20   C21   A    
C35   H16   S    
C24   H7    S    
C14   C15   A    
C38   H20   S    
C8    H13   S    
