data_mof_unit_27275.cif
_audit_creation_date              2012-10-26T19:21:06-0400
_audit_creation_method            fapswitch 2.2
_symmetry_space_group_name_H-M    P1
_symmetry_Int_Tables_number       1
_space_group_crystal_system       triclinic
_cell_length_a                    9.803777
_cell_length_b                    11.048331
_cell_length_c                    13.437389
_cell_angle_alpha                 94.411135
_cell_angle_beta                  81.412839
_cell_angle_gamma                 111.575207
_cell_volume                      1337.94264822

loop_
_atom_site_label
_atom_site_type_symbol
_atom_type_description
_atom_site_fract_x
_atom_site_fract_y
_atom_site_fract_z
_atom_type_partial_charge
C1    C     C_R   0.556999 0.745792 0.507680 0.564053
C2    C     C_R   0.372803 0.474062 0.799763 -0.004446
C3    C     C_2   0.591470 0.886104 0.511150 0.240684
C4    C     C_R   0.420827 0.482622 0.690387 0.529208
C5    C     C_2   0.486018 0.931496 0.498767 -0.136858
C6    C     C_2   0.410469 0.114929 0.488977 -0.151628
C7    C     C_2   0.517425 0.070539 0.497072 -0.149799
C8    C     C_2   0.921952 0.489051 0.491947 -0.026725
C9    C     C_2   0.076858 0.508850 0.509536 -0.030295
C10   C     C_R   0.443157 0.254376 0.492440 0.555026
C11   C     C_R   0.577419 0.509839 0.309465 0.553048
C12   C     C_R   0.432455 0.478735 0.971293 0.034934
C13   C     C_R   0.750154 0.423332 0.058978 -0.134165
C14   C     C_R   0.617578 0.499159 0.200642 0.000081
C15   C     C_R   0.248910 0.505898 0.838288 -0.138429
C16   C     C_R   0.214157 0.520909 0.941254 -0.145118
C17   C     C_R   0.305813 0.510409 0.007144 -0.119003
C18   C     C_3   0.757174 0.992568 0.619453 -0.021789
C19   C     C_3   0.909746 0.095405 0.627011 -0.356280
C20   C     C_R   0.458036 0.449309 0.867058 0.026733
C21   C     C_R   0.533659 0.473875 0.035459 0.030595
C22   C     C_R   0.649775 0.428766 0.996563 0.050785
C23   C     C_R   0.662259 0.386320 0.896521 -0.145319
C24   C     C_R   0.566728 0.394560 0.833119 -0.124649
C25   C     C_R   0.523424 0.512750 0.137309 -0.128056
C26   C     C_R   0.733575 0.457585 0.160818 -0.134723
Cu1   Cu    Cu3+1 0.362000 0.479240 0.482530 0.923292
Cu2   Cu    Cu3+1 0.638000 0.520760 0.517470 0.933893
H1    H     H_    0.806913 0.445951 0.209045 0.122278
H2    H     H_    0.441106 0.552099 0.170365 0.119467
H3    H     H_    0.180925 0.523131 0.788518 0.122404
H4    H     H_    0.272243 0.524900 0.085783 0.103719
H5    H     H_    0.117971 0.545197 0.970122 0.115893
H6    H     H_    0.577383 0.354266 0.757788 0.145948
H7    H     H_    0.629145 0.137742 0.504081 0.195350
H8    H     H_    0.750978 0.901838 0.653822 0.146904
H9    H     H_    0.673451 0.029184 0.662983 0.117145
H10   H     H_    0.918489 0.187674 0.594181 0.162311
H11   H     H_    0.928193 0.114097 0.707212 0.094243
H12   H     H_    0.373990 0.865263 0.491088 0.116006
H13   H     H_    0.996468 0.061404 0.585677 0.167681
H14   H     H_    0.298645 0.048513 0.481127 0.107460
H15   H     H_    0.125405 0.576449 0.568742 0.142151
H16   H     H_    0.872468 0.419745 0.433922 0.147205
H17   H     H_    0.106252 0.385053 0.400091 0.207406
H18   H     H_    0.895238 0.617725 0.598007 0.201344
H19   H     H_    0.746381 0.346359 0.866993 0.102894
H20   H     H_    0.838678 0.388648 0.029618 0.104326
N1    N     N_2   0.845330 0.551960 0.543750 -0.353323
N2    N     N_2   0.154690 0.448120 0.456210 -0.352368
O1    O     O_R   0.426290 0.668220 0.490680 -0.525081
O2    O     O_R   0.659360 0.703290 0.520190 -0.464932
O3    O     O_R   0.326580 0.473880 0.629020 -0.502286
O4    O     O_R   0.559660 0.508940 0.658530 -0.502648
O5    O     O_R   0.340640 0.296710 0.479810 -0.483742
O6    O     O_R   0.573710 0.331780 0.509320 -0.506918
O7    O     O_R   0.440340 0.491060 0.341470 -0.492994
O8    O     O_R   0.673420 0.526120 0.370980 -0.492090
O9    O     O_3   0.735718 0.970093 0.517105 -0.560805

loop_
_geom_bond_atom_site_label_1
_geom_bond_atom_site_label_2
_ccdc_geom_bond_type
C12   C17   A    
C6    C10   S    
C13   H20   S    
C2    C4    S    
C23   C24   A    
Cu1   O3    S    
C15   H3    S    
C6    C7    D    
C10   O5    A    
C19   H10   S    
Cu2   O8    S    
C16   H5    S    
C11   O8    A    
C10   O6    A    
Cu2   N1    S    
C1    O1    A    
Cu1   N2    S    
C3    C5    D    
C12   C20   A    
Cu2   O6    S    
C19   H13   S    
C21   C22   A    
C14   C26   A    
C2    C15   A    
Cu2   O2    S    
H18   N1    S    
C19   H11   S    
H17   N2    S    
C8    N1    D    
C7    H7    S    
C11   C14   S    
C18   H9    S    
Cu1   O1    S    
C13   C22   A    
C14   C25   A    
C6    H14   S    
C4    O3    A    
C1    O2    A    
Cu1   O5    S    
C13   C26   A    
C9    H15   S    
C23   H19   S    
C2    C20   A    
C15   C16   A    
C20   C24   A    
C18   O9    S    
Cu1   Cu2   S    
C26   H1    S    
C18   C19   S    
Cu1   O7    S    
C5    H12   S    
C25   H2    S    
C5    C7    S    
C17   H4    S    
Cu2   O4    S    
C22   C23   A    
C16   C17   A    
C21   C25   A    
C4    O4    A    
C11   O7    A    
C18   H8    S    
C12   C21   A    
C24   H6    S    
C9    N2    D    
C8    H16   S    
C8    C9    S    
C1    C3    S    
C3    O9    S    
