data_mof_unit_38610.cif
_audit_creation_date              2012-12-10T17:47:40-0500
_audit_creation_method            fapswitch 2.2
_symmetry_space_group_name_H-M    P1
_symmetry_Int_Tables_number       1
_space_group_crystal_system       triclinic
_cell_length_a                    10.699174
_cell_length_b                    10.715611
_cell_length_c                    9.885642
_cell_angle_alpha                 86.930698
_cell_angle_beta                  90.968153
_cell_angle_gamma                 94.12673
_cell_volume                      1128.71405026

loop_
_atom_site_label
_atom_site_type_symbol
_atom_type_description
_atom_site_fract_x
_atom_site_fract_y
_atom_site_fract_z
_atom_type_partial_charge
C1    C     C_R   0.499384 0.259059 0.504721 0.921365
C2    C     C_3   0.880477 0.507072 0.499527 -0.068087
C3    C     C_3   0.942309 0.624918 0.571382 0.596808
C4    C     C_3   0.926443 0.511071 0.349654 -0.415479
C5    C     C_R   0.612956 0.103996 0.740826 0.381180
C6    C     C_R   0.714252 0.050929 0.810446 0.076447
C7    C     C_R   0.752959 0.937697 0.769030 -0.147675
C8    C     C_R   0.686557 0.876232 0.667152 -0.095454
C9    C     C_R   0.593237 0.935165 0.590090 0.051812
C10   C     C_R   0.568637 0.057865 0.615259 0.047760
C11   C     C_R   0.497478 0.124407 0.515285 -0.076274
C12   C     C_R   0.258394 0.503592 0.498008 0.859198
C13   C     C_R   0.437095 0.062775 0.408597 -0.161429
C14   C     C_R   0.444906 0.936537 0.399300 -0.178701
C15   C     C_R   0.520613 0.872946 0.490926 -0.069405
C16   C     C_R   0.321433 0.345040 0.146598 -0.247005
C17   C     C_R   0.230381 0.271411 0.079448 0.378836
C18   C     C_R   0.226466 0.275693 0.939107 -0.206082
C19   C     C_R   0.315590 0.351088 0.865720 -0.156074
C20   C     C_R   0.408469 0.427588 0.930481 0.209270
C21   C     C_R   0.410083 0.425767 0.075223 0.125344
C22   C     C_R   0.585859 0.571585 0.068980 -0.118635
C23   C     C_R   0.507098 0.739882 0.496709 0.869269
C24   C     C_R   0.585935 0.571329 0.925735 -0.077011
C25   C     C_R   0.742873 0.504496 0.500351 0.971989
C26   C     C_3   0.066567 0.384468 0.564056 -0.460336
C27   C     C_3   0.923658 0.385459 0.573034 0.175317
C28   C     C_3   0.086263 0.620569 0.572020 -0.410491
C29   C     C_3   0.070101 0.520345 0.344030 -0.051793
C30   C     C_3   0.122933 0.508440 0.493297 -0.025182
H1    H     H_    0.105454 0.371856 0.668553 0.163845
H2    H     H_    0.886667 0.590042 0.289694 0.213233
H3    H     H_    0.132834 0.709293 0.527817 0.192688
H4    H     H_    0.381290 0.112145 0.333608 0.191776
H5    H     H_    0.826209 0.890982 0.823975 0.196704
H6    H     H_    0.709071 0.782540 0.648372 0.221615
H7    H     H_    0.389899 0.888086 0.322451 0.167368
H8    H     H_    0.655926 0.630016 0.120819 0.156855
H9    H     H_    0.093211 0.303588 0.507313 0.237107
H10   H     H_    0.321887 0.333927 0.254204 0.218368
H11   H     H_    0.158687 0.215176 0.886481 0.180716
H12   H     H_    0.318420 0.335813 0.760098 0.224160
H13   H     H_    0.655382 0.630213 0.869754 0.188046
H14   H     H_    0.898070 0.384299 0.681180 0.154613
H15   H     H_    0.123433 0.611174 0.677691 0.208762
H16   H     H_    0.098313 0.437839 0.290849 0.201319
H17   H     H_    0.890093 0.425078 0.299727 0.228411
N1    N     N_R   0.498810 0.498800 0.142780 -0.115612
N2    N     N_R   0.498760 0.498720 0.857170 -0.110450
O1    O     O_R   0.500000 0.316780 0.614690 -0.590348
O2    O     O_R   0.499990 0.316750 0.385360 -0.625477
O3    O     O_R   0.314800 0.499990 0.614670 -0.648447
O4    O     O_R   0.314790 0.499970 0.385330 -0.656435
O5    O     O_R   0.500010 0.683250 0.614640 -0.626807
O6    O     O_R   0.500000 0.683220 0.385310 -0.618534
O7    O     O_R   0.685210 0.500030 0.614670 -0.592687
O8    O     O_R   0.685200 0.500010 0.385330 -0.615912
Zn1   Zn    Zn3+2 0.500010 0.500020 0.653130 0.975486
Zn2   Zn    Zn3+2 0.499990 0.499980 0.346870 0.950619
Cl1   Cl    Cl    0.901498 0.768155 0.484231 -0.646978
Cl2   Cl    Cl    0.505972 0.164831 0.846501 -0.672235
C31   C     C_3   0.767606 0.103185 0.940755 -0.363148
C32   C     C_3   0.819964 0.239996 0.918959 -0.295364
C33   C     C_3   0.830026 0.306244 0.051868 -0.785196
H18   H     H_    0.877644 0.401086 0.034173 0.241196
H19   H     H_    0.735082 0.316311 0.092002 0.276043
H20   H     H_    0.884446 0.252538 0.128325 0.313037
H21   H     H_    0.914322 0.241809 0.873313 0.221198
H22   H     H_    0.758421 0.293508 0.849211 0.260817
H23   H     H_    0.692964 0.095440 0.018214 0.253386
H24   H     H_    0.844003 0.046851 0.982773 0.211409
Cl3   Cl    Cl    0.126350 0.167063 0.172409 -0.662840
Cl4   Cl    Cl    0.849097 0.244706 0.508063 -0.625614
Cl5   Cl    Cl    0.894968 0.630668 0.744755 -0.744733
C34   C     C_3   0.118557 0.641473 0.259591 -0.392939
C35   C     C_3   0.102899 0.625304 0.106464 -0.384888
C36   C     C_3   0.154542 0.741955 0.024644 -0.746771
H25   H     H_    0.104021 0.824568 0.049737 0.283024
H26   H     H_    0.256197 0.760554 0.046444 0.252256
H27   H     H_    0.141788 0.727283 0.914784 0.269968
H28   H     H_    0.153582 0.544188 0.077197 0.229174
H29   H     H_    0.002173 0.607090 0.079952 0.246810
H30   H     H_    0.067569 0.722870 0.286739 0.262767
H31   H     H_    0.218446 0.668280 0.281120 0.229159

loop_
_geom_bond_atom_site_label_1
_geom_bond_atom_site_label_2
_ccdc_geom_bond_type
C22   N1    A    
C16   C21   A    
O6    Zn2   S    
C19   C20   A    
C1    C11   S    
C25   O7    A    
O4    Zn2   S    
C7    C8    A    
C36   H25   S    
C26   C27   S    
C31   C32   S    
N1    Zn2   S    
C3    C28   S    
O5    Zn1   S    
C5    C6    A    
C26   H9    S    
O8    Zn2   S    
C22   H8    S    
C31   H23   S    
C18   C19   A    
C8    H6    S    
C3    Cl5   S    
C27   H14   S    
C32   H22   S    
C8    C9    A    
C2    C27   S    
C1    O1    A    
C4    C29   S    
C19   H12   S    
C21   N1    A    
C3    Cl1   S    
C15   C23   S    
C26   H1    S    
C13   C14   A    
C25   O8    A    
C12   O3    A    
C36   H26   S    
C28   H15   S    
O1    Zn1   S    
C33   H20   S    
C35   C36   S    
C18   H11   S    
C35   H29   S    
C16   C17   A    
N2    Zn1   S    
C33   H19   S    
C2    C4    S    
C34   C35   S    
C29   C30   S    
C20   N2    A    
C17   C18   A    
C5    Cl2   S    
C1    O2    A    
C4    H2    S    
O3    Zn1   S    
C16   H10   S    
C28   H3    S    
C26   C30   S    
C22   C24   A    
O2    Zn2   S    
C23   O5    A    
C9    C10   A    
C36   H27   S    
C24   N2    A    
C32   H21   S    
C12   C30   S    
C7    H5    S    
C12   O4    A    
C35   H28   S    
C23   O6    A    
C6    C7    A    
C29   C34   S    
C29   H16   S    
C33   H18   S    
C6    C31   S    
C28   C30   S    
C2    C3    S    
C9    C15   A    
C5    C10   A    
C14   H7    S    
C11   C13   A    
C34   H30   S    
O7    Zn1   S    
C31   H24   S    
C2    C25   S    
C34   H31   S    
C10   C11   A    
C32   C33   S    
C13   H4    S    
C20   C21   A    
C17   Cl3   S    
C24   H13   S    
C14   C15   A    
C27   Cl4   S    
C4    H17   S    
