data_mof_unit_5769.cif
_audit_creation_date              2012-12-11T14:08:00-0500
_audit_creation_method            fapswitch 2.2
_symmetry_space_group_name_H-M    P1
_symmetry_Int_Tables_number       1
_space_group_crystal_system       triclinic
_cell_length_a                    11.199617
_cell_length_b                    11.03666
_cell_length_c                    18.726998
_cell_angle_alpha                 90.13226
_cell_angle_beta                  90.059811
_cell_angle_gamma                 59.463698
_cell_volume                      1993.72853095

loop_
_atom_site_label
_atom_site_type_symbol
_atom_type_description
_atom_site_fract_x
_atom_site_fract_y
_atom_site_fract_z
_atom_type_partial_charge
C1    C     C_R   0.241576 0.642736 0.609686 0.594022
C2    C     C_2   0.779214 0.169907 0.710675 0.011556
C3    C     C_2   0.200487 0.652032 0.684545 -0.015887
C4    C     C_R   0.655060 0.626643 0.599127 0.568407
C5    C     C_2   0.204300 0.651988 0.846105 0.207015
C6    C     C_2   0.199946 0.554719 0.804016 -0.033712
C7    C     C_2   0.221670 0.541530 0.725713 0.301584
C8    C     C_2   0.650144 0.649044 0.318135 -0.070956
C9    C     C_2   0.639373 0.663192 0.159701 -0.087806
C10   C     C_2   0.719873 0.547547 0.197568 -0.084251
C11   C     C_2   0.699393 0.538279 0.273367 -0.081528
C12   C     C_3   0.696966 0.572791 0.801134 -0.066675
C13   C     C_2   0.673760 0.133688 0.335735 -0.062443
C14   C     C_2   0.647698 0.154328 0.175287 0.223828
C15   C     C_2   0.651375 0.059527 0.221340 -0.118111
C16   C     C_R   0.626968 0.231990 0.602600 0.566386
C17   C     C_2   0.597709 0.100994 0.292830 0.013569
C18   C     C_2   0.116144 0.688720 0.346678 0.217668
C19   C     C_2   0.123261 0.683713 0.187683 -0.046783
C20   C     C_2   0.033844 0.785793 0.231487 -0.066918
C21   C     C_2   0.079955 0.797912 0.301918 -0.018793
C22   C     C_R   0.702349 0.102171 0.898538 0.545562
C23   C     C_3   0.717898 0.703283 0.806965 0.027013
C24   C     C_R   0.753721 0.713323 0.882861 0.537395
C25   C     C_R   0.121091 0.703369 0.909763 0.568111
C26   C     C_R   0.674271 0.108969 0.102753 0.585983
C27   C     C_R   0.693917 0.688161 0.094657 0.553235
C28   C     C_R   0.216677 0.652459 0.403959 0.574312
C29   C     C_R   0.092231 0.709206 0.113265 0.548678
C30   C     C_R   0.640776 0.621961 0.393015 0.561992
C31   C     C_R   0.618960 0.225015 0.397269 0.551983
C32   C     C_3   0.585987 0.843907 0.775969 -0.078454
C33   C     C_3   0.581742 0.826873 0.692691 -0.077895
C34   C     C_3   0.674260 0.663630 0.672545 0.039763
C35   C     C_3   0.846137 0.672499 0.757136 -0.145200
C36   C     C_3   0.899827 0.173564 0.673373 -0.271110
C37   C     C_3   0.022231 0.144576 0.721481 -0.467626
C38   C     C_3   0.442518 0.898945 0.812816 -0.244738
C39   C     C_3   0.365938 0.055335 0.833668 -0.427027
C40   C     C_3   0.452881 0.127944 0.309843 -0.219605
C41   C     C_3   0.390294 0.079283 0.251816 -0.431831
C42   C     C_3   0.436762 0.922835 0.656390 -0.267028
C43   C     C_3   0.444013 0.977639 0.581895 -0.400456
C44   C     C_3   0.107854 0.918148 0.315666 -0.284798
C45   C     C_3   0.827682 0.619792 0.682937 -0.265865
C46   C     C_3   0.057131 0.030413 0.256958 -0.446207
C47   C     C_3   0.876109 0.796951 0.752902 -0.267497
C48   C     C_3   0.895183 0.845746 0.678865 -0.438806
C49   C     C_3   0.616117 0.547637 0.863065 -0.204639
C50   C     C_3   0.706679 0.420486 0.911164 -0.399404
C51   C     C_3   0.651898 0.565739 0.723888 0.126184
C52   C     C_2   0.673355 0.171658 0.673547 -0.042396
C53   C     C_2   0.682639 0.175943 0.831709 0.186185
C54   C     C_2   0.791440 0.133555 0.787383 -0.139841
Cl1   Cl    Cl    0.511653 0.304505 0.810172 -0.610766
Cl2   Cl    Cl    0.253876 0.379512 0.689461 -0.618465
Cl3   Cl    Cl    0.272636 0.754105 0.822401 -0.724337
Cl4   Cl    Cl    0.580319 0.333476 0.195715 -0.682028
Cl5   Cl    Cl    0.056670 0.568740 0.331469 -0.634403
Cl6   Cl    Cl    0.489405 0.582512 0.711165 -0.563370
Cr1   Cr    Cr6+3 0.393010 0.398050 0.501480 1.095713
Cr2   Cr    Cr6+3 0.398820 0.707980 0.501630 1.009078
Cr3   Cr    Cr6+3 0.708140 0.393940 0.496850 1.028885
Cr4   Cr    Cr6+3 0.937950 0.938450 0.008940 1.023731
Cr5   Cr    Cr6+3 0.626180 0.937030 0.994750 1.005100
Cr6   Cr    Cr6+3 0.937790 0.625760 0.001410 1.017307
H1    H     H_    0.604357 0.931923 0.784526 0.144287
H2    H     H_    0.738028 0.432564 0.293749 0.185133
H3    H     H_    0.543709 0.748164 0.181834 0.093961
H4    H     H_    0.611123 0.755610 0.299629 0.079629
H5    H     H_    0.681816 0.953310 0.204154 0.101069
H6    H     H_    0.776488 0.108393 0.318875 0.098756
H7    H     H_    0.938137 0.873764 0.211191 0.129515
H8    H     H_    0.222422 0.597023 0.205532 0.151902
H9    H     H_    0.638724 0.875161 0.671549 0.130081
H10   H     H_    0.861725 0.652904 0.635775 0.143893
H11   H     H_    0.804208 0.480233 0.804706 0.114732
H12   H     H_    0.719782 0.455702 0.707179 0.140695
H13   H     H_    0.986480 0.218033 0.767683 0.152797
H14   H     H_    0.076788 0.034014 0.740438 0.183426
H15   H     H_    0.097773 0.160494 0.690591 0.165313
H16   H     H_    0.940329 0.094829 0.629448 0.144437
H17   H     H_    0.864910 0.276437 0.648465 0.195022
H18   H     H_    0.400614 0.068948 0.886828 0.206951
H19   H     H_    0.381494 0.120528 0.793986 0.215639
H20   H     H_    0.252983 0.095116 0.837693 0.147582
H21   H     H_    0.374156 0.886774 0.775883 0.231376
H22   H     H_    0.447202 0.841263 0.861058 0.222854
H23   H     H_    0.940259 0.582351 0.780927 0.135815
H24   H     H_    0.374824 0.139253 0.201721 0.193623
H25   H     H_    0.458074 0.965517 0.241129 0.132214
H26   H     H_    0.288162 0.098124 0.270020 0.141053
H27   H     H_    0.457210 0.072443 0.360108 0.148468
H28   H     H_    0.380509 0.242750 0.316657 0.227380
H29   H     H_    0.431688 0.083284 0.586698 0.187856
H30   H     H_    0.544064 0.908730 0.554448 0.145610
H31   H     H_    0.358047 0.987451 0.548049 0.143067
H32   H     H_    0.375284 0.869650 0.654868 0.229573
H33   H     H_    0.374536 0.019933 0.688063 0.153430
H34   H     H_    0.895205 0.502966 0.681509 0.134845
H35   H     H_    0.119550 0.985548 0.207647 0.175103
H36   H     H_    0.946352 0.073104 0.244197 0.163368
H37   H     H_    0.068763 0.119533 0.275256 0.147928
H38   H     H_    0.056688 0.971190 0.366517 0.160656
H39   H     H_    0.221285 0.875151 0.320136 0.180942
H40   H     H_    0.964028 0.760216 0.642732 0.136871
H41   H     H_    0.798335 0.909425 0.649422 0.122283
H42   H     H_    0.944383 0.909273 0.686075 0.139582
H43   H     H_    0.802015 0.889475 0.783426 0.124042
H44   H     H_    0.969660 0.768109 0.783392 0.126927
H45   H     H_    0.893804 0.056402 0.806654 0.134432
H46   H     H_    0.640991 0.383895 0.936501 0.169937
H47   H     H_    0.790753 0.332081 0.880788 0.149719
H48   H     H_    0.753002 0.448589 0.955758 0.191563
H49   H     H_    0.562734 0.637887 0.899487 0.179396
H50   H     H_    0.534566 0.530360 0.842135 0.285417
H51   H     H_    0.608523 0.137629 0.699290 0.154385
H52   H     H_    0.163805 0.488671 0.826841 0.133710
H53   H     H_    0.163741 0.754045 0.707752 0.126992
H54   H     H_    0.811246 0.458671 0.174120 0.171566
O1    O     O_R   0.507110 0.256280 0.580300 -0.480042
O2    O     O_R   0.837080 0.593860 0.915300 -0.537798
O3    O     O_R   0.064770 0.636080 0.932550 -0.548217
O4    O     O_R   0.280830 0.527190 0.577940 -0.428075
O5    O     O_R   0.068250 0.829200 0.092940 -0.521488
O6    O     O_R   0.799650 0.057040 0.080330 -0.510523
O7    O     O_R   0.586130 0.079760 0.077080 -0.516255
O8    O     O_R   0.627700 0.809630 0.066580 -0.501094
O9    O     O_R   0.816140 0.597180 0.075920 -0.512413
O10   O     O_R   0.045360 0.639170 0.081440 -0.478242
O11   O     O_3   0.833980 0.833750 0.001700 -0.283354
O12   O     O_R   0.524640 0.695370 0.425100 -0.517341
O13   O     O_R   0.261360 0.738990 0.584270 -0.527932
O14   O     O_R   0.532590 0.694780 0.574370 -0.470916
O15   O     O_R   0.744470 0.503750 0.577000 -0.540314
O16   O     O_R   0.698520 0.277230 0.571620 -0.517693
O17   O     O_R   0.498530 0.256920 0.419280 -0.529771
O18   O     O_R   0.272880 0.527780 0.428680 -0.452861
O19   O     O_R   0.252780 0.739630 0.423250 -0.565721
O20   O     O_R   0.735890 0.504390 0.415980 -0.492537
O21   O     O_R   0.690560 0.277820 0.422350 -0.511767
O22   O     O_3   0.499990 0.499990 0.499980 -0.251053
O23   O     O_R   0.089190 0.825870 0.932320 -0.461002
O24   O     O_R   0.819070 0.053960 0.931440 -0.528524
O25   O     O_R   0.607070 0.076440 0.916460 -0.502124
O26   O     O_R   0.647110 0.806550 0.917690 -0.522334

loop_
_geom_bond_atom_site_label_1
_geom_bond_atom_site_label_2
_ccdc_geom_bond_type
C29   O5    A    
C18   C21   D    
Cr3   O20   S    
C19   C20   D    
C40   H27   S    
C35   C47   S    
C12   C49   S    
C44   H38   S    
C16   O16   A    
C48   H42   S    
C44   H39   S    
C46   H36   S    
C12   C23   S    
C34   C51   S    
Cr1   O4    S    
C33   C42   S    
Cr5   O7    S    
Cr2   O13   S    
C36   C37   S    
C9    H3    S    
C39   H18   S    
C3    C7    D    
C42   H32   S    
C38   C39   S    
Cr1   O18   S    
C48   H41   S    
C36   H17   S    
Cr1   O1    S    
C26   O6    A    
C33   H9    S    
C48   H40   S    
C29   O10   A    
C36   H16   S    
C54   H45   S    
C43   H29   S    
C23   C24   S    
Cr6   O2    S    
C46   H35   S    
C32   C38   S    
Cr2   O19   S    
C31   O17   A    
C9    C10   D    
Cr6   O9    S    
C52   H51   S    
C41   H24   S    
Cr4   O11   S    
C37   H15   S    
C25   O23   A    
C28   O19   A    
C7    Cl2   S    
Cr2   O22   S    
C1    O13   A    
C24   O2    A    
Cr5   O11   S    
C44   C46   S    
C43   H30   S    
C22   C53   S    
C53   Cl1   S    
C14   Cl4   S    
C37   H14   S    
C4    C34   S    
C30   O20   A    
Cr5   O8    S    
Cr2   O12   S    
C28   O18   A    
C2    C54   S    
Cr4   O24   S    
C53   C54   D    
C38   H22   S    
C1    C3    S    
C17   C40   S    
Cr3   O15   S    
C31   O21   A    
C16   O1    A    
C2    C52   D    
C21   C44   S    
C37   H13   S    
C27   O8    A    
Cr1   O22   S    
C47   C48   S    
C22   O25   A    
C12   H11   S    
C41   H26   S    
C50   H46   S    
C33   C34   S    
Cr3   O21   S    
C18   C28   S    
C34   C45   S    
C14   C26   S    
C25   O3    A    
C3    H53   S    
C4    O15   A    
C5    C25   S    
C35   H23   S    
C40   C41   S    
C41   H25   S    
C13   H6    S    
C49   C50   S    
Cr4   O6    S    
C32   H1    S    
C27   O9    A    
C42   C43   S    
C39   H19   S    
Cr5   O25   S    
C35   C45   S    
C12   C51   S    
C11   H2    S    
C9    C27   S    
C4    O14   A    
Cr6   O11   S    
C2    C36   S    
C15   C17   S    
C49   H49   S    
Cr6   O3    S    
C13   C31   S    
C19   H8    S    
C16   C52   S    
C40   H28   S    
C45   H34   S    
C6    C7    S    
Cr4   O23   S    
C5    Cl3   S    
C47   H44   S    
C15   H5    S    
C46   H37   S    
C8    H4    S    
C13   C17   D    
C38   H21   S    
C50   H47   S    
C8    C30   S    
C23   C32   S    
Cr2   O14   S    
C1    O4    A    
C47   H43   S    
C42   H33   S    
C32   C33   S    
Cr1   O17   S    
C5    C6    D    
C8    C11   D    
C30   O12   A    
C45   H10   S    
Cr3   O22   S    
C20   H7    S    
C43   H31   S    
C26   O7    A    
C23   C35   S    
C51   H12   S    
C10   H54   S    
C10   C11   S    
C18   Cl5   S    
C49   H50   S    
C20   C21   S    
Cr4   O5    S    
C22   O24   A    
C14   C15   D    
Cr3   O16   S    
C24   O26   A    
C51   Cl6   S    
C39   H20   S    
C50   H48   S    
Cr5   O26   S    
C6    H52   S    
Cr6   O10   S    
C19   C29   S    
