data_mof_unit_42576.cif
_audit_creation_date              2012-12-10T17:19:23-0500
_audit_creation_method            fapswitch 2.2
_symmetry_space_group_name_H-M    P1
_symmetry_Int_Tables_number       1
_space_group_crystal_system       triclinic
_cell_length_a                    15.068355
_cell_length_b                    10.792443
_cell_length_c                    9.613628
_cell_angle_alpha                 89.356762
_cell_angle_beta                  89.753092
_cell_angle_gamma                 91.201005
_cell_volume                      1562.95201707

loop_
_atom_site_label
_atom_site_type_symbol
_atom_type_description
_atom_site_fract_x
_atom_site_fract_y
_atom_site_fract_z
_atom_type_partial_charge
C1    C     C_R   0.504273 0.262652 0.500878 0.899860
C2    C     C_R   0.908559 0.573446 0.384969 -0.021077
C3    C     C_R   0.951107 0.436684 0.736232 -0.241697
C4    C     C_R   0.043173 0.431025 0.735368 -0.196911
C5    C     C_R   0.091456 0.470896 0.617909 0.143018
C6    C     C_R   0.046929 0.517501 0.499561 0.011102
C7    C     C_R   0.095461 0.557093 0.380545 -0.018279
C8    C     C_R   0.050408 0.607321 0.264717 0.346964
C9    C     C_R   0.957874 0.621813 0.270406 -0.065888
C10   C     C_R   0.183700 0.464918 0.617274 -0.236752
C11   C     C_R   0.232088 0.504798 0.500241 -0.069999
C12   C     C_R   0.328846 0.500557 0.500247 0.794620
C13   C     C_R   0.188307 0.551364 0.383328 -0.227079
C14   C     C_R   0.669084 0.122263 0.575605 0.397399
C15   C     C_R   0.746013 0.051925 0.594829 -0.229374
C16   C     C_R   0.743873 0.924834 0.576038 -0.216054
C17   C     C_R   0.664747 0.865080 0.542168 -0.207788
C18   C     C_R   0.585961 0.932035 0.524864 0.036723
C19   C     C_R   0.588164 0.063035 0.534937 0.065475
C20   C     C_R   0.509058 0.128201 0.502988 -0.094663
C21   C     C_R   0.431245 0.063936 0.466776 -0.231490
C22   C     C_R   0.428804 0.935934 0.465339 -0.175806
C23   C     C_R   0.498383 0.736985 0.498964 0.765639
C24   C     C_R   0.504942 0.870404 0.496024 -0.054766
C25   C     C_R   0.611617 0.669214 0.141189 -0.151859
C26   C     C_R   0.661152 0.757916 0.068022 -0.198993
C27   C     C_R   0.661132 0.757997 0.924766 -0.188024
C28   C     C_R   0.612192 0.668849 0.854277 -0.141369
C29   C     C_R   0.555191 0.582789 0.924161 0.206859
C30   C     C_R   0.555028 0.582902 0.073514 0.211401
C31   C     C_R   0.447386 0.421284 0.075166 -0.057936
C32   C     C_R   0.447383 0.421351 0.927363 -0.053173
C33   C     C_R   0.671198 0.507928 0.499802 0.834904
C34   C     C_R   0.815156 0.568692 0.385181 -0.235875
C35   C     C_R   0.768250 0.521473 0.501382 -0.060418
C36   C     C_R   0.814280 0.487574 0.621539 -0.273387
C37   C     C_R   0.906314 0.483521 0.620391 0.124630
C38   C     C_R   0.953936 0.524519 0.501152 0.050483
Cu1   Cu    Cu3+1 0.499990 0.499990 0.640660 0.959712
Cu2   Cu    Cu3+1 0.500010 0.500010 0.359340 0.945273
H1    H     H_    0.778826 0.599549 0.294730 0.150407
H2    H     H_    0.808261 0.096119 0.624161 0.132049
H3    H     H_    0.803620 0.872018 0.589430 0.152442
H4    H     H_    0.666116 0.766022 0.528177 0.111642
H5    H     H_    0.367140 0.887581 0.440879 0.143911
H6    H     H_    0.404135 0.356748 0.131252 0.138068
H7    H     H_    0.620646 0.672973 0.250257 0.191108
H8    H     H_    0.700678 0.825838 0.123452 0.166280
H9    H     H_    0.700311 0.826288 0.867157 0.166410
H10   H     H_    0.621984 0.671963 0.745404 0.193680
H11   H     H_    0.778422 0.458799 0.714834 0.159167
H12   H     H_    0.404139 0.356890 0.873357 0.132954
H13   H     H_    0.914726 0.403176 0.827031 0.136436
H14   H     H_    0.076604 0.394849 0.826298 0.141116
H15   H     H_    0.217843 0.428884 0.707724 0.145083
H16   H     H_    0.227925 0.586709 0.297027 0.169811
H17   H     H_    0.371403 0.113479 0.441769 0.138227
N1    N     N_R   0.500860 0.501210 0.147910 -0.200346
N2    N     N_R   0.500890 0.501290 0.852040 -0.197476
O1    O     O_R   0.499990 0.319640 0.618810 -0.547586
O2    O     O_R   0.500000 0.319660 0.381240 -0.582861
O3    O     O_R   0.370250 0.499960 0.618800 -0.583794
O4    O     O_R   0.370260 0.499980 0.381230 -0.589484
O5    O     O_R   0.500000 0.680340 0.618760 -0.594798
O6    O     O_R   0.500010 0.680360 0.381190 -0.599888
O7    O     O_R   0.629740 0.500020 0.618770 -0.580830
O8    O     O_R   0.629750 0.500040 0.381200 -0.596726
O9    O     O_3   0.672282 0.247441 0.599576 -0.742915
H18   H     H_    0.730581 0.269195 0.640405 0.312729
O10   O     O_3   0.095188 0.648455 0.146759 -0.723343
H19   H     H_    0.139475 0.585653 0.122474 0.311795
C39   C     C_R   0.916849 0.697819 0.159936 0.163673
C40   C     C_R   0.912493 0.654603 0.022988 -0.068054
C41   C     C_R   0.890396 0.735147 0.914151 -0.122905
C42   C     C_R   0.873264 0.859348 0.941503 -0.128691
C43   C     C_R   0.875371 0.902200 0.078117 -0.145268
C44   C     C_R   0.896695 0.821619 0.187278 -0.145411
H20   H     H_    0.929517 0.560060 0.000639 0.119430
H21   H     H_    0.888147 0.702089 0.808374 0.137717
H22   H     H_    0.857459 0.922103 0.857008 0.124721
H23   H     H_    0.861390 0.998142 0.099249 0.135873
H24   H     H_    0.901188 0.856868 0.292141 0.130242

loop_
_geom_bond_atom_site_label_1
_geom_bond_atom_site_label_2
_ccdc_geom_bond_type
C11   C13   A    
C40   C41   A    
C35   C36   A    
C9    C39   S    
C7    C8    A    
Cu1   O5    S    
C26   C27   A    
C29   C30   A    
Cu2   O4    S    
C18   C24   A    
C31   N1    A    
C28   C29   A    
C34   C35   A    
C5    C6    A    
C15   C16   A    
C18   C19   A    
C32   H12   S    
C39   C44   A    
O9    H18   S    
C28   H10   S    
C29   N2    A    
C16   C17   A    
Cu2   O8    S    
C23   C24   S    
C6    C38   A    
O10   H19   S    
C42   H22   S    
C25   H7    S    
C26   H8    S    
C13   H16   S    
C2    C34   A    
C21   C22   A    
C34   H1    S    
C33   O7    A    
Cu2   N1    S    
C41   C42   A    
C43   C44   A    
C1    O1    A    
Cu1   Cu2   S    
C12   O4    A    
C8    C9    A    
C25   C26   A    
C31   H6    S    
Cu2   O2    S    
C42   C43   A    
C21   H17   S    
C37   C38   A    
C12   O3    A    
C2    C38   A    
C31   C32   A    
C7    C13   A    
C40   H20   S    
Cu1   N2    S    
C17   C18   A    
C10   H15   S    
C16   H3    S    
C36   H11   S    
C23   O5    A    
C41   H21   S    
Cu1   O7    S    
C22   C24   A    
C3    C4    A    
C33   O8    A    
C25   C30   A    
Cu1   O3    S    
C36   C37   A    
C1    C20   S    
C4    H14   S    
C14   C19   A    
C15   H2    S    
C39   C40   A    
C1    O2    A    
C43   H23   S    
C11   C12   S    
C6    C7    A    
C8    O10   S    
Cu2   O6    S    
C23   O6    A    
C19   C20   A    
C17   H4    S    
C5    C10   A    
C3    H13   S    
C44   H24   S    
Cu1   O1    S    
C30   N1    A    
C33   C35   S    
C10   C11   A    
C4    C5    A    
C22   H5    S    
C20   C21   A    
C3    C37   A    
C27   C28   A    
C14   O9    S    
C14   C15   A    
C32   N2    A    
C2    C9    A    
C27   H9    S    
