data_mof_unit_34846.cif
_audit_creation_date              2012-12-10T18:26:20-0500
_audit_creation_method            fapswitch 2.2
_symmetry_space_group_name_H-M    P1
_symmetry_Int_Tables_number       1
_space_group_crystal_system       triclinic
_cell_length_a                    14.945631
_cell_length_b                    14.194216
_cell_length_c                    23.188272
_cell_angle_alpha                 91.754565
_cell_angle_beta                  87.654455
_cell_angle_gamma                 89.640131
_cell_volume                      4912.62953409

loop_
_atom_site_label
_atom_site_type_symbol
_atom_type_description
_atom_site_fract_x
_atom_site_fract_y
_atom_site_fract_z
_atom_type_partial_charge
C1    C     C_R   0.326760 0.499710 0.498629 1.017801
C2    C     C_R   0.673751 0.499775 0.498344 1.024520
C3    C     C_R   0.597700 0.449388 0.240314 0.300604
C4    C     C_R   0.459855 0.502032 0.771495 0.291373
C5    C     C_R   0.593442 0.477467 0.298691 0.389874
C6    C     C_R   0.451562 0.528802 0.714078 0.337707
C7    C     C_R   0.509090 0.493618 0.326668 -0.348654
C8    C     C_R   0.517802 0.499027 0.672375 -0.346137
C9    C     C_R   0.431129 0.495656 0.294828 0.268767
C10   C     C_R   0.596392 0.453315 0.689460 0.282908
C11   C     C_R   0.437385 0.477820 0.235091 0.369231
C12   C     C_R   0.608636 0.438123 0.747830 0.364868
C13   C     C_R   0.520602 0.453695 0.208218 -0.000503
C14   C     C_R   0.539910 0.461556 0.788471 0.001938
C15   C     C_R   0.817651 0.443691 0.450764 0.350491
C16   C     C_R   0.179664 0.561732 0.527661 0.346618
C17   C     C_R   0.771194 0.501923 0.492478 -0.261619
C18   C     C_R   0.230797 0.499644 0.492360 -0.268972
C19   C     C_R   0.815525 0.572048 0.523888 0.399832
C20   C     C_R   0.191753 0.443390 0.449145 0.405434
C21   C     C_R   0.906738 0.587589 0.512028 -0.109181
C22   C     C_R   0.099523 0.455196 0.439071 -0.092883
C23   C     C_R   0.502415 0.498656 0.389372 1.064081
C24   C     C_R   0.500974 0.500884 0.610790 1.081041
C25   C     C_R   0.955272 0.523068 0.474256 -0.109302
C26   C     C_R   0.049298 0.521697 0.474426 -0.103762
C27   C     C_R   0.910482 0.455149 0.440216 -0.116915
C28   C     C_R   0.092053 0.581478 0.514357 -0.137228
C29   C     C_R   0.952672 0.663306 0.538223 0.371209
C30   C     C_R   0.054610 0.403432 0.395898 0.354858
C31   C     C_R   0.045374 0.659204 0.540431 0.433098
C32   C     C_R   0.960829 0.401756 0.397017 0.405029
C33   C     C_R   0.553485 0.795942 0.460927 0.472787
C34   C     C_R   0.450710 0.204360 0.541824 0.480989
C35   C     C_R   0.450679 0.801187 0.541009 0.435976
C36   C     C_R   0.545237 0.197898 0.456956 0.477024
C37   C     C_R   0.455930 0.901366 0.545199 -0.189475
C38   C     C_R   0.552294 0.098018 0.458809 -0.204723
C39   C     C_R   0.552012 0.896254 0.458127 -0.190584
C40   C     C_R   0.452492 0.103476 0.544814 -0.178277
C41   C     C_R   0.503123 0.949417 0.501514 -0.092238
C42   C     C_R   0.502912 0.050399 0.501900 -0.098368
C43   C     C_R   0.417520 0.954864 0.592402 0.375278
C44   C     C_R   0.606246 0.043853 0.418117 0.398493
C45   C     C_R   0.599913 0.945363 0.414705 0.400125
C46   C     C_R   0.408306 0.053788 0.590013 0.399335
C47   C     C_R   0.538677 0.370749 0.874768 0.680098
C48   C     C_R   0.556210 0.531907 0.120545 0.637980
C49   C     C_R   0.578950 0.533327 0.878414 0.655077
C50   C     C_R   0.518327 0.368737 0.116519 0.678404
C51   C     C_R   0.581158 0.533602 0.938792 -0.170530
C52   C     C_R   0.536203 0.363894 0.056452 -0.205220
C53   C     C_R   0.562461 0.448677 0.967189 -0.121667
C54   C     C_R   0.555944 0.448591 0.027987 -0.115489
C55   C     C_R   0.546836 0.364656 0.934785 -0.205855
C56   C     C_R   0.565564 0.533981 0.060213 -0.173384
C57   C     C_R   0.597558 0.616995 0.971347 0.383497
C58   C     C_R   0.533477 0.277851 0.024003 0.424586
C59   C     C_R   0.583650 0.618702 0.031398 0.409226
C60   C     C_R   0.537497 0.278271 0.963425 0.411778
N1    N     N_R   0.554642 0.453984 0.848561 -0.309653
N2    N     N_R   0.530639 0.451105 0.146744 -0.304339
N3    N     N_R   0.500000 0.750030 0.500000 -0.170463
N4    N     N_R   0.500000 0.249970 0.500000 -0.182243
O1    O     O_R   0.367850 0.580280 0.500010 -0.581277
O2    O     O_R   0.632150 0.419720 0.499990 -0.557604
O3    O     O_R   0.632150 0.580280 0.499990 -0.568750
O4    O     O_R   0.367850 0.419720 0.500010 -0.552076
O5    O     O_R   0.499970 0.580290 0.416160 -0.600642
O6    O     O_R   0.500030 0.419710 0.583840 -0.570884
O7    O     O_R   0.500030 0.580290 0.583840 -0.569065
O8    O     O_R   0.499970 0.419710 0.416160 -0.546988
O9    O     O_2   0.512440 0.295671 0.842797 -0.479280
O10   O     O_2   0.572561 0.609583 0.153387 -0.551787
O11   O     O_2   0.597604 0.612247 0.849315 -0.512213
O12   O     O_2   0.487346 0.293072 0.144673 -0.472964
Zn1   Zn    Zn3+2 0.500000 0.607200 0.500000 1.091360
Zn2   Zn    Zn3+2 0.500000 0.392800 0.500000 1.136711
O13   O     O_3   0.616995 0.700578 0.944517 -0.561337
C61   C     C_3   0.710207 0.715603 0.945010 0.174928
H1    H     H_    0.747204 0.658193 0.920137 0.156985
H2    H     H_    0.733972 0.719615 0.989927 0.158216
C62   C     C_3   0.731457 0.808687 0.916862 -0.755091
H3    H     H_    0.696130 0.867434 0.941232 0.238617
H4    H     H_    0.804685 0.821456 0.916757 0.211169
H5    H     H_    0.709662 0.806696 0.871618 0.278346
O14   O     O_3   0.523119 0.192133 0.050400 -0.533129
C63   C     C_3   0.606687 0.161662 0.070225 0.157361
H6    H     H_    0.615640 0.188877 0.114982 0.203877
H7    H     H_    0.665335 0.185159 0.043182 0.079775
C64   C     C_3   0.608381 0.054495 0.070623 -0.779139
H8    H     H_    0.601226 0.025030 0.026159 0.243382
H9    H     H_    0.672883 0.029625 0.087051 0.210677
H10   H     H_    0.552623 0.028704 0.098955 0.272363
O15   O     O_3   0.089004 0.731216 0.569332 -0.530026
C65   C     C_3   0.132037 0.789503 0.528538 0.177603
H11   H     H_    0.085034 0.812611 0.495511 0.133853
H12   H     H_    0.190165 0.752150 0.506515 0.162498
C66   C     C_3   0.166460 0.877083 0.559666 -0.734654
H13   H     H_    0.204827 0.921163 0.528721 0.189246
H14   H     H_    0.109354 0.919080 0.579144 0.258177
H15   H     H_    0.210933 0.856642 0.594429 0.291650
O16   O     O_3   0.920689 0.341329 0.357854 -0.564071
C67   C     C_3   0.905236 0.388378 0.306158 0.151230
H16   H     H_    0.953638 0.446227 0.297118 0.132054
H17   H     H_    0.836423 0.417942 0.308448 0.238791
C68   C     C_3   0.911561 0.317978 0.255260 -0.640514
H18   H     H_    0.903341 0.355372 0.214425 0.233960
H19   H     H_    0.977724 0.281855 0.253150 0.277639
H20   H     H_    0.858033 0.264556 0.259476 0.252168
Cl1   Cl    Cl    0.630723 0.728169 0.419095 -0.587176
Cl2   Cl    Cl    0.376798 0.273308 0.586970 -0.504626
Cl3   Cl    Cl    0.374047 0.740932 0.584413 -0.553200
Cl4   Cl    Cl    0.577666 0.252539 0.392597 -0.428465
O17   O     O_3   0.397623 0.913354 0.644560 -0.593005
C69   C     C_3   0.474725 0.916438 0.678254 0.155644
H21   H     H_    0.521295 0.975419 0.667758 0.149969
H22   H     H_    0.512691 0.849154 0.671624 0.159162
C70   C     C_3   0.446389 0.929143 0.741782 -0.771888
H23   H     H_    0.506577 0.931592 0.768316 0.215020
H24   H     H_    0.408104 0.996084 0.748981 0.280691
H25   H     H_    0.404019 0.869692 0.755765 0.235853
O18   O     O_3   0.666355 0.085303 0.379959 -0.553137
C71   C     C_3   0.750949 0.088440 0.404944 0.157319
H26   H     H_    0.771861 0.018126 0.420127 0.149637
H27   H     H_    0.749719 0.140327 0.441972 0.180646
C72   C     C_3   0.820556 0.118976 0.359840 -0.626157
H28   H     H_    0.800100 0.187102 0.342135 0.309871
H29   H     H_    0.886553 0.127393 0.379637 0.225639
H30   H     H_    0.826714 0.065233 0.324040 0.227844
O19   O     O_3   0.645409 0.898860 0.369038 -0.558518
C73   C     C_3   0.589909 0.895861 0.321112 0.153629
H31   H     H_    0.561882 0.966681 0.312085 0.162682
H32   H     H_    0.533780 0.845969 0.328770 0.151590
C74   C     C_3   0.644773 0.861873 0.267716 -0.731188
H33   H     H_    0.674773 0.791748 0.274868 0.251354
H34   H     H_    0.601202 0.856255 0.230115 0.211443
H35   H     H_    0.699284 0.912567 0.258081 0.256271
O20   O     O_3   0.368307 0.101571 0.637331 -0.550572
C75   C     C_3   0.274743 0.086715 0.637906 0.130477
H36   H     H_    0.258081 0.011370 0.643967 0.166981
H37   H     H_    0.246019 0.110141 0.597062 0.156132
C76   C     C_3   0.230440 0.143474 0.688065 -0.655042
H38   H     H_    0.243693 0.219760 0.683198 0.295791
H39   H     H_    0.156958 0.132090 0.689044 0.202018
H40   H     H_    0.257145 0.120695 0.729457 0.251811
O21   O     O_3   0.590997 0.704230 0.061275 -0.580533
C77   C     C_3   0.504919 0.745149 0.072214 0.181398
H41   H     H_    0.506540 0.786425 0.113628 0.183847
H42   H     H_    0.450320 0.692476 0.077817 0.142446
C78   C     C_3   0.482012 0.812942 0.025118 -0.796777
H43   H     H_    0.465600 0.773088 0.985065 0.277306
H44   H     H_    0.422740 0.856377 0.039537 0.224250
H45   H     H_    0.539302 0.860326 0.015889 0.269070
O22   O     O_3   0.524968 0.193981 0.933204 -0.529664
C79   C     C_3   0.609061 0.156982 0.913172 0.150288
H46   H     H_    0.651400 0.139966 0.949660 0.109594
H47   H     H_    0.646032 0.207090 0.885069 0.168158
C80   C     C_3   0.594611 0.066317 0.878194 -0.726004
H48   H     H_    0.553591 0.080868 0.840548 0.279675
H49   H     H_    0.660195 0.036264 0.862356 0.201623
H50   H     H_    0.559635 0.013966 0.905545 0.248473
Cl5   Cl    Cl    0.700443 0.412572 0.206359 -0.632363
Cl6   Cl    Cl    0.369175 0.516365 0.822491 -0.537735
O23   O     O_3   0.671370 0.495067 0.327558 -0.559399
C81   C     C_3   0.705470 0.582900 0.309249 0.123244
H51   H     H_    0.652898 0.638739 0.314084 0.178488
H52   H     H_    0.729062 0.579108 0.263175 0.184459
C82   C     C_3   0.784729 0.613223 0.344601 -0.715966
H53   H     H_    0.845831 0.572771 0.331077 0.194495
H54   H     H_    0.798812 0.688908 0.337847 0.242200
H55   H     H_    0.769933 0.603240 0.391123 0.281262
O24   O     O_3   0.375725 0.576221 0.697884 -0.523723
C83   C     C_3   0.375094 0.669168 0.722395 0.186137
H56   H     H_    0.415940 0.715458 0.694428 0.182476
H57   H     H_    0.403671 0.675158 0.765930 0.139049
C84   C     C_3   0.279191 0.706407 0.728389 -0.562775
H58   H     H_    0.235551 0.654216 0.750251 0.278614
H59   H     H_    0.276518 0.773166 0.754569 0.169623
H60   H     H_    0.253171 0.720760 0.685492 0.304826
Cl7   Cl    Cl    0.326774 0.525877 0.329083 -0.490938
Cl8   Cl    Cl    0.680257 0.414107 0.638092 -0.470641
Cl9   Cl    Cl    0.341954 0.487181 0.193219 -0.456528
Cl10  Cl    Cl    0.709240 0.388170 0.770669 -0.491238
Cl11  Cl    Cl    0.759063 0.353374 0.415273 -0.501194
Cl12  Cl    Cl    0.217277 0.591623 0.597030 -0.461349
Cl13  Cl    Cl    0.759341 0.624288 0.586217 -0.453378
Cl14  Cl    Cl    0.256826 0.349251 0.416606 -0.436312
Cl15  Cl    Cl    0.899708 0.770269 0.562132 -0.481759
Cl16  Cl    Cl    0.110247 0.344858 0.335900 -0.442638

loop_
_geom_bond_atom_site_label_1
_geom_bond_atom_site_label_2
_ccdc_geom_bond_type
C16   C28   A    
C76   H40   S    
O14   C63   S    
O23   C81   S    
O6    Zn2   S    
C34   Cl2   S    
C82   H53   S    
C23   O5    A    
O5    Zn1   S    
O15   C65   S    
O3    Zn1   S    
C77   C78   S    
C48   C56   A    
C36   Cl4   S    
C58   O14   S    
C67   H17   S    
C24   O6    A    
O18   C71   S    
C39   C41   A    
O24   C83   S    
C40   C46   A    
C15   Cl11  S    
C1    C18   S    
C33   C39   A    
C62   H3    S    
C34   C40   A    
C71   H27   S    
C79   H46   S    
C35   C37   A    
C75   H37   S    
C38   C42   A    
C37   C41   A    
C80   H48   S    
N3    Zn1   S    
C7    C23   S    
C57   C59   A    
C64   H9    S    
C58   C60   A    
O17   C69   S    
C65   C66   S    
C1    O4    A    
C69   H21   S    
C74   H34   S    
C41   C42   A    
C78   H45   S    
C50   C52   A    
C57   O13   S    
C83   H56   S    
O8    Zn2   S    
C19   Cl13  S    
C48   N2    A    
C13   N2    S    
O21   C77   S    
C73   H31   S    
C84   H59   S    
C65   H12   S    
C1    O1    A    
C78   H43   S    
C4    Cl6   S    
C33   Cl1   S    
C5    O23   S    
C40   C42   A    
C3    C13   A    
C3    Cl5   S    
C39   C45   A    
C43   O17   S    
C70   H24   S    
C55   C60   A    
C2    C17   S    
C81   H52   S    
C68   H19   S    
C73   H32   S    
C61   C62   S    
C15   C17   A    
C10   C12   A    
C34   N4    A    
C67   H16   S    
C52   C54   A    
O22   C79   S    
C53   C55   A    
O4    Zn2   S    
O2    Zn2   S    
C54   C56   A    
C32   O16   S    
O1    Zn1   S    
C48   O10   S    
C74   H33   S    
C49   N1    A    
C77   H41   S    
C47   O9    S    
C4    C6    A    
C2    O3    A    
C64   H8    S    
C5    C7    A    
C17   C19   A    
C6    C8    A    
C49   C51   A    
C25   C26   A    
C53   C54   A    
C14   N1    S    
C21   C29   A    
C51   C53   A    
C37   C43   A    
C72   H29   S    
C38   C44   A    
C50   O12   S    
C20   Cl14  S    
C15   C27   A    
C66   H13   S    
C63   C64   S    
C33   N3    A    
C84   H60   S    
C65   H11   S    
C66   H15   S    
C80   H49   S    
C80   H50   S    
C11   Cl9   S    
C75   H36   S    
C75   C76   S    
C9    C11   A    
C83   C84   S    
C49   O11   S    
C74   H35   S    
C52   C58   A    
C84   H58   S    
C71   C72   S    
C51   C57   A    
C77   H42   S    
C16   C18   A    
C62   H4    S    
C12   C14   A    
C45   O19   S    
C28   C31   A    
C81   H51   S    
C10   Cl8   S    
C68   H20   S    
C29   Cl15  S    
C50   N2    A    
C68   H18   S    
C72   H28   S    
O7    Zn1   S    
C44   C45   A    
C47   C55   A    
C82   H54   S    
C70   H25   S    
C76   H39   S    
C21   C25   A    
C63   H7    S    
C22   C30   A    
C66   H14   S    
C27   C32   A    
N4    Zn2   S    
C23   O8    A    
C79   C80   S    
C20   C22   A    
C61   H1    S    
C3    C5    A    
C47   N1    A    
O20   C75   S    
C69   C70   S    
C2    O2    A    
C6    O24   S    
C25   C27   A    
C44   O18   S    
C26   C28   A    
C56   C59   A    
C36   C38   A    
C60   O22   S    
C29   C31   A    
C16   Cl12  S    
C64   H10   S    
C30   C32   A    
C11   C13   A    
C12   Cl10  S    
C73   C74   S    
C31   O15   S    
C30   Cl16  S    
C79   H47   S    
C8    C24   S    
C61   H2    S    
C69   H22   S    
C35   Cl3   S    
C18   C20   A    
C78   H44   S    
C4    C14   A    
O19   C73   S    
C43   C46   A    
C83   H57   S    
C72   H30   S    
C9    Cl7   S    
O13   C61   S    
C7    C9    A    
C62   H5    S    
C63   H6    S    
C81   C82   S    
C8    C10   A    
C70   H23   S    
C22   C26   A    
O16   C67   S    
C71   H26   S    
C35   N3    A    
C82   H55   S    
C36   N4    A    
C67   C68   S    
C76   H38   S    
C24   O7    A    
C46   O20   S    
C19   C21   A    
C59   O21   S    
