data_mof_unit_26002.cif
_audit_creation_date              2012-12-10T16:54:56-0500
_audit_creation_method            fapswitch 2.2
_symmetry_space_group_name_H-M    P1
_symmetry_Int_Tables_number       1
_space_group_crystal_system       triclinic
_cell_length_a                    7.801505
_cell_length_b                    8.601802
_cell_length_c                    15.708582
_cell_angle_alpha                 91.350972
_cell_angle_beta                  84.954434
_cell_angle_gamma                 93.355191
_cell_volume                      1048.09108963

loop_
_atom_site_label
_atom_site_type_symbol
_atom_type_description
_atom_site_fract_x
_atom_site_fract_y
_atom_site_fract_z
_atom_type_partial_charge
C1    C     C_R   0.545360 0.794123 0.501202 0.831608
C2    C     C_3   0.300416 0.527408 0.059828 0.291628
C3    C     C_3   0.485032 0.492285 0.083246 0.041429
C4    C     C_3   0.530409 0.331582 0.044020 -0.626972
C5    C     C_3   0.534729 0.335131 0.945931 -0.496100
C6    C     C_1   0.490374 0.488036 0.174553 0.004025
C7    C     C_1   0.494996 0.499406 0.825960 0.118647
C8    C     C_1   0.499935 0.499945 0.750449 -0.141914
C9    C     C_2   0.569321 0.956219 0.513584 0.304109
C10   C     C_2   0.433388 0.042248 0.505606 -0.531964
C11   C     C_R   0.500538 0.500360 0.661571 0.859902
C12   C     C_R   0.455124 0.205608 0.504229 0.948477
C13   C     C_R   0.498773 0.497283 0.338440 0.874068
C14   C     C_3   0.306294 0.541253 0.959299 0.907690
C15   C     C_3   0.626757 0.618945 0.948216 0.389238
C16   C     C_3   0.622613 0.617863 0.046813 0.279512
C17   C     C_1   0.495227 0.490808 0.249705 -0.202759
C18   C     C_3   0.488667 0.497694 0.917733 -0.080500
H1    H     H_    0.213192 0.427893 0.083244 -0.048743
H2    H     H_    0.658652 0.300763 0.062384 0.215913
H3    H     H_    0.305794 0.991777 0.494845 0.153814
H4    H     H_    0.985951 0.596107 0.574258 0.158118
H5    H     H_    0.602214 0.737308 0.926553 0.165988
H6    H     H_    0.751559 0.582932 0.063162 0.093729
H7    H     H_    0.448185 0.241116 0.921082 0.208287
H8    H     H_    0.666071 0.309217 0.918132 0.255145
H9    H     H_    0.433123 0.240248 0.068686 0.216404
N1    N     N_2   0.950340 0.457950 0.477370 0.105746
N2    N     N_2   0.049660 0.542050 0.522630 -0.098234
O1    O     O_R   0.389240 0.738570 0.505550 -0.642993
O2    O     O_R   0.678400 0.711630 0.491050 -0.604274
O3    O     O_R   0.355360 0.513470 0.630110 -0.603390
O4    O     O_R   0.644510 0.486530 0.615610 -0.643421
O5    O     O_R   0.321600 0.288370 0.508950 -0.643872
O6    O     O_R   0.610760 0.261430 0.494450 -0.563239
O7    O     O_R   0.355490 0.513470 0.384390 -0.562960
O8    O     O_R   0.644640 0.486530 0.369890 -0.604580
Zn1   Zn    Zn3+2 0.306930 0.517990 0.509680 0.983884
Zn2   Zn    Zn3+2 0.693070 0.482010 0.490320 0.996287
O9    O     O_3   0.249709 0.670010 0.099812 -0.505821
C19   C     C_3   0.122029 0.645154 0.168535 0.167767
H10   H     H_    0.153619 0.551645 0.211385 0.153504
H11   H     H_    0.996329 0.612401 0.143231 0.102296
C20   C     C_3   0.107545 0.794338 0.221967 -0.799106
H12   H     H_    0.076700 0.891562 0.181694 0.242989
H13   H     H_    0.004029 0.777587 0.274701 0.211856
H14   H     H_    0.231377 0.824908 0.249876 0.258797
O10   O     O_3   0.170373 0.461613 0.917057 -0.558264
C21   C     C_3   0.098253 0.320312 0.952293 0.071394
H15   H     H_    0.988008 0.345737 0.999316 0.163117
H16   H     H_    0.190332 0.252696 0.983618 0.112310
C22   C     C_3   0.031241 0.217735 0.880885 -0.762090
H17   H     H_    0.943225 0.282398 0.844688 0.276201
H18   H     H_    0.140870 0.181876 0.836217 0.243974
H19   H     H_    0.960437 0.111958 0.908098 0.216859
O11   O     O_3   0.730826 0.018146 0.531430 -0.601274
C23   C     C_3   0.744229 0.009882 0.620258 0.113368
H20   H     H_    0.738980 0.886361 0.640618 0.137995
H21   H     H_    0.639299 0.071948 0.657139 0.135838
C24   C     C_3   0.915975 0.087399 0.641477 -0.797916
H22   H     H_    0.922521 0.212561 0.624868 0.253908
H23   H     H_    0.929660 0.077888 0.710867 0.214731
H24   H     H_    0.023760 0.029464 0.605040 0.247349
O12   O     O_3   0.028134 0.412450 0.401846 -0.504239
C25   C     C_3   0.016964 0.248186 0.397904 0.266202
H25   H     H_    0.968792 0.192176 0.459220 0.178808
H26   H     H_    0.148542 0.208141 0.380966 0.124929
C26   C     C_3   0.906413 0.190647 0.327480 -0.879722
H27   H     H_    0.956313 0.244482 0.265935 0.231173
H28   H     H_    0.910449 0.062107 0.320781 0.214651
H29   H     H_    0.770737 0.219749 0.342983 0.281799
F1    F     F_    0.290905 0.697451 0.942241 -0.622135
F2    F     F_    0.789968 0.585815 0.912312 -0.649786
O13   O     O_3   0.580280 0.766943 0.080152 -0.560035
C27   C     C_3   0.712816 0.835662 0.126263 0.113137
H30   H     H_    0.829666 0.862911 0.082051 0.166598
H31   H     H_    0.744229 0.758123 0.177745 0.134736
C28   C     C_3   0.652121 0.985597 0.168180 -0.825177
H32   H     H_    0.588420 0.051805 0.121795 0.272071
H33   H     H_    0.558844 0.959636 0.224298 0.246834
H34   H     H_    0.763865 0.057413 0.188744 0.202640

loop_
_geom_bond_atom_site_label_1
_geom_bond_atom_site_label_2
_ccdc_geom_bond_type
C15   C18   S    
H4    N2    S    
C19   H10   S    
C14   C18   S    
C3    C6    S    
C7    C8    T    
C20   H12   S    
O4    Zn2   S    
C24   H24   S    
C16   O13   S    
N1    N2    D    
C8    C11   S    
C28   H33   S    
C23   H21   S    
C15   C16   S    
C1    O2    A    
O11   C23   S    
O1    Zn1   S    
C24   H23   S    
C22   H18   S    
C26   H27   S    
C25   H26   S    
N2    Zn1   S    
O3    Zn1   S    
C9    C10   D    
C13   O8    A    
C20   H14   S    
C7    C18   S    
C15   H5    S    
C16   H6    S    
C19   H11   S    
C20   H13   S    
C10   H3    S    
O13   C27   S    
C11   O4    A    
C25   C26   S    
C1    C9    S    
C13   O7    A    
C28   H32   S    
C23   C24   S    
C14   O10   S    
C5    C18   S    
N1    Zn2   S    
C21   H16   S    
C24   H22   S    
O6    Zn2   S    
C27   H30   S    
C21   C22   S    
C9    O11   S    
C12   O6    A    
C27   H31   S    
C10   C12   S    
C5    H7    S    
N1    O12   S    
O9    C19   S    
C15   F2    S    
C11   O3    A    
C25   H25   S    
C19   C20   S    
C12   O5    A    
C3    C4    S    
C4    H9    S    
C22   H17   S    
C6    C17   T    
O10   C21   S    
C2    H1    S    
O5    Zn1   S    
C14   F1    S    
C4    C5    S    
C22   H19   S    
C13   C17   S    
O12   C25   S    
O7    Zn1   S    
C2    C3    S    
O8    Zn2   S    
C28   H34   S    
C23   H20   S    
C26   H29   S    
C1    O1    A    
O2    Zn2   S    
C2    C14   S    
C27   C28   S    
C5    H8    S    
C4    H2    S    
C2    O9    S    
C26   H28   S    
C21   H15   S    
C3    C16   S    
