data_mof_unit_49289.cif
_audit_creation_date              2012-12-10T20:51:45-0500
_audit_creation_method            fapswitch 2.2
_symmetry_space_group_name_H-M    P1
_symmetry_Int_Tables_number       1
_space_group_crystal_system       triclinic
_cell_length_a                    8.084914
_cell_length_b                    8.931522
_cell_length_c                    16.780573
_cell_angle_alpha                 89.50894
_cell_angle_beta                  92.780333
_cell_angle_gamma                 90.016434
_cell_volume                      1210.26417092

loop_
_atom_site_label
_atom_site_type_symbol
_atom_type_description
_atom_site_fract_x
_atom_site_fract_y
_atom_site_fract_z
_atom_type_partial_charge
C1    C     C_R   0.499967 0.217897 0.500099 0.940318
C2    C     C_R   0.617161 0.501367 0.134031 0.362723
C3    C     C_R   0.542611 0.614568 0.899841 0.111835
C4    C     C_R   0.461638 0.505212 0.092500 0.168668
C5    C     C_R   0.686807 0.582238 0.861229 -0.235391
C6    C     C_R   0.316426 0.495572 0.133511 -0.278078
C7    C     C_R   0.677946 0.546546 0.781017 -0.298993
C8    C     C_R   0.323714 0.491066 0.216143 -0.307511
C9    C     C_1   0.499965 0.065144 0.500129 -0.199924
C10   C     C_1   0.500039 0.934795 0.500090 -0.206798
C11   C     C_3   0.843267 0.667512 0.246050 0.117565
C12   C     C_R   0.500041 0.782085 0.499977 0.913266
C13   C     C_3   0.947899 0.713045 0.319682 -0.790460
C14   C     C_3   0.206390 0.755611 0.705018 0.131928
C15   C     C_3   0.027891 0.775747 0.673939 -0.755394
C16   C     C_3   0.830410 0.351941 0.097838 0.121817
C17   C     C_3   0.909912 0.316433 0.019837 -0.834255
C18   C     C_3   0.246163 0.803130 0.926797 0.101895
C19   C     C_3   0.069097 0.852775 0.938439 -0.817579
C20   C     C_R   0.518525 0.507874 0.653779 0.912408
C21   C     C_R   0.481640 0.501525 0.345771 0.926408
C22   C     C_R   0.524828 0.547621 0.738126 -0.234306
C23   C     C_R   0.476918 0.500514 0.258670 -0.198087
C24   C     C_R   0.381194 0.597960 0.775100 0.376035
C25   C     C_R   0.625114 0.509660 0.217287 0.334128
C26   C     C_R   0.389616 0.630275 0.856364 0.381782
H1    H     H_    0.804220 0.572863 0.894840 0.214224
H2    H     H_    0.289532 0.778373 0.655436 0.138704
H3    H     H_    0.231222 0.840175 0.752428 0.117324
H4    H     H_    0.943120 0.761356 0.723550 0.244639
H5    H     H_    0.010637 0.889815 0.648021 0.199696
H6    H     H_    0.996453 0.692077 0.627182 0.260995
H7    H     H_    0.738280 0.261635 0.108847 0.120925
H8    H     H_    0.927461 0.349285 0.147065 0.173610
H9    H     H_    0.978243 0.208858 0.025826 0.203888
H10   H     H_    0.812700 0.306670 0.971075 0.260430
H11   H     H_    0.997471 0.406467 0.004058 0.271551
H12   H     H_    0.197302 0.495188 0.101327 0.191762
H13   H     H_    0.305199 0.887581 0.887916 0.106219
H14   H     H_    0.313254 0.801470 0.986125 0.163864
H15   H     H_    0.007863 0.773143 0.978846 0.263918
H16   H     H_    0.069110 0.965971 0.965205 0.203144
H17   H     H_    0.998284 0.856650 0.880054 0.255954
H18   H     H_    0.790357 0.513723 0.753200 0.222612
H19   H     H_    0.209114 0.482861 0.246626 0.205697
H20   H     H_    0.746039 0.755267 0.235262 0.115516
H21   H     H_    0.923959 0.665793 0.194296 0.178570
H22   H     H_    0.009636 0.821783 0.308530 0.198650
H23   H     H_    0.868158 0.725291 0.371256 0.265926
H24   H     H_    0.043867 0.627181 0.334368 0.263300
N1    N     N_1   0.073640 0.500030 0.499990 -0.034265
N2    N     N_1   0.926360 0.499970 0.500010 -0.038006
N3    N     N_2   0.550682 0.608944 0.983246 -0.125237
N4    N     N_2   0.448792 0.518217 0.009037 -0.118736
O1    O     O_R   0.636850 0.285340 0.500000 -0.611467
O2    O     O_3   0.229046 0.607415 0.733829 -0.563296
O3    O     O_3   0.760639 0.497052 0.092301 -0.617767
O4    O     O_3   0.243107 0.658364 0.893329 -0.580545
O5    O     O_R   0.363150 0.714660 0.500000 -0.626603
O6    O     O_R   0.363100 0.285350 0.500000 -0.613860
O7    O     O_R   0.636900 0.714650 0.500000 -0.629805
O8    O     O_R   0.652140 0.498630 0.616140 -0.628246
O9    O     O_R   0.347860 0.501370 0.383860 -0.640255
O10   O     O_R   0.378390 0.498650 0.616130 -0.573055
O11   O     O_R   0.621610 0.501350 0.383870 -0.560571
O12   O     O_3   0.777462 0.522568 0.258273 -0.596729
Zn1   Zn    Zn3+2 0.682780 0.499990 0.500010 0.987421
Zn2   Zn    Zn3+2 0.317220 0.500010 0.499990 0.985901

loop_
_geom_bond_atom_site_label_1
_geom_bond_atom_site_label_2
_ccdc_geom_bond_type
C20   O10   A    
C13   H22   S    
O1    Zn1   S    
C18   H13   S    
C11   O12   S    
C15   H5    S    
C17   H10   S    
O5    Zn2   S    
C24   O2    S    
C7    C22   A    
C11   C13   S    
C9    C10   T    
O7    Zn1   S    
C2    C4    A    
C19   H16   S    
N1    Zn2   S    
C21   O11   A    
C3    C5    A    
C6    H12   S    
C1    O1    A    
C2    O3    S    
C15   H6    S    
C17   H11   S    
N3    N4    D    
C14   O2    S    
C12   O7    A    
C3    N3    S    
N2    Zn1   S    
C10   C12   S    
O8    Zn1   S    
C23   C25   A    
C13   H23   S    
O10   Zn2   S    
C13   H24   S    
C20   C22   S    
C2    C25   A    
C4    N4    S    
C16   O3    S    
C21   C23   S    
C20   O8    A    
C16   H7    S    
C22   C24   A    
C21   O9    A    
C8    H19   S    
C14   H3    S    
C14   H2    S    
C7    H18   S    
C19   H15   S    
C8    C23   A    
C1    C9    S    
O6    Zn2   S    
C15   H4    S    
C4    C6    A    
C18   C19   S    
C1    O6    A    
C26   O4    S    
C5    C7    A    
C18   H14   S    
C14   C15   S    
C11   H20   S    
C6    C8    A    
C17   H9    S    
C16   H8    S    
O9    Zn2   S    
C5    H1    S    
C12   O5    A    
C11   H21   S    
C18   O4    S    
C3    C26   A    
C25   O12   S    
N1    N2    T    
C24   C26   A    
C16   C17   S    
O11   Zn1   S    
C19   H17   S    
