data_mof_unit_45048.cif
_audit_creation_date              2013-03-05T15:57:41-0500
_audit_creation_method            fapswitch 2.2
_symmetry_space_group_name_H-M    P1
_symmetry_Int_Tables_number       1
_space_group_crystal_system       triclinic
_cell_length_a                    19.233174
_cell_length_b                    18.041056
_cell_length_c                    12.662816
_cell_angle_alpha                 87.152506
_cell_angle_beta                  100.923894
_cell_angle_gamma                 90.412043
_cell_volume                      4308.8745851

loop_
_atom_site_label
_atom_site_type_symbol
_atom_site_description
_atom_site_fract_x
_atom_site_fract_y
_atom_site_fract_z
_atom_type_partial_charge
O1    O     O_R   0.448200 0.076800 0.373930 -0.621905
O2    O     O_R   0.448200 0.923200 0.373930 -0.625147
O3    O     O_R   0.948200 0.576800 0.373930 -0.629232
O4    O     O_R   0.948200 0.423200 0.373930 -0.634249
O5    O     O_R   0.414750 0.076790 0.542400 -0.634252
O6    O     O_R   0.414750 0.923210 0.542400 -0.633205
O7    O     O_R   0.914750 0.576790 0.542400 -0.628965
O8    O     O_R   0.914750 0.423210 0.542400 -0.644824
C1    C     C_R   0.411365 0.103920 0.441471 0.826849
C2    C     C_R   0.409476 0.899192 0.443603 0.821290
C3    C     C_R   0.910850 0.603441 0.441414 0.806607
C4    C     C_R   0.915092 0.393309 0.448317 0.817502
Zn1   Zn    Zn3+2 0.522330 1.000000 0.387520 0.949207
Zn2   Zn    Zn3+2 0.022330 0.500000 0.387520 0.958293
Zn3   Zn    Zn3+2 0.477660 0.000000 0.612480 0.970219
Zn4   Zn    Zn3+2 0.977660 0.500000 0.612480 0.963642
O9    O     O_R   0.585240 0.923200 0.457600 -0.563546
O10   O     O_R   0.585240 0.076800 0.457600 -0.631551
O11   O     O_R   0.085240 0.423200 0.457600 -0.572451
O12   O     O_R   0.085240 0.576800 0.457600 -0.565867
O13   O     O_R   0.551780 0.923190 0.626070 -0.544838
O14   O     O_R   0.551780 0.076810 0.626070 -0.605835
O15   O     O_R   0.051780 0.423190 0.626070 -0.551147
O16   O     O_R   0.051780 0.576810 0.626070 -0.623584
C5    C     C_R   0.590660 0.898697 0.558822 0.859408
C6    C     C_R   0.593139 0.097628 0.558350 0.862871
C7    C     C_R   0.089585 0.397199 0.558060 0.905347
C8    C     C_R   0.087299 0.603787 0.553977 0.906701
C9    C     C_R   0.719933 0.223796 0.731195 -0.208674
C10   C     C_R   0.754644 0.810711 0.720134 -0.237268
C11   C     C_R   0.229820 0.704072 0.724942 -0.206709
C12   C     C_R   0.244551 0.293967 0.722513 -0.230721
H1    H     H_    0.616531 0.180367 0.738927 0.156093
H2    H     H_    0.685561 0.891784 0.748050 0.260473
H3    H     H_    0.150792 0.629000 0.755190 0.192226
H4    H     H_    0.169266 0.362875 0.760528 0.264239
H5    H     H_    0.363539 0.741590 0.741697 0.158885
H6    H     H_    0.372818 0.240842 0.745478 0.147269
H7    H     H_    0.846476 0.293724 0.778517 0.158429
H8    H     H_    0.880520 0.752337 0.739727 0.146408
H9    H     H_    0.725344 0.250499 0.807081 0.137799
H10   H     H_    0.789356 0.818689 0.796853 0.156400
H11   H     H_    0.259994 0.694998 0.805975 0.142781
H12   H     H_    0.274589 0.293475 0.804257 0.154908
C13   C     C_R   0.655034 0.142489 0.600024 -0.039689
C14   C     C_R   0.646034 0.842654 0.596973 -0.100391
C15   C     C_R   0.134327 0.665843 0.586709 -0.093630
C16   C     C_R   0.142179 0.337306 0.593384 -0.109161
C17   C     C_R   0.305550 0.869762 0.304833 0.114222
C18   C     C_R   0.337526 0.187574 0.291579 0.092777
C19   C     C_R   0.861242 0.294177 0.319628 0.090933
C20   C     C_R   0.830242 0.680592 0.292243 0.101805
C21   C     C_R   0.233249 0.879896 0.301738 -0.190308
C22   C     C_R   0.276648 0.232399 0.263736 -0.147301
C23   C     C_R   0.807624 0.240938 0.296910 -0.140279
C24   C     C_R   0.765428 0.718786 0.266311 -0.158603
C25   C     C_R   0.204011 0.855712 0.389621 -0.236216
C26   C     C_R   0.241497 0.256840 0.341512 -0.165452
C27   C     C_R   0.773163 0.212383 0.376213 -0.235976
C28   C     C_R   0.732152 0.743868 0.345811 -0.179201
C29   C     C_R   0.244210 0.810116 0.472129 0.069649
C30   C     C_R   0.266551 0.240020 0.451336 0.063943
C31   C     C_R   0.795609 0.229979 0.484107 0.077414
C32   C     C_R   0.762891 0.734525 0.455431 0.068200
C33   C     C_R   0.318550 0.814090 0.485540 0.061032
C34   C     C_R   0.333044 0.204146 0.480594 0.074746
C35   C     C_R   0.849900 0.282485 0.510647 0.073107
C36   C     C_R   0.831254 0.702108 0.481495 0.078525
C37   C     C_R   0.760221 0.201695 0.565235 0.057706
C38   C     C_R   0.732101 0.763449 0.538990 0.063234
C39   C     C_R   0.214563 0.762383 0.543648 0.059873
C40   C     C_R   0.232115 0.264453 0.533598 0.082358
C41   C     C_R   0.770643 0.234409 0.665572 0.147846
C42   C     C_R   0.776856 0.770888 0.641579 0.122228
C43   C     C_R   0.257552 0.744367 0.646482 0.136563
C44   C     C_R   0.272240 0.264152 0.640640 0.141108
C45   C     C_R   0.329994 0.758681 0.665684 -0.230860
C46   C     C_R   0.341459 0.238151 0.665010 -0.249808
C47   C     C_R   0.831835 0.275532 0.696997 -0.279080
C48   C     C_R   0.846049 0.744737 0.662726 -0.250708
C49   C     C_R   0.361013 0.786101 0.582029 -0.183213
C50   C     C_R   0.371871 0.209858 0.585855 -0.166922
C51   C     C_R   0.874211 0.294340 0.621717 -0.199808
C52   C     C_R   0.873117 0.711794 0.583730 -0.170723
C53   C     C_R   0.713802 0.141951 0.549539 -0.012606
C54   C     C_R   0.660734 0.790012 0.525512 0.094345
C55   C     C_R   0.151017 0.720785 0.511658 0.028549
C56   C     C_R   0.160835 0.291653 0.515788 0.070319
C57   C     C_R   0.658912 0.182832 0.693473 -0.177359
C58   C     C_R   0.692712 0.850791 0.694307 -0.167421
C59   C     C_R   0.167759 0.665600 0.695150 -0.180465
C60   C     C_R   0.182145 0.333206 0.697684 -0.138308
C61   C     C_R   0.349031 0.851407 0.405714 -0.150775
C62   C     C_R   0.361817 0.167067 0.402871 -0.181697
C63   C     C_R   0.876561 0.321870 0.426029 -0.177816
C64   C     C_R   0.858998 0.664484 0.403107 -0.182754
H13   H     H_    0.728364 0.176306 0.351779 0.164859
H14   H     H_    0.685838 0.776629 0.317812 0.196057
H15   H     H_    0.150583 0.871905 0.391055 0.146500
H16   H     H_    0.198974 0.295016 0.313836 0.188778
H17   H     H_    0.199405 0.904326 0.230535 0.147584
H18   H     H_    0.255088 0.249759 0.181282 0.148619
H19   H     H_    0.789821 0.222190 0.216592 0.143037
H20   H     H_    0.739593 0.730679 0.183788 0.148997
H21   H     H_    0.418304 0.788122 0.594507 0.159235
H22   H     H_    0.427340 0.194933 0.607287 0.167040
H23   H     H_    0.924410 0.320178 0.651593 0.199317
H24   H     H_    0.928830 0.697524 0.601954 0.161634
C65   C     C_R   0.634651 0.052701 0.135933 -0.323698
C66   C     C_R   0.140788 0.532801 0.135567 -0.314135
H25   H     H_    0.654968 0.088290 0.944107 0.190055
H26   H     H_    0.163221 0.567508 0.944590 0.182456
H27   H     H_    0.688542 0.067174 0.129361 0.188007
H28   H     H_    0.196215 0.539391 0.130704 0.179144
N1    N     N_R   0.552340 1.000000 0.237260 -0.150726
N2    N     N_R   0.052340 0.500000 0.237260 -0.160706
C67   C     C_R   0.376714 0.986308 0.762817 0.271155
C68   C     C_R   0.876523 0.488570 0.763542 0.260807
C69   C     C_R   0.352906 0.978177 0.859983 -0.245684
C70   C     C_R   0.853054 0.482776 0.861155 -0.235782
C71   C     C_R   0.396244 0.994701 0.954188 -0.229491
C72   C     C_R   0.897112 0.500144 0.954358 -0.251837
C73   C     C_R   0.465659 0.017621 0.954160 0.008473
C74   C     C_R   0.967613 0.519344 0.953718 0.000565
C75   C     C_R   0.491175 0.020101 0.855556 0.083608
C76   C     C_R   0.992551 0.519186 0.854928 0.103109
C77   C     C_R   0.513243 0.029963 0.050579 0.014618
C78   C     C_R   0.016755 0.527660 0.050037 0.014087
C79   C     C_R   0.581548 0.056928 0.045042 0.055737
C80   C     C_R   0.087926 0.544298 0.044893 0.077966
C81   C     C_R   0.600708 0.072219 0.946024 -0.326682
C82   C     C_R   0.107587 0.558394 0.946301 -0.339223
C83   C     C_R   0.562311 0.038139 0.857619 0.336648
C84   C     C_R   0.065073 0.529541 0.856950 0.320013
C85   C     C_R   0.498614 0.009318 0.152488 -0.113471
C86   C     C_R   0.000049 0.512103 0.151663 -0.135172
C87   C     C_R   0.621082 0.015157 0.228404 0.467002
C88   C     C_R   0.122437 0.505291 0.230587 0.431613
N3    N     N_R   0.448170 1.000000 0.762060 -0.138366
N4    N     N_R   0.948170 0.500000 0.762060 -0.139513
H29   H     H_    0.446225 0.997733 0.167013 0.131099
H30   H     H_    0.946886 0.507235 0.166026 0.135373
H31   H     H_    0.373032 0.991045 0.025140 0.139881
H32   H     H_    0.874173 0.497053 0.025681 0.142272
H33   H     H_    0.299260 0.961318 0.863159 0.139985
H34   H     H_    0.799597 0.466039 0.865948 0.144790
C89   C     C_3   0.319121 0.979292 0.663256 -0.379686
C90   C     C_3   0.254390 0.029703 0.660441 -0.414219
C91   C     C_3   0.199447 0.019265 0.558288 -0.887060
H35   H     H_    0.220407 0.039205 0.486005 0.262718
H36   H     H_    0.184740 0.959839 0.551434 0.268261
H37   H     H_    0.151005 0.050855 0.562270 0.248907
H38   H     H_    0.228002 0.016724 0.729681 0.225196
H39   H     H_    0.271254 0.088741 0.662926 0.247346
H40   H     H_    0.336525 0.995423 0.589307 0.277694
H41   H     H_    0.301573 0.920535 0.659475 0.203268
C92   C     C_3   0.819231 0.479621 0.664180 -0.390430
C93   C     C_3   0.752437 0.527182 0.659425 -0.410807
C94   C     C_3   0.698547 0.512705 0.557357 -0.886019
H42   H     H_    0.717512 0.536420 0.485262 0.260391
H43   H     H_    0.689624 0.452171 0.549042 0.270595
H44   H     H_    0.647142 0.538196 0.562056 0.254664
H45   H     H_    0.726279 0.513583 0.728727 0.225874
H46   H     H_    0.766628 0.587052 0.659924 0.247729
H47   H     H_    0.836642 0.495918 0.590252 0.282160
H48   H     H_    0.803379 0.420572 0.661286 0.206057
N5    N     N_R   0.602467 0.989557 0.808764 0.231590
O17   O     O_R   0.660548 0.013992 0.781044 -0.494834
O18   O     O_R   0.597041 0.919242 0.834658 -0.428200
N6    N     N_R   0.099147 0.474753 0.809832 0.229145
O19   O     O_R   0.158831 0.490232 0.779408 -0.461158
O20   O     O_R   0.085010 0.406423 0.836886 -0.448970
C95   C     C_3   0.743893 0.068715 0.523501 -0.360051
C96   C     C_3   0.793842 0.033160 0.621568 -0.376659
C97   C     C_3   0.828800 0.963520 0.591538 -0.794862
H49   H     H_    0.788007 0.924054 0.554050 0.293910
H50   H     H_    0.864115 0.978346 0.533794 0.270045
H51   H     H_    0.860895 0.935952 0.664912 0.238331
H52   H     H_    0.836005 0.073007 0.653784 0.231272
H53   H     H_    0.763746 0.017901 0.685825 0.272954
H54   H     H_    0.701805 0.028259 0.496059 0.254507
H55   H     H_    0.775183 0.078082 0.459514 0.251976
C98   C     C_3   0.596935 0.758297 0.449634 -0.390707
C99   C     C_3   0.595575 0.673396 0.455129 -0.393805
C100  C     C_3   0.529724 0.643984 0.382368 -0.849519
H56   H     H_    0.480969 0.664036 0.407070 0.263925
H57   H     H_    0.529089 0.662531 0.297179 0.262842
H58   H     H_    0.530114 0.582374 0.388631 0.257793
H59   H     H_    0.642882 0.650678 0.429894 0.239406
H60   H     H_    0.595296 0.653670 0.539597 0.232267
H61   H     H_    0.547286 0.775505 0.474739 0.181670
H62   H     H_    0.590592 0.781743 0.366150 0.221695
C101  C     C_3   0.104196 0.728022 0.398902 -0.399166
C102  C     C_3   0.140736 0.699315 0.310511 -0.258696
C103  C     C_3   0.094076 0.710645 0.199431 -0.932829
H63   H     H_    0.046194 0.675391 0.194345 0.270325
H64   H     H_    0.078254 0.769825 0.183295 0.262223
H65   H     H_    0.123710 0.694546 0.136916 0.256591
H66   H     H_    0.192078 0.726779 0.308925 0.227350
H67   H     H_    0.152542 0.639602 0.326393 0.262697
H68   H     H_    0.053363 0.698250 0.395918 0.193000
H69   H     H_    0.083320 0.784547 0.379394 0.177236
C104  C     C_3   0.100193 0.265282 0.428747 -0.411805
C105  C     C_3   0.096558 0.180610 0.424576 -0.371043
C106  C     C_3   0.034531 0.156536 0.339229 -0.872073
H70   H     H_    0.983649 0.175970 0.357633 0.270994
H71   H     H_    0.040363 0.179524 0.258360 0.264037
H72   H     H_    0.033361 0.095036 0.338099 0.254920
H73   H     H_    0.146035 0.157825 0.406146 0.235887
H74   H     H_    0.089155 0.157059 0.504364 0.226902
H75   H     H_    0.048648 0.282158 0.447961 0.184023
H76   H     H_    0.099558 0.292593 0.348636 0.204910
C107  C     C_3   0.332859 0.873368 0.200421 -0.420434
C108  C     C_3   0.305078 0.806423 0.134473 -0.350152
C109  C     C_3   0.333170 0.805606 0.029774 -0.872816
H77   H     H_    0.311006 0.853147 0.975594 0.261898
H78   H     H_    0.391927 0.808441 0.045761 0.273313
H79   H     H_    0.316468 0.753628 0.988796 0.242931
H80   H     H_    0.321937 0.754284 0.182905 0.231005
H81   H     H_    0.246224 0.807416 0.114775 0.225310
H82   H     H_    0.315210 0.926090 0.154420 0.181782
H83   H     H_    0.391402 0.871022 0.214594 0.232743
C110  C     C_3   0.378171 0.166681 0.204652 -0.376574
C111  C     C_3   0.361790 0.215350 0.099171 -0.382249
C112  C     C_3   0.412849 0.200472 0.024108 -0.878676
H84   H     H_    0.468728 0.205502 0.066231 0.267084
H85   H     H_    0.403478 0.144291 0.993491 0.271438
H86   H     H_    0.403268 0.241215 0.954239 0.243884
H87   H     H_    0.307329 0.203937 0.055354 0.220465
H88   H     H_    0.366059 0.274954 0.118046 0.243742
H89   H     H_    0.435554 0.173958 0.236856 0.231726
H90   H     H_    0.367770 0.107563 0.186441 0.197044
C113  C     C_3   0.901403 0.320702 0.231370 -0.377310
C114  C     C_3   0.892531 0.273636 0.131492 -0.423388
C115  C     C_3   0.944777 0.297333 0.059240 -0.829483
H91   H     H_    0.937266 0.356783 0.033231 0.276400
H92   H     H_    0.000115 0.288416 0.102824 0.259834
H93   H     H_    0.935859 0.263920 0.986583 0.251064
H94   H     H_    0.902072 0.214089 0.156703 0.239761
H95   H     H_    0.838004 0.280507 0.083665 0.220857
H96   H     H_    0.884844 0.378454 0.203806 0.211067
H97   H     H_    0.958839 0.319626 0.267153 0.230089
C116  C     C_3   0.870253 0.662701 0.203437 -0.387458
C117  C     C_3   0.847670 0.709401 0.096986 -0.372187
C118  C     C_3   0.900799 0.704196 0.022384 -0.883461
H98   H     H_    0.952202 0.728854 0.059002 0.263722
H99   H     H_    0.908785 0.645657 0.005922 0.277923
H100  H     H_    0.880329 0.735170 0.944881 0.245533
H101  H     H_    0.795569 0.689617 0.053915 0.223799
H102  H     H_    0.843043 0.768871 0.114031 0.243115
H103  H     H_    0.927175 0.674567 0.232811 0.225343
H104  H     H_    0.863896 0.602864 0.187317 0.195987
N7    N     N_R   0.679728 0.982566 0.302667 0.182913
O21   O     O_R   0.674344 0.914423 0.337811 -0.421027
O22   O     O_R   0.743193 0.007958 0.302341 -0.470498
N8    N     N_R   0.177632 0.478708 0.316501 0.197947
O23   O     O_R   0.190541 0.511254 0.407251 -0.370984
O24   O     O_R   0.226182 0.435471 0.294266 -0.435162

loop_
_geom_bond_atom_site_label_1
_geom_bond_atom_site_label_2
_geom_bond_distance
_ccdc_geom_bond_type
C7    C16   1.478881 S    
C26   C30   1.401591 A    
C39   C43   1.427827 A    
C104  C105  1.531745 S    
C8    C15   1.460406 S    
C70   H34   1.081352 S    
C92   C93   1.540020 S    
C103  H64   1.110724 S    
C23   C27   1.381682 A    
C71   H31   1.075447 S    
C3    C64   1.490652 S    
C13   C53   1.400335 A    
C89   C90   1.540996 S    
O10   C6    1.328618 A    
O3    C3    1.325034 A    
C72   H32   1.076622 S    
C10   C58   1.374731 A    
C111  C112  1.524081 S    
C9    C57   1.400662 A    
C97   H50   1.110729 S    
Zn4   N4    2.077621 S    
C95   C96   1.534281 S    
C99   C100  1.526820 S    
O7    C3    1.332342 A    
C76   N4    1.373709 A    
C36   C64   1.415504 A    
C117  H102  1.112336 S    
Zn1   O10   1.965286 S    
C32   C36   1.416744 A    
C44   C46   1.388001 A    
H1    C57   1.082789 S    
C108  H80   1.112546 S    
C67   C69   1.392727 A    
C94   H42   1.111164 S    
C31   C37   1.409589 A    
N7    O21   1.296691 A    
C10   C42   1.387312 A    
Zn2   N2    2.090385 S    
C100  H57   1.111291 S    
C107  C108  1.537322 S    
C9    C41   1.402531 A    
N6    O19   1.302475 A    
C116  C117  1.544676 S    
C25   H15   1.074019 S    
C23   H19   1.080076 S    
C112  H86   1.110197 S    
C101  H68   1.107356 S    
C117  C118  1.523637 S    
C65   C87   1.390135 A    
C67   C89   1.522159 S    
C16   C60   1.395341 A    
O2    Zn1   1.970898 S    
C96   C97   1.526980 S    
C113  H96   1.111471 S    
C86   H30   1.074204 S    
C6    C13   1.463278 S    
C52   H24   1.082626 S    
O6    Zn3   1.965158 S    
C73   C77   1.406565 A    
Zn3   O14   1.970887 S    
C102  H67   1.103294 S    
N1    C87   1.372345 A    
C17   C107  1.510746 S    
C21   H17   1.083093 S    
N8    O24   1.300622 A    
C105  H73   1.108306 S    
C38   C42   1.427707 A    
C53   C95   1.521844 S    
C115  H91   1.108500 S    
C16   C56   1.410985 A    
C4    C63   1.494350 S    
C37   C41   1.406796 A    
C32   C38   1.428065 A    
O4    C4    1.324946 A    
C13   C57   1.409580 A    
C113  C114  1.540279 S    
C66   H28   1.084774 S    
Zn3   N3    2.077621 S    
C65   H27   1.084472 S    
C74   C78   1.408064 A    
C103  H65   1.110006 S    
H4    C60   1.048840 S    
C106  H71   1.110811 S    
C102  C103  1.523568 S    
C95   H54   1.103988 S    
O8    Zn4   1.965158 S    
C42   C48   1.388073 A    
C118  H98   1.109376 S    
C98   H62   1.103990 S    
C35   C63   1.429426 A    
C115  H92   1.110976 S    
C91   H36   1.110191 S    
C104  H75   1.112566 S    
C67   N3    1.396335 A    
C90   H39   1.111368 S    
C68   N4    1.395382 A    
O11   C7    1.321457 A    
C40   C56   1.432701 A    
C70   C72   1.364931 A    
C97   H51   1.110325 S    
N2    C88   1.369074 A    
C14   C58   1.394035 A    
C69   C71   1.364387 A    
C41   C47   1.390390 A    
C31   C35   1.408891 A    
C18   C110  1.528523 S    
C27   C31   1.404054 A    
C116  H103  1.110387 S    
C117  H101  1.111786 S    
C30   C34   1.414266 A    
C48   C52   1.373235 A    
C36   C52   1.407175 A    
O1    C1    1.322492 A    
Zn2   O12   1.965286 S    
C66   C88   1.384826 A    
C26   H16   1.068435 S    
C90   C91   1.525997 S    
C55   C101  1.537031 S    
C110  C111  1.543452 S    
N5    O18   1.302828 A    
C20   C116  1.525958 S    
C92   H47   1.079340 S    
N5    O17   1.300606 A    
N7    O22   1.301334 A    
C21   C25   1.389407 A    
C108  C109  1.524266 S    
C18   C62   1.429106 A    
C100  H58   1.110380 S    
O12   C8    1.329824 A    
C2    C61   1.462939 S    
C106  H70   1.111051 S    
H5    C45   1.084343 S    
C75   N3    1.372780 A    
C101  H69   1.097915 S    
C24   C28   1.386156 A    
C98   H61   1.112843 S    
C15   C55   1.416403 A    
C80   C82   1.382861 A    
C98   C99   1.530089 S    
C77   C79   1.410592 A    
O5    C1    1.335655 A    
C111  H88   1.112203 S    
C34   C50   1.407184 A    
C107  H83   1.106857 S    
C46   C50   1.372835 A    
C33   C49   1.407558 A    
H2    C58   1.056385 S    
C45   C49   1.380580 A    
O8    C4    1.333125 A    
O5    Zn3   1.914618 S    
C28   H14   1.065619 S    
N8    O23   1.297601 A    
C88   N8    1.434661 S    
C94   H43   1.111334 S    
C112  H84   1.110833 S    
C12   H12   1.085271 S    
C94   H44   1.106407 S    
C30   C40   1.424546 A    
C40   C44   1.426779 A    
H8    C48   1.084460 S    
C114  H95   1.111610 S    
C35   C51   1.421862 A    
H26   C82   1.085503 S    
C89   H41   1.110697 S    
C43   C45   1.392735 A    
C24   H20   1.080436 S    
Zn1   N1    2.090385 S    
O3    Zn2   1.973293 S    
C11   H11   1.084199 S    
C93   H45   1.107951 S    
C39   C55   1.431920 A    
C91   H37   1.106205 S    
H25   C81   1.085482 S    
O7    Zn4   1.914618 S    
C95   H55   1.103181 S    
C101  C102  1.541383 S    
Zn4   O15   1.973282 S    
O15   C7    1.331387 A    
C118  H99   1.103962 S    
C65   C79   1.385804 A    
C93   C94   1.528035 S    
C27   H13   1.082891 S    
C115  H93   1.110448 S    
C99   H60   1.111340 S    
C104  H76   1.103504 S    
C109  H79   1.110230 S    
C83   N5    1.411421 S    
O1    Zn1   1.973293 S    
C114  C115  1.527417 S    
C72   C74   1.398492 A    
C38   C54   1.433663 A    
C96   H53   1.107642 S    
C11   C43   1.386919 A    
C110  H89   1.110963 S    
C37   C53   1.392299 A    
C110  H90   1.111139 S    
C74   C76   1.422244 A    
C22   C26   1.386094 A    
C106  H72   1.110336 S    
C75   C83   1.399773 A    
C49   H21   1.083734 S    
O13   C5    1.327805 A    
C116  H104  1.110195 S    
C9    H9    1.083368 S    
C99   H59   1.107469 S    
C15   C59   1.401373 A    
Zn2   O11   1.914745 S    
C22   H18   1.079566 S    
O16   C8    1.313160 A    
C77   C85   1.404115 A    
C81   C83   1.387487 A    
C78   C80   1.412097 A    
C92   H48   1.106413 S    
C12   C44   1.384400 A    
C25   C29   1.408410 A    
N2    C86   1.341813 A    
C93   H46   1.112200 S    
C89   H40   1.078834 S    
C69   H33   1.081074 S    
H6    C46   1.084416 S    
C66   C80   1.389951 A    
C11   C59   1.375588 A    
Zn1   O9    1.914745 S    
C28   C32   1.404246 A    
C107  H82   1.110811 S    
Zn4   O16   1.970887 S    
C78   C86   1.399138 A    
O9    C5    1.320194 A    
C18   C22   1.406444 A    
C97   H49   1.110063 S    
C108  H81   1.112048 S    
C111  H87   1.111471 S    
C79   C81   1.386842 A    
C47   C51   1.395149 A    
C29   C39   1.413525 A    
C100  H56   1.111430 S    
C54   C98   1.534246 S    
Zn3   O13   1.973282 S    
N1    C85   1.346283 A    
C17   C21   1.396770 A    
C1    C62   1.492861 S    
C5    C14   1.470323 S    
C33   C61   1.403571 A    
C112  H85   1.104561 S    
C51   H23   1.079453 S    
C20   C64   1.424303 A    
C19   C23   1.403392 A    
C114  H94   1.111879 S    
C50   H22   1.082330 S    
C56   C104  1.535715 S    
O4    Zn2   1.970898 S    
C68   C70   1.392992 A    
C71   C73   1.394853 A    
C109  H78   1.110929 S    
C73   C75   1.424144 A    
O6    C2    1.329770 A    
C12   C60   1.373929 A    
O14   C6    1.315832 A    
C103  H63   1.109024 S    
C102  H66   1.104767 S    
C29   C33   1.409258 A    
C113  H97   1.111644 S    
C85   H29   1.075241 S    
C19   C113  1.530802 S    
C105  C106  1.526554 S    
C76   C84   1.401532 A    
C82   C84   1.386158 A    
C109  H77   1.106350 S    
C84   N6    1.406624 S    
C118  H100  1.110247 S    
C105  H74   1.110216 S    
C34   C62   1.414056 A    
C10   H10   1.084851 S    
C68   C92   1.521667 S    
C19   C63   1.437378 A    
N6    O20   1.303639 A    
C17   C61   1.413480 A    
C90   H38   1.108007 S    
C91   H35   1.111216 S    
C96   H52   1.111838 S    
C87   N7    1.433488 S    
C20   C24   1.404041 A    
H3    C59   1.077751 S    
H7    C47   1.083853 S    
C14   C54   1.409598 A    
O2    C2    1.314198 A    
