data_mof_unit_57147.cif
_audit_creation_date              2012-12-11T15:55:47-0500
_audit_creation_method            fapswitch 2.2
_symmetry_space_group_name_H-M    P1
_symmetry_Int_Tables_number       1
_space_group_crystal_system       triclinic
_cell_length_a                    6.962386
_cell_length_b                    14.586064
_cell_length_c                    16.167907
_cell_angle_alpha                 89.967816
_cell_angle_beta                  89.882937
_cell_angle_gamma                 90.396429
_cell_volume                      1641.86951964

loop_
_atom_site_label
_atom_site_type_symbol
_atom_type_description
_atom_site_fract_x
_atom_site_fract_y
_atom_site_fract_z
_atom_type_partial_charge
O1    O     O_R   0.505680 0.583900 0.413320 -0.538874
O2    O     O_R   0.176010 0.594950 0.586080 -0.555314
O3    O     O_R   0.005680 0.416100 0.586680 -0.526197
C1    C     C_R   0.345924 0.618786 0.613504 0.653353
O4    O     O_R   0.175960 0.594930 0.413930 -0.541935
O5    O     O_R   0.005640 0.416080 0.413300 -0.514731
C2    C     C_R   0.346757 0.619193 0.386534 0.715450
O6    O     O_R   0.505720 0.583920 0.586700 -0.547565
O7    O     O_3   0.339190 0.441320 0.500000 -0.345054
V1    V     V_3+5 0.064350 0.510890 0.500000 1.432329
O8    O     O_R   0.675920 0.405050 0.413920 -0.530798
C3    C     C_R   0.844556 0.385681 0.383018 0.759018
O9    O     O_R   0.675960 0.405070 0.586070 -0.549984
C4    C     C_R   0.844628 0.382545 0.614586 0.725166
V2    V     V_3+5 0.564340 0.489110 0.500000 1.448754
O10   O     O_3   0.839370 0.558680 0.500000 -0.387277
C5    C     C_R   0.009930 0.313850 0.738589 0.033745
C6    C     C_R   0.854469 0.315304 0.684125 -0.098367
C7    C     C_R   0.714122 0.247362 0.695525 -0.168502
H1    H     H_    0.603727 0.240414 0.650639 0.173901
C8    C     C_R   0.720905 0.185343 0.762146 -0.138978
H2    H     H_    0.607527 0.134698 0.768213 0.142621
C9    C     C_R   0.878039 0.184775 0.816844 -0.097683
C10   C     C_R   0.021615 0.250684 0.803816 0.065829
C11   C     C_3   0.229732 0.234303 0.789497 -0.034916
C12   C     C_3   0.216543 0.301736 0.717032 0.118536
H3    H     H_    0.256498 0.162473 0.769868 0.117245
C13   C     C_R   0.030741 0.256823 0.192588 0.151948
C14   C     C_R   0.010220 0.325501 0.253845 0.137064
C15   C     C_R   0.856506 0.321054 0.311439 -0.121588
C16   C     C_R   0.714805 0.253173 0.300743 -0.139988
H4    H     H_    0.594050 0.248807 0.342948 0.154781
C17   C     C_R   0.726907 0.189527 0.236148 -0.145389
H5    H     H_    0.614038 0.138475 0.230286 0.143040
C18   C     C_R   0.884437 0.189166 0.181534 -0.127692
C19   C     C_R   0.200907 0.745682 0.697743 -0.166074
H6    H     H_    0.071771 0.735412 0.662019 0.115135
C20   C     C_R   0.210561 0.815391 0.758680 0.093859
C21   C     C_R   0.377112 0.821702 0.809982 -0.079883
C22   C     C_R   0.536051 0.766826 0.790006 -0.174732
H7    H     H_    0.666903 0.771453 0.825804 0.131877
C23   C     C_R   0.529655 0.705042 0.723796 -0.167761
H8    H     H_    0.657007 0.665734 0.709748 0.119403
C24   C     C_R   0.358960 0.690366 0.679475 -0.052007
C25   C     C_R   0.201297 0.703381 0.266809 -0.153613
H9    H     H_    0.069375 0.665452 0.277172 0.136003
C26   C     C_R   0.208329 0.766007 0.200995 -0.152301
H10   H     H_    0.080881 0.775837 0.163819 0.126380
C27   C     C_R   0.378495 0.814086 0.182573 -0.066887
C28   C     C_R   0.539844 0.798984 0.231811 -0.166456
H11   H     H_    0.669985 0.837726 0.219044 0.113051
C29   C     C_R   0.534398 0.738793 0.299835 0.088800
C30   C     C_R   0.362058 0.688417 0.317781 -0.058523
O11   O     O_R   0.229200 0.915950 0.913350 -0.550975
O12   O     O_R   0.559090 0.905000 0.086080 -0.547099
O13   O     O_R   0.729280 0.083880 0.086680 -0.530056
C31   C     C_R   0.389306 0.882101 0.114053 0.689620
O14   O     O_R   0.558920 0.904980 0.913920 -0.548526
O15   O     O_R   0.729110 0.083860 0.913300 -0.530171
C32   C     C_R   0.389692 0.885756 0.882683 0.658482
O16   O     O_R   0.229360 0.915970 0.086730 -0.544237
O17   O     O_3   0.395680 0.058580 0.000030 -0.333099
V3    V     V_3+5 0.670570 0.989070 0.999990 1.444998
O18   O     O_R   0.058820 0.094950 0.913870 -0.532779
C33   C     C_R   0.890245 0.116226 0.884648 0.727557
O19   O     O_R   0.058990 0.094970 0.086020 -0.523089
C34   C     C_R   0.891146 0.118440 0.114115 0.741881
V4    V     V_3+5 0.170560 0.010930 0.999930 1.482317
O20   O     O_3   0.895590 0.941310 0.999960 -0.387856
C35   C     C_3   0.049598 0.885410 0.766042 -0.335949
C36   C     C_3   0.923014 0.893836 0.689158 -0.374323
C37   C     C_3   0.790778 0.976057 0.694087 -0.746876
H12   H     H_    0.705701 0.973997 0.752243 0.222644
H13   H     H_    0.878430 0.039722 0.691116 0.241862
H14   H     H_    0.690447 0.975476 0.640792 0.229449
H15   H     H_    0.017041 0.902371 0.633999 0.214497
H16   H     H_    0.832251 0.831515 0.682754 0.204680
H17   H     H_    0.958010 0.868197 0.820272 0.183061
H18   H     H_    0.115870 0.954191 0.775615 0.178522
C38   C     C_3   0.710979 0.738278 0.354315 -0.354254
C39   C     C_3   0.669868 0.787529 0.435818 -0.289316
C40   C     C_3   0.853253 0.803313 0.484560 -0.772409
H19   H     H_    0.916226 0.737288 0.504608 0.243273
H20   H     H_    0.960336 0.842543 0.447496 0.225131
H21   H     H_    0.815017 0.844156 0.539268 0.215256
H22   H     H_    0.604285 0.855360 0.422762 0.192494
H23   H     H_    0.567507 0.747306 0.474355 0.186321
H24   H     H_    0.766216 0.668145 0.364079 0.202744
H25   H     H_    0.830994 0.775401 0.323203 0.160162
I1    I     I_    0.393194 0.271181 0.896999 -0.362438
I2    I     I_    0.239257 0.230155 0.598758 -0.476712
C41   C     C_3   0.336547 0.391490 0.724133 -0.292386
C42   C     C_3   0.259511 0.464431 0.785270 -0.320067
C43   C     C_3   0.423025 0.517617 0.826486 -0.710674
H26   H     H_    0.536520 0.534610 0.780802 0.211591
H27   H     H_    0.366907 0.581561 0.854528 0.226854
H28   H     H_    0.489101 0.475854 0.876071 0.259052
H29   H     H_    0.165936 0.512885 0.751181 0.176448
H30   H     H_    0.170947 0.433577 0.835284 0.229990
H31   H     H_    0.485008 0.373539 0.741159 0.200825
H32   H     H_    0.345347 0.423590 0.662210 0.202849
I3    I     I_    0.290046 0.258260 0.121062 -0.284305
I4    I     I_    0.198405 0.442877 0.250085 -0.353188

loop_
_geom_bond_atom_site_label_1
_geom_bond_atom_site_label_2
_ccdc_geom_bond_type
O19   V4    S    
C20   C35   S    
C42   C43   S    
C35   H17   S    
C4    C6    S    
C7    H1    S    
C1    O6    A    
C39   C40   S    
C26   C27   A    
O13   C34   A    
O11   C32   A    
C25   H9    S    
C11   I1    S    
O17   V3    S    
C5    C12   S    
O18   V4    S    
C13   C14   A    
C7    C8    A    
O5    C3    A    
C15   C16   A    
O11   V4    S    
C12   C41   S    
V2    O10   S    
C27   C31   S    
C14   I4    S    
C6    C7    A    
C38   H25   S    
O8    V2    S    
V3    O20   S    
C13   C18   A    
V4    O20   S    
O12   V3    S    
C28   C29   A    
C9    C10   A    
C16   C17   A    
C35   C36   S    
O1    V2    S    
O7    V1    S    
C42   H30   S    
C39   H22   S    
C22   C23   A    
O19   C34   A    
C25   C30   A    
O9    C4    A    
C23   C24   A    
C37   H14   S    
C17   H5    S    
C25   C26   A    
C8    C9    A    
C20   C21   A    
C5    C10   A    
C10   C11   S    
C37   H13   S    
C21   C22   A    
O4    C2    A    
C38   C39   S    
C1    C24   S    
C43   H28   S    
C28   H11   S    
C12   I2    S    
O2    C1    A    
C14   C15   A    
C26   H10   S    
C18   C34   S    
C5    C6    A    
O13   V3    S    
C43   H27   S    
C39   H23   S    
O3    C4    A    
C41   H32   S    
C22   H7    S    
C40   H19   S    
O6    V2    S    
C40   H20   S    
O9    V2    S    
C19   C24   A    
C23   H8    S    
C2    C30   S    
O2    V1    S    
C36   H16   S    
C29   C30   A    
C41   H31   S    
O14   V3    S    
C19   H6    S    
C3    C15   S    
C35   H18   S    
O1    C2    A    
C29   C38   S    
C16   H4    S    
C37   H12   S    
O5    V1    S    
O8    C3    A    
C31   O16   A    
C11   H3    S    
C40   H21   S    
O15   V3    S    
O17   V4    S    
O18   C33   A    
C9    C33   S    
O12   C31   A    
C11   C12   S    
C36   C37   S    
C38   H24   S    
O3    V1    S    
V1    O10   S    
O15   C33   A    
O16   V4    S    
C36   H15   S    
C21   C32   S    
C19   C20   A    
C41   C42   S    
C17   C18   A    
O7    V2    S    
C43   H26   S    
C13   I3    S    
O4    V1    S    
C27   C28   A    
C8    H2    S    
O14   C32   A    
C42   H29   S    
