data_mof_unit_7108.cif
_audit_creation_date              2012-12-10T16:50:56-0500
_audit_creation_method            fapswitch 2.2
_symmetry_space_group_name_H-M    P1
_symmetry_Int_Tables_number       1
_space_group_crystal_system       triclinic
_cell_length_a                    7.890694
_cell_length_b                    8.558628
_cell_length_c                    10.60694
_cell_angle_alpha                 91.309927
_cell_angle_beta                  87.516021
_cell_angle_gamma                 93.220202
_cell_volume                      714.371040786

loop_
_atom_site_label
_atom_site_type_symbol
_atom_type_description
_atom_site_fract_x
_atom_site_fract_y
_atom_site_fract_z
_atom_type_partial_charge
C1    C     C_R   0.544743 0.793988 0.497294 0.935698
C2    C     C_R   0.970762 0.623912 0.074572 -0.124055
C3    C     C_R   0.099257 0.744119 0.072928 -0.145594
C4    C     C_R   0.986994 0.604683 0.943253 -0.142600
C5    C     C_R   0.243356 0.706159 0.135767 -0.210144
C6    C     C_R   0.839523 0.600371 0.873109 -0.218359
C7    C     C_R   0.370998 0.626888 0.070016 0.066175
C8    C     C_R   0.677522 0.579829 0.934199 0.075919
C9    C     C_R   0.379202 0.630101 0.937407 0.030956
C10   C     C_R   0.667512 0.591121 0.066432 0.029258
C11   C     C_R   0.508924 0.574486 0.130778 -0.214254
C12   C     C_R   0.454885 0.206072 0.499233 0.986529
C13   C     C_R   0.523360 0.573961 0.870921 -0.218003
C14   C     C_1   0.332038 0.850374 0.805931 0.143071
C15   C     C_1   0.788822 0.788513 0.210805 0.169189
C16   C     C_2   0.567625 0.957903 0.497852 -0.307603
C17   C     C_2   0.431679 0.042370 0.490105 -0.361664
C18   C     C_R   0.507902 0.521486 0.739032 0.887276
C19   C     C_R   0.500381 0.521258 0.261437 0.875469
C20   C     C_R   0.261960 0.720329 0.878869 0.034925
C21   C     C_R   0.810119 0.653212 0.128110 0.028636
C22   C     C_R   0.101451 0.737401 0.939127 -0.155031
H1    H     H_    0.048018 0.497867 0.913401 0.178936
H2    H     H_    0.991076 0.627170 0.586485 0.177908
H3    H     H_    0.064168 0.857339 0.110485 0.159374
H4    H     H_    0.042377 0.837957 0.901223 0.153276
H5    H     H_    0.002457 0.516798 0.120190 0.162116
H6    H     H_    0.253866 0.741311 0.234004 0.174367
H7    H     H_    0.855117 0.624524 0.774318 0.170204
H8    H     H_    0.695883 0.008680 0.508262 0.183329
H9    H     H_    0.303188 0.991537 0.480964 0.175138
H10   H     H_    0.010188 0.376893 0.409525 0.193284
N1    N     N_2   0.950330 0.457950 0.466250 -0.179780
N2    N     N_2   0.049670 0.542050 0.533750 -0.181574
N3    N     N_1   0.388222 0.958645 0.752596 -0.218586
N4    N     N_1   0.776355 0.900923 0.272020 -0.233601
O1    O     O_R   0.389250 0.738570 0.508280 -0.624884
O2    O     O_R   0.610750 0.261430 0.491720 -0.603871
O3    O     O_R   0.678390 0.711630 0.486650 -0.633456
O4    O     O_R   0.321610 0.288370 0.513350 -0.619191
O5    O     O_R   0.355430 0.513480 0.694040 -0.608144
O6    O     O_R   0.644570 0.486520 0.305960 -0.612999
O7    O     O_R   0.644570 0.486540 0.672410 -0.626676
O8    O     O_R   0.355430 0.513460 0.327590 -0.632574
Zn1   Zn    Zn3+2 0.306940 0.517990 0.514440 0.937792
Zn2   Zn    Zn3+2 0.693060 0.482010 0.485560 0.943816

loop_
_geom_bond_atom_site_label_1
_geom_bond_atom_site_label_2
_ccdc_geom_bond_type
C12   C17   S    
C12   O4    A    
C2    C4    A    
C5    C7    A    
C8    C13   A    
C5    H6    S    
C4    C22   A    
C9    C20   A    
C19   O6    A    
C1    O1    A    
H10   N1    S    
C2    C21   A    
C2    C3    A    
N2    Zn1   S    
C18   O7    A    
C19   O8    A    
C7    C11   A    
N1    Zn2   S    
C11   C19   S    
C2    H5    S    
C15   C21   S    
O6    Zn2   S    
C13   C18   S    
O3    Zn2   S    
C6    C8    A    
C4    C6    A    
C20   C22   A    
N1    N2    D    
C7    C9    A    
C10   C21   A    
C12   O2    A    
O4    Zn1   S    
C17   H9    S    
O7    Zn2   S    
O2    Zn2   S    
C10   C11   A    
C1    O3    A    
O1    Zn1   S    
C14   C20   S    
C15   N4    T    
C3    H3    S    
C6    H7    S    
O8    Zn1   S    
C8    C10   A    
C22   H4    S    
C18   O5    A    
C14   N3    T    
C1    C16   S    
C4    H1    S    
C9    C13   A    
C3    C22   A    
O5    Zn1   S    
C16   H8    S    
H2    N2    S    
C16   C17   D    
C3    C5    A    
