data_mof_unit_6167.cif
_audit_creation_date              2013-03-05T16:01:27-0500
_audit_creation_method            fapswitch 2.2
_symmetry_space_group_name_H-M    P1
_symmetry_Int_Tables_number       1
_space_group_crystal_system       triclinic
_cell_length_a                    14.86238
_cell_length_b                    14.871508
_cell_length_c                    19.309229
_cell_angle_alpha                 74.011691
_cell_angle_beta                  101.748205
_cell_angle_gamma                 115.572779
_cell_volume                      3683.13467994

loop_
_atom_site_label
_atom_site_type_symbol
_atom_site_description
_atom_site_fract_x
_atom_site_fract_y
_atom_site_fract_z
_atom_type_partial_charge
O1    O     O_R   0.977910 0.338110 0.524620 -0.586595
O2    O     O_R   0.022090 0.661890 0.475380 -0.586259
O3    O     O_R   0.839850 0.379180 0.493080 -0.582101
O4    O     O_R   0.160150 0.620820 0.506920 -0.588744
C1    C     C_R   0.880477 0.312294 0.510131 0.826686
C2    C     C_R   0.119341 0.687524 0.490285 0.812585
O5    O     O_R   0.069040 0.479450 0.615630 -0.587397
O6    O     O_R   0.930960 0.520550 0.384370 -0.610757
O7    O     O_R   0.930990 0.520520 0.584090 -0.521307
O8    O     O_R   0.069010 0.479480 0.415910 -0.522344
C3    C     C_R   0.001728 0.504028 0.631752 0.831178
C4    C     C_R   0.999293 0.497814 0.368016 0.822296
Cu1   Cu    Cu3+1 0.081740 0.475680 0.518680 0.989265
Cu2   Cu    Cu3+1 0.918260 0.524320 0.481320 0.988608
C5    C     C_R   0.047666 0.455890 0.762797 -0.232808
C6    C     C_R   0.960937 0.557019 0.237523 -0.231357
H1    H     H_    0.083748 0.414421 0.749408 0.197707
H2    H     H_    0.931612 0.603430 0.252405 0.185498
C7    C     C_R   0.044162 0.450787 0.835440 -0.027814
C8    C     C_R   0.962472 0.562916 0.164380 -0.030499
C9    C     C_R   0.995433 0.503882 0.852973 -0.045546
C10   C     C_R   0.003624 0.504172 0.145263 -0.048267
C11   C     C_R   0.951943 0.562693 0.797596 0.071726
C12   C     C_R   0.042585 0.440173 0.199425 0.077300
C13   C     C_R   0.958279 0.568082 0.724135 0.004272
C14   C     C_R   0.039638 0.435324 0.273290 0.009479
C15   C     C_R   0.003255 0.510797 0.707123 -0.141326
C16   C     C_R   0.999473 0.495345 0.292026 -0.141599
N1    N     N_R   0.914445 0.445685 0.964844 -0.201977
N2    N     N_R   0.083590 0.563706 0.033069 -0.194996
N3    N     N_R   0.916410 0.445979 0.033945 -0.213550
N4    N     N_R   0.081549 0.563474 0.963950 -0.209246
C17   C     C_R   0.001043 0.504906 0.069006 0.466383
C18   C     C_R   0.996899 0.504570 0.928851 0.461033
C19   C     C_R   0.811965 0.204132 0.512475 -0.070869
C20   C     C_R   0.187141 0.795516 0.488358 -0.072223
C21   C     C_R   0.780549 0.024752 0.531193 -0.019411
C22   C     C_R   0.217758 0.975169 0.463185 -0.022962
C23   C     C_R   0.847255 0.127200 0.525807 -0.191631
C24   C     C_R   0.151446 0.872656 0.468455 -0.199853
C25   C     C_R   0.708838 0.178760 0.498632 -0.234374
C26   C     C_R   0.289408 0.820684 0.508394 -0.201817
C27   C     C_R   0.638872 0.077238 0.504331 0.077152
C28   C     C_R   0.359702 0.922404 0.498872 0.077487
C29   C     C_R   0.675813 0.999073 0.525301 0.075498
C30   C     C_R   0.322785 0.000686 0.473440 0.070788
C31   C     C_R   0.533254 0.051635 0.492718 0.065880
C32   C     C_R   0.465439 0.947902 0.510671 0.076384
C33   C     C_R   0.505811 0.873110 0.538826 -0.163720
C34   C     C_R   0.493364 0.126349 0.462384 -0.192845
C35   C     C_R   0.607832 0.897794 0.543759 -0.156410
C36   C     C_R   0.391166 0.101774 0.454691 -0.149168
H3    H     H_    0.633060 0.836473 0.565839 0.180865
H4    H     H_    0.366262 0.162867 0.429970 0.183933
H5    H     H_    0.312293 0.758652 0.529801 0.188938
H6    H     H_    0.684535 0.239924 0.485952 0.185861
H7    H     H_    0.071689 0.852803 0.458902 0.191428
H8    H     H_    0.926633 0.146624 0.530208 0.180611
H9    H     H_    0.461130 0.793875 0.558516 0.176355
H10   H     H_    0.538981 0.204989 0.441310 0.180997
N5    N     N_R   0.795420 0.560800 0.453240 -0.230571
N6    N     N_R   0.204580 0.439200 0.546760 -0.226217
C37   C     C_R   0.698994 0.639016 0.361780 -0.216601
C38   C     C_R   0.302231 0.365385 0.640102 -0.227899
C39   C     C_R   0.790358 0.631767 0.390494 0.330661
C40   C     C_R   0.208883 0.363594 0.606160 0.320417
C41   C     C_R   0.713163 0.509885 0.493474 0.083270
C42   C     C_R   0.289024 0.496475 0.509424 0.080219
C43   C     C_R   0.627125 0.534506 0.472236 -0.064581
C44   C     C_R   0.377370 0.476400 0.532275 -0.078469
C45   C     C_R   0.615080 0.585462 0.400086 0.034169
C46   C     C_R   0.388589 0.425246 0.604437 0.041605
C47   C     C_R   0.549451 0.504095 0.517964 0.094306
C48   C     C_R   0.455750 0.508308 0.487159 0.080369
C49   C     C_R   0.440343 0.536716 0.411441 -0.221106
C50   C     C_R   0.564225 0.474375 0.593767 -0.225568
C51   C     C_R   0.519402 0.581074 0.368135 -0.003355
C52   C     C_R   0.484393 0.430168 0.636881 -0.001598
H11   H     H_    0.695059 0.689517 0.309872 0.183345
H12   H     H_    0.304805 0.310096 0.689693 0.181771
H13   H     H_    0.365855 0.522313 0.384696 0.206962
H14   H     H_    0.638438 0.485807 0.620388 0.201910
C53   C     C_2   0.496612 0.613757 0.288909 0.848989
O9    O     O_2   0.434953 0.651766 0.266710 -0.558579
O10   O     O_R   0.542124 0.597296 0.239631 -0.758031
H15   H     H_    0.519420 0.621855 0.187444 0.348946
C54   C     C_2   0.505363 0.395343 0.716060 0.832067
O11   O     O_2   0.570211 0.361588 0.738603 -0.573244
O12   O     O_R   0.453768 0.404375 0.765068 -0.753634
H16   H     H_    0.475735 0.379127 0.817301 0.346636
C55   C     C_2   0.299205 0.592509 0.455415 0.886135
O13   O     O_2   0.366983 0.672303 0.466746 -0.632616
O14   O     O_R   0.242446 0.591795 0.388365 -0.725491
H17   H     H_    0.260294 0.662379 0.356029 0.338321
C56   C     C_2   0.699148 0.412326 0.546668 0.865868
O15   O     O_2   0.755575 0.408676 0.601795 -0.560412
O16   O     O_R   0.611939 0.325996 0.537547 -0.795082
H18   H     H_    0.606024 0.265261 0.579109 0.342483
C57   C     C_3   0.120789 0.263111 0.624501 -0.364491
C58   C     C_3   0.064698 0.255624 0.685032 -0.760886
H19   H     H_    0.118338 0.282869 0.731427 0.259995
H20   H     H_    0.016595 0.298781 0.665642 0.261621
H21   H     H_    0.014691 0.174632 0.704150 0.244014
H22   H     H_    0.071573 0.244394 0.575373 0.221916
H23   H     H_    0.147908 0.200463 0.642485 0.194433
C59   C     C_3   0.877661 0.702054 0.346337 -0.408975
C60   C     C_3   0.905938 0.813566 0.347357 -0.780944
H24   H     H_    0.912136 0.822572 0.403549 0.267079
H25   H     H_    0.978851 0.862244 0.324539 0.258853
H26   H     H_    0.848414 0.840448 0.314114 0.258061
H27   H     H_    0.944801 0.686317 0.363530 0.250417
H28   H     H_    0.856043 0.692668 0.289356 0.208650
C61   C     C_2   0.091198 0.387617 0.891126 0.862542
O17   O     O_2   0.064889 0.352886 0.952368 -0.583362
O18   O     O_R   0.164763 0.365746 0.872650 -0.758699
H29   H     H_    0.190532 0.321668 0.914488 0.347686
C62   C     C_2   0.920658 0.631951 0.110006 0.862786
O19   O     O_2   0.943796 0.663093 0.047904 -0.582796
O20   O     O_R   0.855506 0.663167 0.130628 -0.763609
H30   H     H_    0.832541 0.710296 0.089493 0.347347
C63   C     C_3   0.902980 0.622915 0.817079 -0.399830
C64   C     C_3   0.791450 0.559247 0.825061 -0.662838
H31   H     H_    0.751662 0.532594 0.774677 0.293705
H32   H     H_    0.780325 0.491597 0.870070 0.262518
H33   H     H_    0.757460 0.606172 0.836848 0.237881
H34   H     H_    0.940122 0.649296 0.868060 0.225371
H35   H     H_    0.912151 0.694288 0.775937 0.220907
C65   C     C_3   0.081327 0.372451 0.178396 -0.404196
C66   C     C_3   0.999083 0.266208 0.177597 -0.732799
H36   H     H_    0.972389 0.228279 0.232081 0.264264
H37   H     H_    0.934875 0.271213 0.138027 0.267759
H38   H     H_    0.028952 0.218881 0.161614 0.257980
H39   H     H_    0.110294 0.405574 0.124474 0.235341
H40   H     H_    0.146577 0.365977 0.215724 0.243346
C67   C     C_2   0.924671 0.639000 0.665564 0.879996
O21   O     O_2   0.984954 0.707954 0.625839 -0.591910
O22   O     O_R   0.824409 0.626113 0.655226 -0.769151
H41   H     H_    0.810690 0.678215 0.613042 0.328545
C68   C     C_2   0.074870 0.364695 0.330562 0.886750
O23   O     O_2   0.014913 0.291441 0.368069 -0.604020
O24   O     O_R   0.176896 0.384072 0.342878 -0.751920
H42   H     H_    0.192183 0.332220 0.384418 0.324817
C69   C     C_2   0.822947 0.947741 0.539888 0.842230
O25   O     O_2   0.902326 0.956537 0.576998 -0.576426
O26   O     O_R   0.774824 0.868034 0.502784 -0.759875
H43   H     H_    0.812774 0.822813 0.511058 0.331797
C70   C     C_2   0.174474 0.052532 0.449310 0.848608
O27   O     O_2   0.097798 0.043335 0.408539 -0.582447
O28   O     O_R   0.218322 0.132947 0.485824 -0.761955
H44   H     H_    0.179393 0.177739 0.474447 0.332092

loop_
_geom_bond_atom_site_label_1
_geom_bond_atom_site_label_2
_geom_bond_distance
_ccdc_geom_bond_type
C52   C54   1.487263 S    
C6    C16   1.397536 A    
C22   C24   1.401467 A    
C54   O11   1.223445 D    
C37   C39   1.396333 A    
O14   H17   1.013940 S    
C56   O15   1.217904 D    
C38   H12   1.083042 S    
C47   C48   1.419356 A    
C20   C26   1.396116 A    
C70   O27   1.223343 D    
C65   C66   1.526173 S    
O16   H18   1.014130 S    
C67   O21   1.223124 D    
C11   C63   1.527381 S    
C37   H11   1.082332 S    
O10   H15   1.013841 S    
C5    C7    1.394160 A    
C4    C16   1.478430 S    
O1    C1    1.317893 A    
C7    C9    1.415410 A    
C50   C52   1.400122 A    
C63   H35   1.109499 S    
C62   O20   1.399514 S    
C59   C60   1.529727 S    
C29   C35   1.397690 A    
C69   O25   1.223352 D    
C30   C36   1.398197 A    
C42   C55   1.485724 S    
C69   O26   1.398988 S    
O4    Cu1   1.932548 S    
C43   C45   1.407540 A    
C46   C52   1.413244 A    
C5    C15   1.396731 A    
Cu1   N6    2.052168 S    
C31   C32   1.421693 A    
C28   C30   1.422774 A    
C33   C35   1.386657 A    
C44   C48   1.431575 A    
C34   C36   1.386174 A    
C60   H24   1.110135 S    
N3    C17   1.355317 A    
C43   C47   1.435704 A    
C6    C8    1.395003 A    
C66   H38   1.110349 S    
C11   C13   1.418653 A    
C57   H22   1.095229 S    
Cu1   Cu2   2.731878 S    
C41   C56   1.486150 S    
C25   C27   1.404475 A    
O2    C2    1.316293 A    
C26   C28   1.405081 A    
O2    Cu2   1.948674 S    
C8    C62   1.494613 S    
C36   H4    1.081564 S    
O26   H43   1.013668 S    
C31   C34   1.413469 A    
C59   H27   1.088402 S    
C57   H23   1.113547 S    
C68   O23   1.222893 D    
C48   C49   1.405513 A    
N6    C40   1.380445 A    
C62   O19   1.222769 D    
C20   C24   1.394524 A    
O4    C2    1.311355 A    
C14   C68   1.483085 S    
C50   H14   1.079381 S    
C55   O13   1.221499 D    
C49   H13   1.077757 S    
C59   H28   1.111393 S    
C9    C18   1.463642 S    
C23   H8    1.077475 S    
N1    C18   1.355271 A    
C58   H21   1.110572 S    
C61   O18   1.399372 S    
C35   H3    1.081625 S    
C38   C40   1.400876 A    
C40   C57   1.510266 S    
C19   C23   1.396831 A    
O7    Cu2   1.942016 S    
C25   H6    1.068980 S    
C65   H39   1.108596 S    
C65   H40   1.107692 S    
C26   H5    1.068237 S    
C55   O14   1.393924 S    
C27   C29   1.420494 A    
N5    C41   1.391055 A    
O5    C3    1.317782 A    
C53   O9    1.223434 D    
C3    C15   1.481199 S    
O6    C4    1.315793 A    
C58   H20   1.103609 S    
C49   C51   1.393597 A    
C63   C64   1.528580 S    
O3    Cu2   1.932547 S    
O8    C4    1.310726 A    
C42   C44   1.427521 A    
C32   C33   1.415261 A    
C53   O10   1.398660 S    
C37   C45   1.389402 A    
O7    C3    1.310224 A    
C60   H26   1.110408 S    
C10   C12   1.419769 A    
O1    Cu1   1.948673 S    
C8    C10   1.415764 A    
C21   C29   1.421437 A    
O12   H16   1.013860 S    
C39   C59   1.513878 S    
C45   C51   1.411303 A    
C61   O17   1.222911 D    
C67   O22   1.396593 S    
C10   C17   1.462281 S    
O6    Cu2   1.937553 S    
C24   H7    1.079418 S    
C21   C69   1.486918 S    
N2    C17   1.355571 A    
C70   O28   1.398750 S    
Cu2   N5    2.052171 S    
C12   C14   1.416837 A    
O3    C1    1.311328 A    
O8    Cu1   1.942016 S    
O20   H30   1.013938 S    
C56   O16   1.397959 S    
C7    C61   1.493927 S    
C5    H1    1.079137 S    
C21   C23   1.402012 A    
C13   C15   1.419772 A    
O22   H41   1.013168 S    
C14   C16   1.417681 A    
C33   H9    1.074476 S    
C57   C58   1.522657 S    
N6    C42   1.388400 A    
C34   H10   1.076404 S    
C64   H33   1.110248 S    
C9    C11   1.420404 A    
C66   H36   1.110066 S    
C63   H34   1.110042 S    
N1    N3    1.329824 A    
C28   C32   1.432706 A    
O28   H44   1.013450 S    
N2    N4    1.329708 A    
C68   O24   1.397346 S    
C60   H25   1.110846 S    
C27   C31   1.430745 A    
C1    C19   1.480158 S    
C58   H19   1.110196 S    
C47   C50   1.408019 A    
C2    C20   1.476907 S    
C38   C46   1.396393 A    
C19   C25   1.397315 A    
C22   C70   1.486009 S    
C22   C30   1.422641 A    
N5    C39   1.383634 A    
O5    Cu1   1.937553 S    
C6    H2    1.081158 S    
C13   C67   1.486120 S    
C12   C65   1.527047 S    
C54   O12   1.398580 S    
C51   C53   1.487526 S    
C44   C46   1.406784 A    
C41   C43   1.430154 A    
C64   H31   1.108646 S    
O24   H42   1.012877 S    
C64   H32   1.108176 S    
O18   H29   1.013922 S    
N4    C18   1.355689 A    
C66   H37   1.110434 S    
