data_mof_unit_58633.cif
_audit_creation_date              2012-12-10T17:02:16-0500
_audit_creation_method            fapswitch 2.2
_symmetry_space_group_name_H-M    P1
_symmetry_Int_Tables_number       1
_space_group_crystal_system       triclinic
_cell_length_a                    10.484452
_cell_length_b                    10.726898
_cell_length_c                    10.164868
_cell_angle_alpha                 90.699144
_cell_angle_beta                  90.589716
_cell_angle_gamma                 90.257991
_cell_volume                      1143.0405557

loop_
_atom_site_label
_atom_site_type_symbol
_atom_type_description
_atom_site_fract_x
_atom_site_fract_y
_atom_site_fract_z
_atom_type_partial_charge
C1    C     C_R   0.505570 0.262889 0.498587 0.905293
C2    C     C_R   0.068505 0.406974 0.624694 0.042900
C3    C     C_R   0.130009 0.432441 0.503713 -0.158495
C4    C     C_R   0.062979 0.409806 0.386082 -0.203871
C5    C     C_R   0.931272 0.393278 0.389378 0.217239
C6    C     C_R   0.867535 0.424336 0.505787 -0.112945
C7    C     C_2   0.552653 0.928387 0.400812 -0.127510
C8    C     C_2   0.499411 0.868994 0.501016 -0.389681
C9    C     C_2   0.537676 0.061318 0.386066 0.184777
C10   C     C_2   0.529463 0.131739 0.496553 -0.309749
C11   C     C_2   0.509718 0.597749 0.930087 0.114355
C12   C     C_R   0.261057 0.480004 0.500118 0.876092
C13   C     C_2   0.549195 0.584615 0.071336 0.459650
C14   C     C_R   0.500543 0.736842 0.500761 0.973862
C15   C     C_R   0.737223 0.475030 0.500958 0.915481
C16   C     C_R   0.133269 0.375375 0.743563 0.183863
C17   C     C_R   0.072661 0.396937 0.863225 -0.218782
C18   C     C_R   0.940878 0.411274 0.864105 0.135996
C19   C     C_R   0.872820 0.390354 0.747502 0.415820
C20   C     C_R   0.934216 0.409317 0.626310 -0.094114
H1    H     H_    0.112549 0.403397 0.293222 0.156393
H2    H     H_    0.546213 0.091692 0.592780 0.168705
H3    H     H_    0.540395 0.420860 0.888305 0.197108
H4    H     H_    0.124466 0.386728 0.955201 0.154327
H5    H     H_    0.599795 0.877289 0.322609 0.227570
H6    H     H_    0.448635 0.915687 0.579837 0.146324
N1    N     N_2   0.501340 0.501330 0.852150 -0.212397
N2    N     N_2   0.501380 0.501360 0.147810 -0.079569
O1    O     O_R   0.499980 0.319060 0.613040 -0.587398
O2    O     O_R   0.500020 0.319100 0.386900 -0.627395
O3    O     O_R   0.316750 0.499980 0.613090 -0.602162
O4    O     O_R   0.316790 0.500020 0.386950 -0.620007
O5    O     O_R   0.499980 0.680900 0.613100 -0.619374
O6    O     O_R   0.500020 0.680940 0.386960 -0.555304
O7    O     O_R   0.683210 0.499980 0.613050 -0.578044
O8    O     O_R   0.683250 0.500020 0.386910 -0.576210
Zn1   Zn    Zn3+2 0.499970 0.499970 0.650990 0.966034
Zn2   Zn    Zn3+2 0.500030 0.500030 0.349010 0.981257
C21   C     C_3   0.476340 0.725688 0.883343 -0.715559
H7    H     H_    0.458096 0.789298 0.968101 0.218681
H8    H     H_    0.557195 0.765307 0.827808 0.259949
H9    H     H_    0.387368 0.722091 0.823177 0.238596
Cl1   Cl    Cl    0.659914 0.692285 0.137410 -0.652244
C22   C     C_3   0.399300 0.419207 0.100759 -0.743840
H10   H     H_    0.349348 0.379059 0.185623 0.254937
H11   H     H_    0.326620 0.470241 0.042398 0.196364
H12   H     H_    0.438238 0.337974 0.046427 0.189874
C23   C     C_3   0.246331 0.289757 0.745796 -0.784199
H13   H     H_    0.222308 0.204576 0.801634 0.216794
H14   H     H_    0.271327 0.258141 0.645176 0.224294
H15   H     H_    0.328314 0.335721 0.795824 0.258769
C24   C     C_3   0.871645 0.435141 0.988809 -0.843414
H16   H     H_    0.939360 0.460507 0.069504 0.247025
H17   H     H_    0.805844 0.514658 0.975061 0.270556
H18   H     H_    0.815312 0.351171 0.013658 0.265252
Cl2   Cl    Cl    0.740022 0.289151 0.756687 -0.656378
C25   C     C_3   0.863836 0.322256 0.281153 -0.889193
H19   H     H_    0.812709 0.241650 0.323848 0.245482
H20   H     H_    0.793625 0.381523 0.230502 0.276534
H21   H     H_    0.932612 0.284041 0.208920 0.237780
C26   C     C_3   0.527822 0.109043 0.246671 -0.787348
H22   H     H_    0.537308 0.032168 0.173215 0.233388
H23   H     H_    0.432940 0.151833 0.229765 0.236914
H24   H     H_    0.605114 0.177227 0.227463 0.250948

loop_
_geom_bond_atom_site_label_1
_geom_bond_atom_site_label_2
_ccdc_geom_bond_type
C19   Cl2   S    
C14   O6    A    
C26   H24   S    
C24   H18   S    
C13   N2    D    
C11   N1    D    
C2    C16   A    
C9    C10   D    
C19   C20   A    
C7    H5    S    
C22   H12   S    
C5    C25   S    
C10   H2    S    
C16   C23   S    
C14   O5    A    
O8    Zn2   S    
C17   C18   A    
C6    C15   S    
C18   C24   S    
C7    C8    D    
C21   H8    S    
C12   O4    A    
C11   C21   S    
C4    H1    S    
C11   C13   S    
C25   H19   S    
C5    C6    A    
N1    Zn1   S    
C9    C26   S    
C4    C5    A    
C23   H14   S    
C1    O2    A    
O7    Zn1   S    
C24   H17   S    
C2    C3    A    
C21   H9    S    
H3    N1    S    
O4    Zn2   S    
C12   O3    A    
C26   H22   S    
C25   H20   S    
C17   H4    S    
O1    Zn1   S    
C8    H6    S    
C2    C20   A    
C3    C4    A    
C15   O8    A    
C13   Cl1   S    
C6    C20   A    
C24   H16   S    
O2    Zn2   S    
C7    C9    S    
C18   C19   A    
C15   O7    A    
C21   H7    S    
C26   H23   S    
C23   H13   S    
C25   H21   S    
C8    C14   S    
C3    C12   S    
C1    O1    A    
C22   H10   S    
N2    Zn2   S    
O6    Zn2   S    
N2    C22   S    
C23   H15   S    
O5    Zn1   S    
C1    C10   S    
O3    Zn1   S    
C22   H11   S    
C16   C17   A    
