data_mof_unit_11753.cif
_audit_creation_date              2012-12-11T17:43:16-0500
_audit_creation_method            fapswitch 2.2
_symmetry_space_group_name_H-M    P1
_symmetry_Int_Tables_number       1
_space_group_crystal_system       triclinic
_cell_length_a                    15.204228
_cell_length_b                    15.160833
_cell_length_c                    17.040191
_cell_angle_alpha                 108.782886
_cell_angle_beta                  106.295499
_cell_angle_gamma                 109.321624
_cell_volume                      3162.72589777

loop_
_atom_site_label
_atom_site_type_symbol
_atom_type_description
_atom_site_fract_x
_atom_site_fract_y
_atom_site_fract_z
_atom_type_partial_charge
Br1   Br    Br    0.656581 0.864712 0.550650 -0.563511
Br2   Br    Br    0.494763 0.158662 0.198249 -0.533280
C1    C     C_R   0.088688 0.275700 0.031349 -0.120557
C2    C     C_R   0.096749 0.072350 0.964615 -0.229057
C3    C     C_R   0.008850 0.888423 0.924579 0.039589
C4    C     C_R   0.001553 0.074172 0.939326 0.058351
C5    C     C_R   0.101685 0.979623 0.955202 0.064431
C6    C     C_R   0.909668 0.976943 0.886762 0.057896
C7    C     C_R   0.782489 0.943142 0.739186 -0.255206
C8    C     C_R   0.288770 0.054140 0.059534 -0.299499
C9    C     C_R   0.599601 0.878742 0.704832 -0.059390
C10   C     C_R   0.398440 0.985823 0.009672 -0.077005
C11   C     C_R   0.470550 0.719077 0.299138 -0.059457
C12   C     C_R   0.916355 0.711107 0.920830 -0.112884
C13   C     C_R   0.484908 0.239132 0.734749 -0.075903
C14   C     C_R   0.489514 0.692442 0.221326 -0.119476
C15   C     C_R   0.489041 0.302306 0.817428 -0.155212
C16   C     C_R   0.936242 0.519861 0.747614 -0.130830
C17   C     C_R   0.062958 0.528356 0.265799 -0.136485
C18   C     C_R   0.503169 0.602734 0.188595 0.097571
C19   C     C_R   0.517360 0.408912 0.843459 0.171892
C20   C     C_R   0.500255 0.541779 0.235817 -0.208515
C21   C     C_R   0.541357 0.451592 0.785729 -0.063139
C22   C     C_R   0.480345 0.568326 0.313073 -0.099434
C23   C     C_R   0.027093 0.580682 0.746979 0.077027
C24   C     C_R   0.539304 0.388529 0.703921 -0.119754
C25   C     C_R   0.464107 0.656112 0.343920 -0.028795
C26   C     C_R   0.510904 0.282254 0.678335 -0.067860
C27   C     C_R   0.606134 0.575730 0.100754 -0.104534
C28   C     C_R   0.426078 0.472244 0.930080 -0.100880
C29   C     C_R   0.606269 0.527089 0.015301 -0.015624
C30   C     C_R   0.425082 0.518123 0.015402 -0.013384
C31   C     C_R   0.517777 0.474299 0.930213 -0.055434
C32   C     C_R   0.512189 0.566464 0.100581 -0.050008
C33   C     C_R   0.679730 0.900057 0.675786 0.399124
C34   C     C_R   0.971666 0.509243 0.275539 0.066492
C35   C     C_R   0.385604 0.056677 0.078127 0.405027
C36   C     C_R   0.963173 0.550846 0.361663 0.101427
C37   C     C_R   0.035673 0.621620 0.681190 0.114243
C38   C     C_R   0.139025 0.683574 0.607123 -0.160439
C39   C     C_R   0.860100 0.547109 0.447056 -0.182112
C40   C     C_R   0.756798 0.201756 0.808379 -0.114135
C41   C     C_R   0.233139 0.798469 0.187795 -0.108794
C42   C     C_R   0.132785 0.672761 0.683349 -0.197578
C43   C     C_R   0.866127 0.521913 0.363517 -0.124080
C44   C     C_R   0.945701 0.595567 0.607599 -0.247387
C45   C     C_R   0.737019 0.198739 0.722474 0.019961
C46   C     C_R   0.053426 0.617708 0.443775 -0.196659
C47   C     C_R   0.950862 0.597696 0.528290 0.164600
C48   C     C_R   0.048254 0.637572 0.527014 0.200605
C49   C     C_R   0.665668 0.111210 0.633359 0.032729
C50   C     C_R   0.322626 0.897846 0.361072 0.013262
C51   C     C_R   0.381820 0.965610 0.525323 -0.156529
C52   C     C_R   0.605178 0.050816 0.469490 -0.134493
C53   C     C_R   0.299977 0.907672 0.437391 -0.039246
C54   C     C_R   0.687542 0.103488 0.556786 -0.047002
C55   C     C_R   0.422217 0.955138 0.372738 -0.235100
C56   C     C_R   0.256787 0.804608 0.274309 0.027607
C57   C     C_R   0.565100 0.059542 0.621984 -0.201215
C58   C     C_R   0.503652 0.007386 0.459334 0.126596
C59   C     C_R   0.483436 0.010444 0.535837 0.172140
C60   C     C_R   0.625638 0.899854 0.797104 -0.292954
C61   C     C_R   0.312842 0.914151 0.924319 -0.302186
C62   C     C_R   0.727678 0.937059 0.858288 -0.148792
C63   C     C_R   0.216485 0.911770 0.906718 -0.108758
C64   C     C_R   0.286028 0.568143 0.979132 -0.149716
C65   C     C_R   0.725009 0.450025 0.034169 -0.130174
C66   C     C_R   0.807012 0.960638 0.830087 0.050426
C67   C     C_R   0.331681 0.516545 0.014635 0.039376
C68   C     C_R   0.203648 0.981442 0.974352 0.066027
C69   C     C_R   0.771541 0.299968 0.734248 -0.141915
C70   C     C_R   0.231911 0.704728 0.265791 -0.149907
C71   C     C_R   0.279420 0.471958 0.056454 -0.120973
C72   C     C_R   0.743453 0.555449 0.965781 -0.094812
C73   C     C_R   0.108180 0.603052 0.824630 -0.118970
C74   C     C_R   0.890744 0.447599 0.188504 -0.070225
C75   C     C_R   0.916029 0.193208 0.960117 -0.125157
C76   C     C_R   0.087457 0.796117 0.001288 -0.132374
C77   C     C_R   0.001997 0.176810 0.973383 0.065082
C78   C     C_R   0.695718 0.520035 0.014082 0.174007
C79   C     C_R   0.004964 0.802480 0.948188 0.069017
C80   C     C_2   0.702321 0.635743 0.189804 0.510302
C81   C     C_2   0.328867 0.415492 0.842437 0.518499
C82   C     C_2   0.795623 0.151894 0.568217 0.568692
C83   C     C_2   0.192250 0.853886 0.425112 0.503447
C84   C     C_2   0.488345 0.832103 0.642666 0.531800
C85   C     C_2   0.497924 0.982673 0.022500 0.562185
C86   C     C_R   0.914829 0.886062 0.881786 -0.216809
H1    H     H_    0.168032 0.292106 0.062473 0.091190
H2    H     H_    0.468973 0.268067 0.860682 0.109894
H3    H     H_    0.510172 0.472025 0.210952 0.133683
H4    H     H_    0.561577 0.533370 0.804212 0.102848
H5    H     H_    0.476146 0.520099 0.348265 0.131516
H6    H     H_    0.558737 0.421768 0.659952 0.113728
H7    H     H_    0.128734 0.646155 0.443854 0.125466
H8    H     H_    0.870440 0.560642 0.606347 0.119620
H9    H     H_    0.794760 0.475286 0.301178 0.127653
H10   H     H_    0.203854 0.696146 0.739882 0.116120
H11   H     H_    0.214289 0.716218 0.607360 0.135056
H12   H     H_    0.839408 0.682398 0.869675 0.080089
H13   H     H_    0.784798 0.518136 0.447320 0.142038
H14   H     H_    0.858371 0.499869 0.704456 0.088840
H15   H     H_    0.139120 0.561498 0.319374 0.095379
H16   H     H_    0.550153 0.065221 0.681527 0.100576
H17   H     H_    0.438075 0.946525 0.313137 0.144701
H18   H     H_    0.367005 0.971246 0.584945 0.148823
H19   H     H_    0.619824 0.044699 0.409707 0.179208
H20   H     H_    0.566065 0.883219 0.821092 0.133492
H21   H     H_    0.320865 0.859797 0.870802 0.124871
H22   H     H_    0.744932 0.946188 0.927423 0.144749
H23   H     H_    0.842892 0.956074 0.715915 0.168577
H24   H     H_    0.151809 0.855692 0.840317 0.135978
H25   H     H_    0.726716 0.135392 0.821101 0.107101
H26   H     H_    0.249974 0.863035 0.170826 0.113741
H27   H     H_    0.313837 0.618617 0.949618 0.109533
H28   H     H_    0.689523 0.398487 0.059759 0.094043
H29   H     H_    0.760348 0.325676 0.681617 0.101826
H30   H     H_    0.255306 0.685767 0.321318 0.111822
H31   H     H_    0.302340 0.436335 0.098601 0.110398
H32   H     H_    0.731454 0.604629 0.934403 0.089498
H33   H     H_    0.188183 0.660158 0.852940 0.089938
H34   H     H_    0.279378 0.108200 0.112226 0.164188
H35   H     H_    0.809717 0.410679 0.171304 0.095631
H36   H     H_    0.836984 0.137014 0.931641 0.114586
H37   H     H_    0.168570 0.846443 0.027694 0.116463
H38   H     H_    0.843026 0.813976 0.846829 0.130696
H39   H     H_    0.168259 0.143206 0.992818 0.128167
H40   H     H_    0.697448 0.651960 0.254770 0.047245
H41   H     H_    0.254476 0.376625 0.841990 0.025198
H42   H     H_    0.859981 0.187774 0.635212 0.013787
H43   H     H_    0.128617 0.807300 0.356737 0.044975
H44   H     H_    0.432144 0.823727 0.671015 -0.022029
H45   H     H_    0.446836 0.675482 0.402709 0.180702
H46   H     H_    0.501487 0.925768 0.966850 -0.035429
H47   H     H_    0.508214 0.233252 0.614505 0.113920
H48   H     H_    0.459562 0.787702 0.324106 0.138044
H49   H     H_    0.460453 0.156602 0.714345 0.099537
H50   H     H_    0.491289 0.740001 0.185506 0.122705
N1    N     N_R   0.055660 0.348550 0.045620 -0.042956
N2    N     N_R   0.185200 0.638170 0.176300 -0.036311
N3    N     N_R   0.201680 0.494570 0.045620 -0.041724
N4    N     N_R   0.798320 0.505430 0.954380 -0.050266
N5    N     N_R   0.068420 0.560530 0.871650 -0.042147
N6    N     N_R   0.931580 0.439470 0.128350 -0.044168
N7    N     N_R   0.948070 0.295860 0.997670 -0.045323
N8    N     N_R   0.051930 0.704140 0.002330 -0.041429
N9    N     N_R   0.944340 0.651450 0.954380 -0.037357
N10   N     N_R   0.960830 0.507850 0.823700 -0.043602
N11   N     N_R   0.039170 0.492150 0.176300 -0.040606
N12   N     N_R   0.811290 0.303410 0.871650 -0.043728
N13   N     N_R   0.188710 0.696590 0.128350 -0.043144
N14   N     N_R   0.205200 0.552990 0.997670 -0.041624
N15   N     N_R   0.794800 0.447010 0.002330 -0.046086
N16   N     N_R   0.814800 0.361830 0.823700 -0.038212
Ni1   Ni    Ni4+2 0.119340 0.493420 0.109960 0.226468
Ni2   Ni    Ni4+2 0.880660 0.506580 0.890040 0.214254
Ni3   Ni    Ni4+2 0.872590 0.372590 0.000000 0.230752
Ni4   Ni    Ni4+2 0.127410 0.627410 0.000000 0.214848
O1    O     O_2   0.788394 0.671092 0.192339 -0.566138
O2    O     O_2   0.330410 0.414228 0.770865 -0.567511
O3    O     O_2   0.814175 0.151714 0.502943 -0.552605
O4    O     O_2   0.173046 0.861956 0.491290 -0.580500
O5    O     O_2   0.457147 0.801540 0.559935 -0.581955
O6    O     O_2   0.576697 0.042219 0.093799 -0.525138

loop_
_geom_bond_atom_site_label_1
_geom_bond_atom_site_label_2
_ccdc_geom_bond_type
C7    H23   S    
C55   H17   S    
C61   C63   A    
C24   H6    S    
C71   H31   S    
N12   Ni3   S    
C26   H47   S    
C51   C53   A    
Br2   C35   S    
C22   C25   A    
C9    C60   A    
C1    C77   A    
C5    C68   S    
C13   C26   A    
C29   C78   S    
C52   C58   A    
C44   C47   A    
C52   H19   S    
C8    C35   A    
C57   H16   S    
C62   C66   A    
C46   H7    S    
C81   H41   S    
C16   N10   A    
C17   C34   A    
C41   H26   S    
C74   N6    A    
C64   C67   A    
C60   H20   S    
C9    C84   S    
C63   C68   A    
C10   C35   A    
N7    Ni3   S    
C49   C54   A    
C16   H14   S    
C21   C24   A    
C82   H42   S    
C28   C81   S    
C36   C43   A    
C86   H38   S    
C34   C74   A    
C41   C56   A    
C3    C86   A    
C17   H15   S    
C51   H18   S    
C81   O2    D    
C65   C78   A    
C60   C62   A    
C20   H3    S    
C29   C31   A    
C67   C71   A    
C19   C31   S    
C38   C42   A    
N16   Ni2   S    
C28   C31   A    
C50   C53   A    
C18   C32   S    
C46   C48   A    
C85   O6    D    
C72   N4    A    
C1    N1    A    
C72   C78   A    
C83   O4    D    
C85   H46   S    
C16   C23   A    
C51   C59   A    
C38   H11   S    
C2    C5    A    
C39   C47   A    
C54   C82   S    
N14   Ni4   S    
C75   C77   A    
N5    N10   A    
C52   C54   A    
C57   C59   A    
C64   H27   S    
C69   H29   S    
C25   H45   S    
N13   Ni4   S    
C2    C4    A    
C3    C5    A    
C10   C61   A    
N3    Ni1   S    
C55   C58   A    
C4    C6    A    
C69   N16   A    
C12   N9    A    
C15   C19   A    
C58   C59   A    
C6    C86   A    
C30   C32   A    
C53   C83   S    
C65   H28   S    
C63   H24   S    
C64   N14   A    
N6    N11   A    
C3    C79   S    
C40   H25   S    
C62   H22   S    
N1    Ni1   S    
C14   C18   A    
C45   C69   A    
N9    Ni2   S    
N2    N13   A    
C80   H40   S    
C37   C42   A    
C50   C56   S    
C37   C44   A    
C8    C68   A    
C18   C20   A    
C6    C66   S    
C19   C21   A    
C11   H48   S    
C20   C22   A    
C71   N3    A    
C49   C57   A    
C75   N7    A    
C41   N13   A    
Br1   C33   S    
N5    Ni4   S    
N8    N9    A    
C13   C15   A    
N1    N7    A    
C10   C85   S    
C73   H33   S    
C74   H35   S    
C36   C46   A    
C14   H50   S    
C15   H2    S    
C8    H34   S    
C45   C49   S    
C73   N5    A    
C12   H12   S    
C30   C67   S    
N8    Ni4   S    
C72   H32   S    
C24   C26   A    
C84   H44   S    
C1    H1    S    
C65   N15   A    
N4    Ni2   S    
C9    C33   A    
N11   Ni1   S    
C7    C66   A    
C27   C80   S    
C27   C29   A    
C75   H36   S    
C43   H9    S    
C22   H5    S    
C83   H43   S    
C28   C30   A    
C80   O1    D    
C76   C79   A    
C56   C70   A    
C4    C77   S    
C38   C48   A    
C27   C32   A    
C34   C36   S    
C17   N11   A    
C39   H13   S    
C40   C45   A    
N4    N15   A    
N15   Ni3   S    
C40   N12   A    
C50   C55   A    
C76   N8    A    
N2    Ni1   S    
C42   H10   S    
C70   N2    A    
C44   H8    S    
C47   C48   A    
N12   N16   A    
C11   C14   A    
C70   H30   S    
C7    C33   A    
C39   C43   A    
C21   H4    S    
C11   C25   A    
C84   O5    D    
N10   Ni2   S    
C12   C79   A    
C23   C73   A    
N6    Ni3   S    
C76   H37   S    
C2    H39   S    
C23   C37   S    
C82   O3    D    
N3    N14   A    
C61   H21   S    
C13   H49   S    
