data_mof_unit_20838.cif
_audit_creation_date              2013-03-05T16:23:20-0500
_audit_creation_method            fapswitch 2.2
_symmetry_space_group_name_H-M    P1
_symmetry_Int_Tables_number       1
_space_group_crystal_system       triclinic
_cell_length_a                    27.300248
_cell_length_b                    10.722463
_cell_length_c                    9.927877
_cell_angle_alpha                 89.261937
_cell_angle_beta                  89.946158
_cell_angle_gamma                 92.334343
_cell_volume                      2903.49105274

loop_
_atom_site_label
_atom_site_type_symbol
_atom_site_description
_atom_site_fract_x
_atom_site_fract_y
_atom_site_fract_z
_atom_type_partial_charge
O1    O     O_R   0.500000 0.313960 0.616610 -0.536337
O2    O     O_R   0.500000 0.686040 0.383390 -0.574445
O3    O     O_R   0.500020 0.313950 0.383350 -0.615747
O4    O     O_R   0.499980 0.686050 0.616650 -0.616613
C1    C     C_R   0.498817 0.258087 0.500383 1.004998
C2    C     C_R   0.497909 0.741505 0.499514 1.037592
O5    O     O_R   0.428750 0.500030 0.616610 -0.541645
O6    O     O_R   0.571250 0.499970 0.383390 -0.562676
O7    O     O_R   0.428770 0.500020 0.383360 -0.590357
O8    O     O_R   0.571230 0.499980 0.616640 -0.573676
C3    C     C_R   0.405863 0.497870 0.500716 0.963804
C4    C     C_R   0.594388 0.500902 0.500093 0.923327
Zn1   Zn    Zn3+2 0.499990 0.500010 0.655740 1.108740
Zn2   Zn    Zn3+2 0.500010 0.499990 0.344260 1.096000
C5    C     C_R   0.175375 0.389751 0.671885 0.631683
C6    C     C_R   0.835663 0.616794 0.503984 0.612783
O9    O     O_2   0.191165 0.277390 0.635723 -0.464057
O10   O     O_2   0.819863 0.690257 0.403073 -0.444839
N1    N     N_R   0.205011 0.495336 0.655729 -0.337299
N2    N     N_R   0.803837 0.530461 0.562335 -0.341154
C7    C     C_R   0.187736 0.609657 0.687204 0.592132
C8    C     C_R   0.820035 0.443428 0.651664 0.598126
C9    C     C_R   0.270055 0.567885 0.493175 -0.061061
C10   C     C_R   0.729594 0.422803 0.471683 -0.067031
C11   C     C_R   0.320762 0.578527 0.460139 -0.128855
C12   C     C_R   0.677840 0.411958 0.464142 -0.143165
C13   C     C_R   0.331661 0.387009 0.590967 -0.119439
C14   C     C_R   0.672911 0.624553 0.546800 -0.095441
C15   C     C_R   0.286768 0.402292 0.656350 -0.040580
C16   C     C_R   0.724245 0.630898 0.566088 -0.068165
C17   C     C_R   0.254219 0.488164 0.601721 0.140237
C18   C     C_R   0.752290 0.529517 0.529852 0.147755
C19   C     C_R   0.106219 0.515832 0.708465 -0.078850
C20   C     C_R   0.902886 0.527580 0.625966 -0.060561
C21   C     C_R   0.127415 0.399228 0.719757 -0.124553
C22   C     C_R   0.884655 0.627283 0.548332 -0.137946
C23   C     C_R   0.099323 0.297665 0.774281 0.349073
C24   C     C_R   0.916482 0.729292 0.511862 0.313023
C25   C     C_R   0.136613 0.624757 0.697436 -0.116009
C26   C     C_R   0.870650 0.429088 0.669229 -0.109268
C27   C     C_R   0.351836 0.485358 0.509544 -0.158874
C28   C     C_R   0.649073 0.512739 0.501665 -0.137596
C29   C     C_R   0.973237 0.413917 0.710117 -0.013513
C30   C     C_R   0.033698 0.635517 0.672210 -0.015128
C31   C     C_R   0.984022 0.632509 0.630719 0.029217
C32   C     C_R   0.024996 0.412417 0.731374 0.011325
C33   C     C_R   0.953352 0.525220 0.658027 0.067930
C34   C     C_R   0.054756 0.521584 0.704896 0.061325
C35   C     C_R   0.941035 0.306167 0.726384 0.205504
C36   C     C_R   0.063259 0.747782 0.682416 0.194156
C37   C     C_R   0.889884 0.317650 0.720249 -0.138905
C38   C     C_R   0.114762 0.742298 0.694720 -0.163904
O11   O     O_2   0.787123 0.371063 0.721738 -0.499297
O12   O     O_2   0.219889 0.707229 0.702356 -0.478232
C39   C     C_R   0.048605 0.308532 0.785929 -0.159004
C40   C     C_R   0.965399 0.729578 0.551583 -0.165046
H1    H     H_    0.028684 0.236861 0.842301 0.230741
H2    H     H_    0.989066 0.805602 0.514966 0.220962
C41   C     C_3   0.502727 0.038998 0.623554 0.262394
C42   C     C_3   0.486351 0.960073 0.376720 0.245818
C43   C     C_3   0.538657 0.960675 0.544099 -0.366628
C44   C     C_3   0.450470 0.039697 0.456452 -0.387539
H3    H     H_    0.574447 0.938044 0.584722 0.208813
H4    H     H_    0.414355 0.070565 0.421380 0.203043
C45   C     C_3   0.494586 0.875896 0.499686 -0.238563
C46   C     C_3   0.495408 0.123158 0.499940 -0.232655
C47   C     C_3   0.459319 0.954533 0.580724 0.254512
C48   C     C_3   0.529894 0.043191 0.419044 0.233312
C49   C     C_3   0.491472 0.388910 0.050256 -0.196838
C50   C     C_3   0.507760 0.611167 0.950372 -0.179016
C51   C     C_3   0.533320 0.429053 0.954136 -0.184327
C52   C     C_3   0.466400 0.569909 0.047268 -0.156139
N3    N     N_3   0.499960 0.500030 0.863290 -0.176773
N4    N     N_3   0.500040 0.499970 0.136710 -0.182816
C53   C     C_3   0.459108 0.459361 0.953045 0.283802
C54   C     C_3   0.540991 0.540617 0.046904 0.267377
C55   C     C_2   0.353627 0.262868 0.594061 0.998302
O13   O     O_2   0.397010 0.251970 0.618608 -0.589617
O14   O     O_R   0.323679 0.157518 0.565753 -0.697024
H5    H     H_    0.342168 0.077652 0.564843 0.378762
C56   C     C_2   0.644857 0.736739 0.571230 0.960963
O15   O     O_2   0.614979 0.769371 0.487900 -0.595084
O16   O     O_R   0.655246 0.809114 0.684730 -0.735591
H6    H     H_    0.643287 0.896865 0.677307 0.351531
N5    N     N_R   0.509948 0.082867 0.760467 0.269389
O17   O     O_R   0.550457 0.063099 0.824371 -0.349607
O18   O     O_R   0.475600 0.142326 0.819443 -0.247536
N6    N     N_R   0.478458 0.920294 0.238664 0.252019
O19   O     O_R   0.440076 0.955086 0.173088 -0.295548
O20   O     O_R   0.512597 0.863820 0.175321 -0.258140
N7    N     N_R   0.420963 0.907071 0.672903 0.259992
O21   O     O_R   0.396384 0.984243 0.743733 -0.229727
O22   O     O_R   0.411786 0.787794 0.687854 -0.300587
N8    N     N_R   0.568013 0.080948 0.322325 0.248212
O23   O     O_R   0.598491 0.999454 0.281069 -0.209043
O24   O     O_R   0.568785 0.191005 0.266327 -0.301777
C57   C     C_2   0.572949 0.343458 0.914950 1.103454
O25   O     O_2   0.596743 0.294006 0.003535 -0.473859
O26   O     O_R   0.582647 0.318534 0.780865 -0.725521
H7    H     H_    0.611340 0.262328 0.771096 0.387619
C58   C     C_2   0.420202 0.625212 0.094243 1.068693
O27   O     O_2   0.412794 0.734911 0.072468 -0.471155
O28   O     O_R   0.382739 0.544658 0.143780 -0.751916
H8    H     H_    0.349248 0.580533 0.133905 0.375611
C59   C     C_2   0.473499 0.266913 0.109123 1.136545
O29   O     O_2   0.495345 0.172138 0.087978 -0.469305
O30   O     O_R   0.430038 0.262745 0.183789 -0.739217
H9    H     H_    0.419248 0.175380 0.213039 0.364392
C60   C     C_2   0.521220 0.736771 0.893565 1.105305
O31   O     O_2   0.492273 0.820475 0.897792 -0.474425
O32   O     O_R   0.567518 0.757188 0.836719 -0.746461
H10   H     H_    0.573221 0.846326 0.805206 0.370391
N9    N     N_R   0.411960 0.416164 0.897266 0.240664
O33   O     O_R   0.381388 0.497008 0.853022 -0.360573
O34   O     O_R   0.397712 0.299209 0.906724 -0.270134
N10   N     N_R   0.587082 0.590995 0.102227 0.245378
O35   O     O_R   0.628319 0.540935 0.073471 -0.302197
O36   O     O_R   0.587423 0.690632 0.175426 -0.246287
C61   C     C_2   0.276766 0.341372 0.790397 1.082031
O37   O     O_2   0.290852 0.236950 0.816073 -0.490735
O38   O     O_R   0.252239 0.406420 0.889490 -0.756685
H11   H     H_    0.248240 0.357077 0.976878 0.386456
C62   C     C_2   0.749565 0.743511 0.623537 1.038974
O39   O     O_2   0.746716 0.844964 0.566930 -0.493797
O40   O     O_R   0.777611 0.732412 0.740504 -0.751099
H12   H     H_    0.793736 0.814902 0.768452 0.374372
N11   N     N_R   0.121885 0.190808 0.833161 0.245291
O41   O     O_R   0.164791 0.203331 0.889503 -0.335691
O42   O     O_R   0.095968 0.088055 0.855187 -0.292737
N12   N     N_R   0.899433 0.837842 0.443134 0.262364
O43   O     O_R   0.864620 0.900441 0.496410 -0.253670
O44   O     O_R   0.924998 0.888274 0.344479 -0.283934
C63   C     C_2   0.654547 0.290520 0.430158 1.014608
O45   O     O_2   0.663134 0.242943 0.321859 -0.463994
O46   O     O_R   0.627447 0.224839 0.528914 -0.810781
H13   H     H_    0.624846 0.132136 0.511668 0.358454
C64   C     C_2   0.341199 0.688043 0.381320 0.991912
O47   O     O_2   0.318218 0.732418 0.287894 -0.547081
O48   O     O_R   0.386678 0.742306 0.415300 -0.800692
H14   H     H_    0.395483 0.818059 0.357247 0.363862
C65   C     C_2   0.761028 0.321353 0.424759 1.009048
O49   O     O_2   0.751588 0.212635 0.457401 -0.498301
O50   O     O_R   0.802568 0.351655 0.346625 -0.754968
H15   H     H_    0.821638 0.275697 0.323160 0.387912
C66   C     C_2   0.233087 0.640908 0.420070 0.985696
O51   O     O_2   0.235937 0.755056 0.418743 -0.492843
O52   O     O_R   0.193194 0.577889 0.359725 -0.773711
H16   H     H_    0.169588 0.636888 0.316334 0.369849
C67   C     C_2   0.857891 0.204223 0.743260 1.104502
O53   O     O_2   0.837020 0.153887 0.648227 -0.518853
O54   O     O_R   0.852027 0.155094 0.873584 -0.700251
H17   H     H_    0.829536 0.077489 0.876502 0.373159
C68   C     C_2   0.144909 0.859430 0.706801 1.140270
O55   O     O_2   0.151150 0.928633 0.608923 -0.493864
O56   O     O_R   0.167515 0.887906 0.829490 -0.679842
H18   H     H_    0.189030 0.967097 0.824008 0.408670
N13   N     N_R   0.959144 0.182578 0.719775 0.190214
O57   O     O_R   0.950314 0.101896 0.816696 -0.282678
O58   O     O_R   0.980570 0.147310 0.610397 -0.273067
N14   N     N_R   0.040754 0.865211 0.701021 0.209583
O59   O     O_R   0.006647 0.874853 0.791465 -0.265829
O60   O     O_R   0.052204 0.960457 0.623112 -0.277963

loop_
_geom_bond_atom_site_label_1
_geom_bond_atom_site_label_2
_geom_bond_distance
_ccdc_geom_bond_type
C46   C48   1.532535 S    
C58   O27   1.218235 D    
C13   C15   1.402818 A    
C11   C64   1.491530 S    
O52   H16   1.013809 S    
N1    C17   1.451280 S    
N11   O42   1.300885 A    
C57   O25   1.222169 D    
C42   N6    1.454318 S    
C67   O53   1.222770 D    
C62   O39   1.223301 D    
N5    O17   1.299001 A    
C54   N10   1.459558 S    
O5    C3    1.309811 A    
C59   O30   1.397300 S    
N13   O57   1.301354 A    
O40   H12   1.013871 S    
N4    C54   1.477555 S    
C44   C47   1.550448 S    
O1    C1    1.306794 A    
Zn2   N4    2.060533 S    
N1    C7    1.370894 A    
C10   C12   1.415091 A    
C60   O32   1.391723 S    
C41   C46   1.531977 S    
C7    O12   1.348041 S    
C62   O40   1.398013 S    
C52   C58   1.492246 S    
O50   H15   1.013823 S    
N10   O35   1.299838 A    
C15   C61   1.494882 S    
C42   C44   1.548905 S    
C14   C28   1.418645 A    
O4    Zn1   2.027303 S    
C49   C51   1.532465 S    
C13   C55   1.482023 S    
C4    C28   1.493258 S    
C66   O52   1.397611 S    
C5    N1    1.372040 A    
C2    C45   1.447563 S    
O26   H7    1.012914 S    
C31   C40   1.407770 A    
C40   H2    1.078484 S    
C45   C47   1.538631 S    
C32   C39   1.411788 A    
C36   C38   1.415001 A    
O54   H17   1.013904 S    
C49   C53   1.523109 S    
C53   N9    1.461967 S    
C68   O56   1.397624 S    
C44   H4    1.107783 S    
O6    C4    1.320102 A    
C41   C47   1.526036 S    
C55   O14   1.398873 S    
C25   C38   1.416121 A    
C64   O47   1.222424 D    
N13   O58   1.300664 A    
N3    C53   1.475295 S    
C35   N13   1.435387 S    
O2    C2    1.306272 A    
C52   C53   1.526246 S    
C5    C21   1.400505 A    
C56   O16   1.399137 S    
C66   O51   1.223152 D    
C8    O11   1.349620 S    
C31   C33   1.418124 A    
C32   C34   1.418991 A    
C41   C43   1.540266 S    
C47   N7    1.461422 S    
C44   C46   1.553652 S    
N5    O18   1.298401 A    
O46   H13   1.010475 S    
C51   C57   1.501146 S    
C52   N4    1.494906 S    
C57   O26   1.388466 S    
C11   C27   1.419665 A    
N7    O21   1.299538 A    
C51   N3    1.504124 S    
C49   C59   1.490284 S    
C29   C35   1.430360 A    
C35   C37   1.408148 A    
C38   C68   1.479524 S    
C55   O13   1.219356 D    
C56   O15   1.220336 D    
C65   O50   1.398296 S    
C9    C17   1.422741 A    
N12   O44   1.301223 A    
O7    Zn2   1.982883 S    
C10   C18   1.409483 A    
Zn1   N3    2.060532 S    
C50   C60   1.485475 S    
N7    O22   1.299777 A    
C9    C66   1.486442 S    
C13   C27   1.413764 A    
O16   H6    1.010249 S    
C7    C25   1.415265 A    
C10   C65   1.491667 S    
C6    N2    1.366434 A    
C8    C26   1.407308 A    
C50   N3    1.489653 S    
C43   H3    1.092582 S    
C49   N4    1.487783 S    
C19   C25   1.407907 A    
N6    O19   1.299163 A    
C61   O37   1.222461 D    
N8    O24   1.297365 A    
O7    C3    1.321297 A    
C42   C48   1.519271 S    
O38   H11   1.013816 S    
C61   O38   1.398981 S    
O8    C4    1.317729 A    
O4    C2    1.301607 A    
N6    O20   1.298243 A    
C42   C45   1.531071 S    
C39   H1    1.074187 S    
C50   C54   1.533819 S    
C63   O45   1.222553 D    
C20   C26   1.409304 A    
O1    Zn1   2.037305 S    
O30   H9    1.009447 S    
N11   O41   1.301282 A    
C24   N12   1.435694 S    
O56   H18   1.013469 S    
C30   C31   1.416952 A    
C12   C28   1.414991 A    
N9    O33   1.300307 A    
N2    C18   1.443688 S    
C30   C36   1.426446 A    
C5    O9    1.348852 S    
O6    Zn2   1.983657 S    
O32   H10   1.007820 S    
C21   C23   1.408233 A    
C14   C56   1.474654 S    
C64   O48   1.393170 S    
N2    C8    1.365990 A    
C1    C46   1.446035 S    
O3    C1    1.300098 A    
O8    Zn1   1.982886 S    
O48   H14   1.010683 S    
O3    Zn2   2.027305 S    
C26   C37   1.412820 A    
C59   O29   1.219467 D    
C58   O28   1.396443 S    
C36   N14   1.437283 S    
N14   O59   1.301011 A    
C67   O54   1.397259 S    
N12   O43   1.301412 A    
C14   C16   1.413652 A    
C15   C17   1.409341 A    
C12   C63   1.469009 S    
C65   O49   1.223110 D    
C6    C22   1.409074 A    
C16   C18   1.405225 A    
C43   C48   1.539797 S    
C51   C54   1.526897 S    
C22   C24   1.412173 A    
C19   C21   1.402170 A    
N10   O36   1.299533 A    
C3    C27   1.478017 S    
C20   C22   1.416852 A    
C9    C11   1.422042 A    
N8    O23   1.300554 A    
O2    Zn2   2.037303 S    
C29   C32   1.429628 A    
C48   N8    1.456938 S    
O14   H5    1.011742 S    
C23   C39   1.399024 A    
C43   C45   1.546137 S    
O5    Zn1   1.983652 S    
C24   C40   1.392693 A    
C16   C62   1.487139 S    
C37   C67   1.483298 S    
C6    O10   1.348470 S    
O28   H8    1.010633 S    
C63   O46   1.393908 S    
C19   C34   1.409264 A    
C50   C52   1.530477 S    
C20   C33   1.415474 A    
N9    O34   1.299961 A    
C68   O55   1.222577 D    
C60   O31   1.220856 D    
C29   C33   1.422619 A    
C41   N5    1.455038 S    
C30   C34   1.405549 A    
N14   O60   1.300826 A    
C23   N11   1.440426 S    
