data_mof_unit_31420.cif
_audit_creation_date              2012-12-10T17:24:43-0500
_audit_creation_method            fapswitch 2.2
_symmetry_space_group_name_H-M    P1
_symmetry_Int_Tables_number       1
_space_group_crystal_system       triclinic
_cell_length_a                    18.666302
_cell_length_b                    18.306556
_cell_length_c                    19.18129
_cell_angle_alpha                 109.519674
_cell_angle_beta                  110.512078
_cell_angle_gamma                 107.787888
_cell_volume                      5080.14087971

loop_
_atom_site_label
_atom_site_type_symbol
_atom_type_description
_atom_site_fract_x
_atom_site_fract_y
_atom_site_fract_z
_atom_type_partial_charge
C1    C     C_R   0.617929 0.620517 0.499110 0.837616
C2    C     C_3   0.175177 0.443232 0.234285 -0.024755
C3    C     C_3   0.241227 0.521868 0.324945 -0.261204
C4    C     C_3   0.313199 0.503902 0.315766 -0.064567
C5    C     C_R   0.590837 0.755906 0.469674 -0.164584
C6    C     C_R   0.581992 0.827761 0.466675 -0.113300
C7    C     C_R   0.652390 0.899499 0.483253 -0.107332
C8    C     C_R   0.730117 0.897343 0.497978 -0.134824
C9    C     C_R   0.738616 0.822046 0.495272 0.115669
C10   C     C_R   0.670721 0.754278 0.488306 0.079231
C11   C     C_R   0.813269 0.813218 0.501007 -0.142722
C12   C     C_R   0.379819 0.501519 0.380361 0.866582
C13   C     C_R   0.825616 0.744136 0.513153 0.001160
C14   C     C_R   0.764573 0.686784 0.521845 0.039919
C15   C     C_R   0.685028 0.687889 0.502337 -0.168024
C16   C     C_R   0.894720 0.727116 0.512789 -0.098890
C17   C     C_R   0.921385 0.680720 0.553369 -0.131218
C18   C     C_R   0.865009 0.631618 0.573035 -0.076862
C19   C     C_R   0.784151 0.629011 0.549477 -0.225564
C20   C     C_R   0.786217 0.649849 0.729567 -0.178032
C21   C     C_R   0.867692 0.723946 0.784395 -0.179507
C22   C     C_R   0.926063 0.730152 0.858091 -0.029706
C23   C     C_R   0.380249 0.379514 0.499214 0.837770
C24   C     C_R   0.899159 0.661194 0.876036 -0.084127
C25   C     C_R   0.828744 0.576863 0.808808 -0.050391
C26   C     C_R   0.766996 0.574013 0.739339 0.094178
C27   C     C_R   0.816278 0.496751 0.810658 -0.159891
C28   C     C_R   0.739880 0.415252 0.744063 0.039351
C29   C     C_R   0.670460 0.418604 0.687548 0.043871
C30   C     C_R   0.686513 0.496782 0.683274 -0.116775
C31   C     C_R   0.728976 0.330067 0.730489 -0.014228
C32   C     C_R   0.644749 0.257855 0.683140 -0.208233
C33   C     C_R   0.572777 0.264428 0.636589 -0.031050
C34   C     C_R   0.619524 0.497998 0.619467 0.834593
C35   C     C_R   0.586961 0.343092 0.634902 -0.215246
C36   C     C_R   0.410767 0.370155 0.651450 -0.120308
C37   C     C_R   0.421149 0.376449 0.728787 -0.149062
C38   C     C_R   0.348845 0.333675 0.733025 -0.114795
C39   C     C_R   0.266497 0.279772 0.658541 -0.082992
C40   C     C_R   0.259198 0.258130 0.576500 -0.029730
C41   C     C_R   0.328874 0.313094 0.574846 0.120606
C42   C     C_R   0.185950 0.185215 0.496813 -0.187641
C43   C     C_R   0.176887 0.177255 0.416534 0.033673
C44   C     C_R   0.237286 0.247594 0.418899 0.058434
C45   C     C_3   0.330900 0.566943 0.280294 -0.214672
C46   C     C_R   0.314473 0.311993 0.497433 -0.123101
C47   C     C_R   0.110886 0.101983 0.333928 -0.073218
C48   C     C_R   0.092637 0.108837 0.258526 -0.145672
C49   C     C_R   0.152334 0.181122 0.262641 -0.060649
C50   C     C_R   0.222429 0.249799 0.342143 -0.183172
C51   C     C_R   0.002070 0.621999 0.121018 0.884754
C52   C     C_R   0.124259 0.502521 0.126989 0.931041
C53   C     C_R   0.012764 0.379298 0.892242 0.910771
C54   C     C_R   0.882712 0.499036 0.881413 0.885017
C55   C     C_R   0.998191 0.875123 0.382478 0.911980
C56   C     C_3   0.256581 0.582933 0.286704 0.012244
C57   C     C_R   0.879838 0.878925 0.499514 0.800587
C58   C     C_R   0.993158 0.116458 0.617710 0.922210
C59   C     C_R   0.120046 0.118824 0.498289 0.922250
C60   C     C_R   0.154959 0.810538 0.250270 -0.072300
C61   C     C_R   0.234905 0.869646 0.328232 -0.061952
C62   C     C_R   0.235907 0.889629 0.405311 -0.220069
C63   C     C_R   0.158786 0.856587 0.406607 -0.004172
C64   C     C_R   0.077005 0.806034 0.328373 0.039480
C65   C     C_R   0.077113 0.769053 0.251713 -0.056462
C66   C     C_R   0.996533 0.800747 0.320912 -0.129565
C67   C     C_3   0.190791 0.504425 0.196763 -0.094600
C68   C     C_R   0.916224 0.735911 0.244583 0.080303
C69   C     C_R   0.917256 0.678728 0.175183 0.066782
C70   C     C_R   0.998383 0.693230 0.180526 -0.112446
C71   C     C_R   0.834785 0.725540 0.236430 -0.050041
C72   C     C_R   0.756686 0.659564 0.161856 -0.164481
C73   C     C_R   0.756977 0.601971 0.092610 0.009031
C74   C     C_R   0.837019 0.611935 0.099720 -0.103216
C75   C     C_R   0.098057 0.411825 0.788473 -0.086537
C76   C     C_R   0.083114 0.429207 0.720374 -0.246553
C77   C     C_R   0.013171 0.365382 0.637714 -0.033281
C78   C     C_3   0.264095 0.487061 0.189070 -0.087929
C79   C     C_R   0.969094 0.277383 0.620089 -0.032221
C80   C     C_R   0.994132 0.258442 0.688562 0.045743
C81   C     C_R   0.040920 0.328500 0.772156 0.111687
C82   C     C_R   0.978586 0.174346 0.679400 -0.153989
C83   C     C_R   0.972090 0.155763 0.743337 0.068471
C84   C     C_R   0.995666 0.225317 0.822240 -0.022213
C85   C     C_R   0.023769 0.312258 0.833512 -0.214643
C86   C     C_R   0.936923 0.067880 0.727132 -0.196751
C87   C     C_R   0.925069 0.048054 0.788011 0.001111
C88   C     C_R   0.954597 0.117169 0.868084 -0.172722
C89   C     C_3   0.247458 0.424068 0.225923 -0.146537
C90   C     C_R   0.992991 0.205117 0.887097 -0.102519
H1    H     H_    0.646737 0.956960 0.484391 0.177887
H2    H     H_    0.740185 0.652047 0.678305 0.149294
H3    H     H_    0.883990 0.777685 0.770977 0.195377
H4    H     H_    0.532180 0.344839 0.592386 0.170095
H5    H     H_    0.297853 0.928072 0.464902 0.214732
H6    H     H_    0.245072 0.359066 0.201168 0.200492
O1    O     O_R   0.592010 0.539900 0.448660 -0.608172
O2    O     O_R   0.054870 0.643310 0.094700 -0.575577
O3    O     O_R   0.044440 0.448270 0.096110 -0.572193
O4    O     O_R   0.147870 0.551680 0.096080 -0.608037
O5    O     O_R   0.952810 0.356650 0.912880 -0.601471
O6    O     O_R   0.056240 0.460060 0.912840 -0.618165
O7    O     O_R   0.859800 0.448280 0.911500 -0.625021
O8    O     O_R   0.963240 0.551690 0.911470 -0.582314
O9    O     O_R   0.052860 0.908430 0.461230 -0.579338
O10   O     O_R   0.948620 0.908400 0.356980 -0.612720
O11   O     O_R   0.960510 0.908410 0.552140 -0.594547
O12   O     O_R   0.591210 0.643320 0.551330 -0.622710
O13   O     O_R   0.856270 0.908390 0.447890 -0.648446
O14   O     O_R   0.051380 0.091620 0.643040 -0.573711
O15   O     O_R   0.947140 0.091600 0.538800 -0.619324
O16   O     O_R   0.143730 0.091640 0.552130 -0.586497
O17   O     O_R   0.039490 0.091610 0.447890 -0.598573
O18   O     O_R   0.408080 0.448290 0.356360 -0.610930
O19   O     O_R   0.407280 0.551710 0.459030 -0.623782
O20   O     O_R   0.408790 0.356680 0.448670 -0.598382
O21   O     O_R   0.407990 0.460100 0.551340 -0.621496
O22   O     O_R   0.592720 0.448290 0.540970 -0.592875
O23   O     O_R   0.591920 0.551710 0.643640 -0.627097
O24   O     O_R   0.951440 0.539900 0.094740 -0.619409
Zn1   Zn    Zn3+2 0.500540 0.430950 0.431450 1.052290
Zn2   Zn    Zn3+2 0.499460 0.569050 0.568550 1.003313
Zn3   Zn    Zn3+2 0.934770 0.430930 0.003810 1.097036
Zn4   Zn    Zn3+2 0.072900 0.569020 0.003770 1.149237
Zn5   Zn    Zn3+2 0.069600 0.000030 0.569620 1.111088
Zn6   Zn    Zn3+2 0.930400 0.000000 0.430410 1.047888
C91   C     C_2   0.254173 0.666976 0.322380 0.915963
O25   O     O_2   0.316285 0.737284 0.349328 -0.626941
O26   O     O_R   0.180865 0.663482 0.327917 -0.777727
H7    H     H_    0.190247 0.723629 0.363912 0.348475
H8    H     H_    0.783310 0.956347 0.513451 0.164860
C92   C     C_2   0.909126 0.719419 0.440513 0.888785
O27   O     O_2   0.982697 0.752034 0.453159 -0.524170
O28   O     O_R   0.839262 0.667591 0.356464 -0.804480
H9    H     H_    0.780945 0.638644 0.352067 0.313575
C93   C     C_2   0.002524 0.676010 0.565315 1.040104
O29   O     O_2   0.001244 0.604557 0.539817 -0.565064
O30   O     O_R   0.080348 0.753853 0.605336 -0.741655
H10   H     H_    0.131375 0.742573 0.610445 0.369767
H11   H     H_    0.738518 0.584268 0.557183 0.184345
C94   C     C_2   0.483957 0.187188 0.584264 0.983520
O31   O     O_2   0.471282 0.120061 0.589454 -0.586290
O32   O     O_R   0.414281 0.190930 0.529003 -0.799766
H12   H     H_    0.357011 0.134631 0.497592 0.377648
C95   C     C_2   0.012811 0.809619 0.916563 0.957408
O33   O     O_2   0.022526 0.880973 0.922297 -0.583398
O34   O     O_R   0.084574 0.801881 0.961940 -0.738773
H13   H     H_    0.140972 0.859641 0.996669 0.354367
C96   C     C_2   0.913701 0.687534 0.963430 0.891542
O35   O     O_2   0.987293 0.729338 0.024045 -0.544236
O36   O     O_R   0.843789 0.670352 0.978230 -0.801828
H14   H     H_    0.785025 0.639666 0.924466 0.320717
H15   H     H_    0.396083 0.618013 0.300847 0.162465
C97   C     C_2   0.800986 0.308243 0.743658 0.942120
O37   O     O_2   0.863948 0.352032 0.741899 -0.657469
O38   O     O_R   0.792433 0.231996 0.749045 -0.783666
H16   H     H_    0.839293 0.216832 0.745779 0.350239
H17   H     H_    0.635842 0.194017 0.676304 0.219021
C98   C     C_2   0.150101 0.181802 0.184564 0.984554
O39   O     O_2   0.081077 0.154119 0.120778 -0.543522
O40   O     O_R   0.227977 0.212065 0.183584 -0.807105
H18   H     H_    0.218497 0.206826 0.126361 0.350471
H19   H     H_    0.467571 0.410799 0.652813 0.133234
H20   H     H_    0.484083 0.420215 0.786654 0.163718
H21   H     H_    0.356269 0.348276 0.795512 0.192444
C99   C     C_2   0.190590 0.265868 0.671086 0.916376
O41   O     O_2   0.192204 0.257156 0.731939 -0.564246
O42   O     O_R   0.119330 0.269008 0.617923 -0.814184
H22   H     H_    0.128468 0.289059 0.577086 0.315269
C100  C     C_2   0.084402 0.011684 0.321841 0.930793
O43   O     O_2   0.136349 0.997904 0.368263 -0.654486
O44   O     O_R   0.004571 0.941111 0.252029 -0.750100
H23   H     H_    0.004134 0.882484 0.234693 0.355741
C101  C     C_2   0.015850 0.037016 0.174214 1.073431
O45   O     O_2   0.942532 0.021087 0.161737 -0.549104
O46   O     O_R   0.027415 0.987338 0.109832 -0.750667
H24   H     H_    0.970112 0.939774 0.055767 0.373532
H25   H     H_    0.274304 0.474437 0.133477 0.206241
H26   H     H_    0.265040 0.305554 0.342603 0.167765
C102  C     C_2   0.674194 0.532068 0.012234 0.922492
O47   O     O_2   0.604267 0.524060 0.005660 -0.615654
O48   O     O_R   0.675919 0.474925 0.943595 -0.810433
H27   H     H_    0.615544 0.429699 0.892720 0.342589
C103  C     C_2   0.148443 0.826472 0.178333 1.034385
O49   O     O_2   0.175065 0.794519 0.132721 -0.520592
O50   O     O_R   0.118619 0.885651 0.168358 -0.766485
H28   H     H_    0.123409 0.898233 0.122199 0.381197
C104  C     C_2   0.319021 0.910710 0.331428 0.970351
O51   O     O_2   0.376785 0.983828 0.391298 -0.591877
O52   O     O_R   0.333616 0.864898 0.267866 -0.739787
H29   H     H_    0.393692 0.899513 0.277990 0.356221
C105  C     C_2   0.169955 0.853847 0.485594 0.993489
O53   O     O_2   0.138986 0.782756 0.482262 -0.556987
O54   O     O_R   0.221935 0.931895 0.564593 -0.766764
H30   H     H_    0.225984 0.921261 0.614102 0.348938
H31   H     H_    0.829755 0.765752 0.288558 0.168448
H32   H     H_    0.695933 0.653478 0.158756 0.182727
H33   H     H_    0.835671 0.569569 0.043842 0.200653
H34   H     H_    0.951272 0.102775 0.917655 0.225002
C106  C     C_2   0.180538 0.474863 0.872144 1.003935
O55   O     O_2   0.217137 0.446445 0.913909 -0.570504
O56   O     O_R   0.217352 0.566238 0.904904 -0.741443
H35   H     H_    0.177948 0.584787 0.872030 0.312812
H36   H     H_    0.124261 0.493251 0.731810 0.182671
C107  C     C_2   0.988551 0.393294 0.572484 0.991603
O57   O     O_2   0.045160 0.447245 0.570960 -0.566249
O58   O     O_R   0.900761 0.361301 0.515370 -0.764988
H37   H     H_    0.892600 0.386792 0.475444 0.375288
C108  C     C_2   0.892495 0.209081 0.534378 1.005022
O59   O     O_2   0.826415 0.160139 0.528493 -0.626556
O60   O     O_R   0.896560 0.199057 0.460531 -0.756941
H38   H     H_    0.840566 0.149509 0.406151 0.349763
H39   H     H_    0.914969 0.014223 0.665423 0.154644
C109  C     C_2   0.882820 0.955262 0.768568 0.945933
O61   O     O_2   0.873750 0.938626 0.822586 -0.592856
O62   O     O_R   0.852019 0.886323 0.687928 -0.820783
H40   H     H_    0.820361 0.826365 0.681112 0.336923
C110  C     C_2   0.040883 0.272688 0.978350 0.947949
O63   O     O_2   0.006449 0.269367 0.021583 -0.528041
O64   O     O_R   0.126575 0.337918 0.016980 -0.840919
H41   H     H_    0.151805 0.330409 0.977748 0.328810
C111  C     C_2   0.089193 0.380916 0.216947 1.013354
O65   O     O_2   0.069625 0.303712 0.194744 -0.583574
O66   O     O_R   0.032855 0.412625 0.229129 -0.747554
H42   H     H_    0.977051 0.364800 0.216072 0.358602
H43   H     H_    0.233738 0.536572 0.382276 0.191834
C112  C     C_2   0.886636 0.580281 0.615338 0.955495
O67   O     O_2   0.961913 0.606954 0.668434 -0.593109
O68   O     O_R   0.820153 0.502542 0.596399 -0.784404
H44   H     H_    0.842618 0.474480 0.630384 0.368772
H45   H     H_    0.534748 0.702440 0.458082 0.146472
H46   H     H_    0.521046 0.828694 0.453616 0.187701

loop_
_geom_bond_atom_site_label_1
_geom_bond_atom_site_label_2
_ccdc_geom_bond_type
C34   O22   A    
C38   H21   S    
C66   C68   A    
C87   C88   A    
C60   C103  S    
O52   H29   S    
C6    H46   S    
C73   C74   A    
O34   H13   S    
O21   Zn2   S    
C105  O53   D    
C43   C44   A    
O7    Zn3   S    
O66   H42   S    
C31   C97   S    
C94   O32   S    
C95   O33   D    
C71   H31   S    
C27   C54   S    
C96   O35   D    
C7    C8    A    
C75   C106  S    
C102  O47   D    
O2    Zn4   S    
C20   H2    S    
O68   H44   S    
C41   C46   A    
C20   C26   A    
C55   O9    A    
C88   H34   S    
C54   O8    A    
C28   C29   A    
C37   C38   A    
O26   H7    S    
C10   C15   A    
C96   O36   S    
C98   O39   D    
C5    C6    A    
C109  O62   S    
C35   H4    S    
C100  O43   D    
O32   H12   S    
C2    C111  S    
C103  O49   D    
C104  O52   S    
C18   C19   A    
C56   C91   S    
C11   C57   S    
C49   C50   A    
C101  O45   D    
O1    Zn1   S    
C108  O60   S    
C23   O20   A    
O48   H27   S    
O18   Zn1   S    
C84   C85   A    
C57   O13   A    
C62   C63   A    
C112  O67   D    
C45   C56   S    
C44   C46   A    
C19   H11   S    
C17   C18   A    
C106  O55   D    
C36   H19   S    
O36   H14   S    
C98   O40   S    
O46   H24   S    
C45   C78   S    
C1    C15   S    
C51   C70   S    
C4    C12   S    
C92   O27   D    
C9    C10   A    
C97   O38   S    
O24   Zn3   S    
C72   C73   A    
C12   O19   A    
C51   O2    A    
C40   C42   A    
O54   H30   S    
C72   H32   S    
C23   C46   S    
C58   O14   A    
C21   C22   A    
C99   O42   S    
C73   C102  S    
C36   C41   A    
C111  O65   D    
C67   C78   S    
C84   C90   A    
C8    H8    S    
O6    Zn4   S    
O64   H41   S    
C95   O34   S    
C102  O48   S    
C51   O24   A    
C48   C101  S    
C4    C45   S    
C107  O58   S    
C78   C89   S    
C63   C105  S    
C28   C31   A    
O56   H35   S    
C30   C34   S    
C55   O10   A    
C58   O15   A    
C47   C48   A    
C74   H33   S    
C54   O7    A    
C24   C25   A    
O11   Zn5   S    
C108  O59   D    
C2    C67   S    
C24   C96   S    
C1    O1    A    
C39   C40   A    
C109  O61   D    
C16   C17   A    
O17   Zn6   S    
O14   Zn5   S    
C33   C94   S    
C25   C26   A    
C107  O57   D    
C18   C112  S    
C52   O4    A    
C61   C104  S    
O58   H37   S    
C60   C61   A    
O4    Zn4   S    
O22   Zn1   S    
C105  O54   S    
C65   C70   A    
C2    C89   S    
C75   C76   A    
C91   O26   S    
O60   H38   S    
C29   C30   A    
C77   C107  S    
C3    C56   S    
C110  O64   S    
C83   C84   A    
C22   C95   S    
C53   O6    A    
C59   O17   A    
O62   H40   S    
C7    H1    S    
C17   C93   S    
C5    H45   S    
C59   O16   A    
C8    C9    A    
C77   C79   A    
C69   C74   A    
C101  O46   S    
O5    Zn3   S    
C76   C77   A    
C111  O66   S    
C9    C11   A    
C3    H43   S    
C97   O37   D    
O28   H9    S    
O15   Zn6   S    
C80   C82   A    
C12   O18   A    
C93   O30   S    
O42   H22   S    
C112  O68   S    
C88   C90   A    
C60   C65   A    
C26   C30   A    
C43   C47   A    
C37   H20   S    
C99   O41   D    
C22   C24   A    
C45   H15   S    
C42   C43   A    
C91   O25   D    
C47   C100  S    
O44   H23   S    
C86   C87   A    
O3    Zn3   S    
C4    C89   S    
O23   Zn2   S    
C44   C50   A    
C34   O23   A    
C79   C108  S    
O10   Zn6   S    
C36   C37   A    
C62   H5    S    
C57   O11   A    
C78   H25   S    
C14   C19   A    
C68   C69   A    
C31   C32   A    
C75   C81   A    
O12   Zn2   S    
C80   C81   A    
C42   C59   S    
C23   O21   A    
C53   C85   S    
C76   H36   S    
C6    C7    A    
O8    Zn4   S    
C25   C27   A    
C56   C67   S    
C29   C35   A    
C52   O3    A    
C53   O5    A    
O9    Zn5   S    
C32   C33   A    
C39   C99   S    
C58   C82   S    
C50   H26   S    
C86   H39   S    
C5    C10   A    
O40   H18   S    
C94   O31   D    
C64   C65   A    
C11   C13   A    
C110  O63   D    
C38   C39   A    
C21   H3    S    
C52   C67   S    
C89   H6    S    
C68   C71   A    
C48   C49   A    
C63   C64   A    
C33   C35   A    
C87   C109  S    
C103  O50   S    
C2    C3    S    
C61   C62   A    
C16   C92   S    
C69   C70   A    
C90   C110  S    
O30   H10   S    
C1    O12   A    
C79   C80   A    
C32   H17   S    
O13   Zn6   S    
C71   C72   A    
C83   C86   A    
O38   H16   S    
C20   C21   A    
C92   O28   S    
C82   C83   A    
C13   C16   A    
C27   C28   A    
O19   Zn2   S    
C14   C15   A    
C104  O51   D    
C40   C41   A    
O20   Zn1   S    
C100  O44   S    
O16   Zn5   S    
O50   H28   S    
C13   C14   A    
C49   C98   S    
C106  O56   S    
C81   C85   A    
C93   O29   D    
C3    C4    S    
C64   C66   A    
C55   C66   S    
