data_mof_unit_62353.cif
_audit_creation_date              2012-10-26T19:29:40-0400
_audit_creation_method            fapswitch 2.2
_symmetry_space_group_name_H-M    P1
_symmetry_Int_Tables_number       1
_space_group_crystal_system       triclinic
_cell_length_a                    15.901101
_cell_length_b                    14.670618
_cell_length_c                    10.679112
_cell_angle_alpha                 89.615276
_cell_angle_beta                  90.029226
_cell_angle_gamma                 89.967663
_cell_volume                      2491.1554528

loop_
_atom_site_label
_atom_site_type_symbol
_atom_type_description
_atom_site_fract_x
_atom_site_fract_y
_atom_site_fract_z
_atom_type_partial_charge
C1    C     C_R   0.339792 0.500021 0.499812 0.542467
C2    C     C_3   0.950847 0.468796 0.372774 -0.236182
C3    C     C_3   0.048428 0.468712 0.371577 0.616860
C4    C     C_1   0.825082 0.500018 0.501085 0.166830
C5    C     C_1   0.174932 0.500092 0.500621 0.204391
C6    C     C_R   0.500305 0.500352 0.258913 0.616259
C7    C     C_1   0.250333 0.500059 0.500167 0.118163
C8    C     C_3   0.586424 0.053229 0.456560 0.694836
C9    C     C_3   0.588795 0.946586 0.469586 0.703682
C10   C     C_3   0.429434 0.053928 0.418748 0.673490
C11   C     C_3   0.435058 0.947298 0.408898 0.669870
C12   C     C_3   0.500553 0.501097 0.122969 -0.057490
C13   C     C_3   0.500728 0.091785 0.505527 -0.133139
C14   C     C_3   0.500034 0.908135 0.505706 -0.125046
C15   C     C_3   0.475979 0.945644 0.639085 0.499432
C16   C     C_3   0.486376 0.053434 0.641840 0.536264
C17   C     C_1   0.500909 0.804850 0.503771 0.357451
C18   C     C_1   0.501270 0.195145 0.503943 0.411944
C19   C     C_R   0.660111 0.499979 0.499879 0.569926
C20   C     C_R   0.499926 0.499657 0.740748 0.605980
C21   C     C_3   0.508993 0.585791 0.038003 0.199279
C22   C     C_3   0.428083 0.465512 0.041535 0.191997
C23   C     C_3   0.049041 0.598124 0.528296 0.691450
C24   C     C_3   0.435654 0.550858 0.957713 0.268573
C25   C     C_3   0.500157 0.498956 0.876469 -0.101298
C26   C     C_3   0.573399 0.534350 0.957276 0.305017
C27   C     C_3   0.492195 0.413583 0.960974 0.327052
C28   C     C_3   0.564733 0.449599 0.042114 0.401125
C29   C     C_3   0.415127 0.097597 0.825269 0.107244
C30   C     C_3   0.327631 0.119638 0.873814 -0.305725
C31   C     C_3   0.380800 0.849425 0.749505 0.032344
C32   C     C_3   0.289033 0.820563 0.752039 -0.250592
C33   C     C_3   0.536844 0.736532 0.991260 0.040466
C34   C     C_3   0.049239 0.433814 0.604818 0.682787
C35   C     C_3   0.528183 0.832976 0.040681 -0.242412
C36   C     C_3   0.298339 0.402144 0.000811 0.022976
C37   C     C_3   0.219218 0.363388 0.060745 -0.249007
C38   C     C_3   0.951115 0.433462 0.604418 0.724148
C39   C     C_3   0.950926 0.598175 0.527390 0.723069
C40   C     C_1   0.749641 0.499947 0.500435 0.158454
C41   C     C_3   0.082773 0.500179 0.501320 -0.076133
C42   C     C_3   0.917266 0.500242 0.501989 -0.196829
Cu1   Cu    Cu3+1 0.499910 0.589920 0.499840 1.180990
Cu2   Cu    Cu3+1 0.499910 0.410080 0.499840 1.230628
F1    F     F_    0.370208 0.603428 0.911699 -0.614353
F2    F     F_    0.652918 0.091043 0.522410 -0.418394
F3    F     F_    0.647127 0.921497 0.560117 -0.420044
F4    F     F_    0.648588 0.567475 0.910600 -0.527719
F5    F     F_    0.484924 0.324896 0.919494 -0.572028
F6    F     F_    0.630738 0.397947 0.088192 -0.481975
F7    F     F_    0.920697 0.629288 0.641262 -0.423406
F8    F     F_    0.921057 0.458599 0.721186 -0.428758
F9    F     F_    0.078283 0.627814 0.643502 -0.475116
F10   F     F_    0.078658 0.460209 0.721464 -0.494084
F11   F     F_    0.079219 0.346347 0.584010 -0.464519
F12   F     F_    0.615542 0.908730 0.357735 -0.487313
F13   F     F_    0.079013 0.658876 0.438697 -0.451762
F14   F     F_    0.921909 0.346062 0.580930 -0.472497
F15   F     F_    0.921717 0.657363 0.435153 -0.474889
F16   F     F_    0.076759 0.526423 0.277230 -0.502940
F17   F     F_    0.077137 0.381751 0.344438 -0.511554
F18   F     F_    0.597278 0.077983 0.331979 -0.457249
F19   F     F_    0.351397 0.078571 0.465673 -0.475406
F20   F     F_    0.356337 0.909097 0.428671 -0.483011
F21   F     F_    0.435760 0.092620 0.300181 -0.490728
F22   F     F_    0.459125 0.923595 0.288781 -0.540768
F23   F     F_    0.557166 0.075821 0.712675 -0.501517
F24   F     F_    0.530736 0.908480 0.728014 -0.587551
H1    H     H_    0.926617 0.514551 0.297407 0.236370
H2    H     H_    0.269085 0.798360 0.657325 0.235179
H3    H     H_    0.280633 0.762980 0.818882 0.193112
H4    H     H_    0.248981 0.878475 0.782090 0.202599
H5    H     H_    0.494586 0.729335 0.908783 0.163015
H6    H     H_    0.603166 0.726619 0.961550 0.240092
H7    H     H_    0.568867 0.841853 0.124237 0.274445
H8    H     H_    0.547642 0.882904 0.967820 0.200339
H9    H     H_    0.461716 0.846313 0.066585 0.214124
H10   H     H_    0.327002 0.347978 0.942234 0.172325
H11   H     H_    0.279701 0.460690 0.940136 0.221854
H12   H     H_    0.926905 0.399336 0.351410 0.237314
H13   H     H_    0.188308 0.416128 0.119010 0.258890
H14   H     H_    0.174712 0.341239 0.986783 0.181302
H15   H     H_    0.235428 0.303767 0.120726 0.206681
H16   H     H_    0.458843 0.151782 0.857181 0.259582
H17   H     H_    0.435094 0.031150 0.866448 0.184778
H18   H     H_    0.282763 0.065665 0.845084 0.205222
H19   H     H_    0.328712 0.123381 0.977639 0.166848
H20   H     H_    0.306227 0.186271 0.835408 0.186760
H21   H     H_    0.399073 0.870245 0.845540 0.151319
H22   H     H_    0.418880 0.789618 0.720725 0.163697
N1    N     N_1   0.501390 0.724970 0.502570 -0.157334
N2    N     N_1   0.501390 0.275030 0.502570 -0.131441
O1    O     O_R   0.379360 0.575970 0.499860 -0.496456
O2    O     O_3   0.390220 0.923627 0.665578 -0.496998
O3    O     O_3   0.516050 0.674361 0.087562 -0.492543
O4    O     O_3   0.354018 0.430107 0.095886 -0.511263
O5    O     O_R   0.379360 0.424030 0.499860 -0.495220
O6    O     O_R   0.499910 0.575920 0.316720 -0.457317
O7    O     O_R   0.499910 0.424080 0.316720 -0.459394
O8    O     O_R   0.620490 0.575900 0.499870 -0.473681
O9    O     O_R   0.620490 0.424100 0.499870 -0.473756
O10   O     O_R   0.499950 0.575950 0.683010 -0.496414
O11   O     O_R   0.499950 0.424050 0.683010 -0.462069
O12   O     O_3   0.413265 0.095512 0.692855 -0.495974

loop_
_geom_bond_atom_site_label_1
_geom_bond_atom_site_label_2
_ccdc_geom_bond_type
C39   F7    S    
C21   C26   S    
C8    C13   S    
C10   F19   S    
C17   N1    T    
Cu1   O6    S    
Cu1   Cu2   S    
C15   O2    S    
C32   H4    S    
C20   O11   A    
C35   H7    S    
C13   C18   S    
C12   C28   S    
C24   F1    S    
C6    O6    A    
C36   C37   S    
C38   C42   S    
C6    C12   S    
C11   C14   S    
C38   F8    S    
C20   C25   S    
C15   C16   S    
C12   C22   S    
C39   C42   S    
Cu1   O1    S    
C38   F14   S    
C28   F6    S    
C16   O12   S    
C4    C40   T    
C8    C9    S    
C31   H21   S    
C30   H18   S    
C2    H1    S    
C29   H17   S    
Cu2   N2    S    
C11   F22   S    
C26   F4    S    
C3    F16   S    
C34   F11   S    
C34   C38   S    
C14   C17   S    
C37   H13   S    
C34   C41   S    
C33   O3    S    
Cu2   O11   S    
C23   F9    S    
C32   H3    S    
C3    F17   S    
C35   H8    S    
C16   F23   S    
Cu1   O8    S    
C29   H16   S    
C11   F20   S    
C19   C40   S    
C1    O5    A    
C5    C7    T    
C32   H2    S    
C21   O3    S    
C25   C26   S    
C12   C21   S    
C10   C13   S    
Cu1   N1    S    
C29   O12   S    
C9    C14   S    
C29   C30   S    
Cu2   O5    S    
C36   O4    S    
C31   C32   S    
C19   O8    A    
C31   H22   S    
C39   F15   S    
C9    F12   S    
C24   C25   S    
C33   H5    S    
C34   F10   S    
C22   C27   S    
C22   C24   S    
C37   H14   S    
C21   C24   S    
C30   H20   S    
C10   F21   S    
C23   F13   S    
C5    C41   S    
C3    C41   S    
C1    C7    S    
C22   O4    S    
Cu2   O7    S    
C36   H11   S    
Cu2   O9    S    
C9    F3    S    
C25   C27   S    
C31   O2    S    
C26   C28   S    
C23   C41   S    
C18   N2    T    
C6    O7    A    
C2    C3    S    
Cu1   O10   S    
C36   H10   S    
C19   O9    A    
C4    C42   S    
C2    C42   S    
C23   C39   S    
C15   F24   S    
C33   C35   S    
C35   H9    S    
C8    F2    S    
C2    H12   S    
C10   C11   S    
C33   H6    S    
C20   O10   A    
C1    O1    A    
C13   C16   S    
C27   C28   S    
C14   C15   S    
C37   H15   S    
C30   H19   S    
C27   F5    S    
C8    F18   S    
