data_mof_unit_24412.cif
_audit_creation_date              2012-12-10T16:49:24-0500
_audit_creation_method            fapswitch 2.2
_symmetry_space_group_name_H-M    P1
_symmetry_Int_Tables_number       1
_space_group_crystal_system       triclinic
_cell_length_a                    19.276108
_cell_length_b                    8.739519
_cell_length_c                    7.429249
_cell_angle_alpha                 102.219534
_cell_angle_beta                  94.649747
_cell_angle_gamma                 92.324574
_cell_volume                      1217.03703653

loop_
_atom_site_label
_atom_site_type_symbol
_atom_type_description
_atom_site_fract_x
_atom_site_fract_y
_atom_site_fract_z
_atom_type_partial_charge
C1    C     C_R   0.495571 0.200687 0.455498 0.883745
C2    C     C_R   0.504428 0.799313 0.544502 0.883744
C3    C     C_2   0.482906 0.035710 0.438442 -0.031502
C4    C     C_2   0.517093 0.964289 0.561557 -0.031498
C5    C     C_R   0.367449 0.499650 0.501672 0.798319
C6    C     C_R   0.632551 0.500351 0.498328 0.798319
C7    C     C_R   0.261889 0.564791 0.667136 -0.199120
C8    C     C_R   0.738113 0.435224 0.332867 -0.199121
C9    C     C_R   0.189547 0.568989 0.669945 0.150410
C10   C     C_R   0.810456 0.431040 0.330059 0.150412
C11   C     C_R   0.146044 0.503228 0.506544 0.062483
C12   C     C_R   0.853957 0.496808 0.493461 0.062483
C13   C     C_R   0.175772 0.435377 0.342538 0.137574
C14   C     C_R   0.824227 0.564650 0.657466 0.137573
C15   C     C_R   0.248285 0.435870 0.342928 -0.185204
C16   C     C_R   0.751714 0.564146 0.657075 -0.185209
C17   C     C_R   0.291461 0.499696 0.504436 -0.112533
C18   C     C_R   0.708539 0.500313 0.495566 -0.112532
C19   C     C_R   0.929857 0.496749 0.494622 0.406586
C20   C     C_R   0.070144 0.503293 0.505387 0.406585
Cu1   Cu    Cu3+1 0.507710 0.517380 0.684380 0.938506
Cu2   Cu    Cu3+1 0.492290 0.482620 0.315620 0.938506
H1    H     H_    0.295245 0.615725 0.791883 0.167139
H2    H     H_    0.704758 0.384283 0.208120 0.167137
H3    H     H_    0.271182 0.384030 0.217326 0.157032
H4    H     H_    0.728816 0.615981 0.782676 0.157032
H5    H     H_    0.445513 0.379257 0.948646 0.226605
H6    H     H_    0.554486 0.620744 0.051354 0.226605
N1    N     N_R   0.033467 0.590844 0.405234 -0.231112
N2    N     N_R   0.966535 0.409198 0.594776 -0.231109
N3    N     N_R   0.964312 0.587949 0.400263 -0.230395
N4    N     N_R   0.035690 0.412094 0.599748 -0.230388
N5    N     N_2   0.480680 0.456420 0.038530 -0.220014
N6    N     N_2   0.519320 0.543580 0.961470 -0.220015
O1    O     O_R   0.505010 0.286130 0.619770 -0.590902
O2    O     O_R   0.494990 0.713870 0.380230 -0.590903
O3    O     O_R   0.491990 0.256780 0.308370 -0.583107
O4    O     O_R   0.508010 0.743220 0.691630 -0.583107
O5    O     O_R   0.406650 0.514660 0.655750 -0.589543
O6    O     O_R   0.593350 0.485340 0.344250 -0.589542
O7    O     O_R   0.393640 0.485310 0.344340 -0.585012
O8    O     O_R   0.606360 0.514690 0.655660 -0.585012
C21   C     C_3   0.161942 0.648747 0.848253 -0.851537
H7    H     H_    0.104318 0.648578 0.840197 0.247011
H8    H     H_    0.179877 0.589392 0.960190 0.241449
H9    H     H_    0.182673 0.772872 0.886450 0.234841
C22   C     C_3   0.838062 0.351282 0.151753 -0.851532
H10   H     H_    0.895688 0.351501 0.159794 0.247013
H11   H     H_    0.817351 0.227139 0.113596 0.234844
H12   H     H_    0.820107 0.410599 0.039796 0.241443
C23   C     C_3   0.130985 0.358216 0.168154 -0.842993
H13   H     H_    0.098382 0.445521 0.118930 0.253710
H14   H     H_    0.162889 0.306614 0.054995 0.230283
H15   H     H_    0.096561 0.262537 0.196022 0.243632
C24   C     C_3   0.869011 0.641810 0.831855 -0.842989
H16   H     H_    0.837105 0.693407 0.945011 0.230284
H17   H     H_    0.901614 0.554504 0.881080 0.253711
H18   H     H_    0.903435 0.737490 0.803994 0.243630
C25   C     C_3   0.425308 0.955370 0.292760 -0.842176
H19   H     H_    0.394633 0.041906 0.235423 0.223435
H20   H     H_    0.447926 0.879263 0.175387 0.263003
H21   H     H_    0.387935 0.885489 0.354043 0.229378
C26   C     C_3   0.574693 0.044629 0.707238 -0.842159
H22   H     H_    0.605370 0.958092 0.764571 0.223430
H23   H     H_    0.612065 0.114509 0.645950 0.229374
H24   H     H_    0.552075 0.120737 0.824615 0.263001

loop_
_geom_bond_atom_site_label_1
_geom_bond_atom_site_label_2
_ccdc_geom_bond_type
C1    C3    S    
C2    C4    S    
C21   H7    S    
C26   H23   S    
C15   C17   A    
Cu1   O1    S    
C8    C18   A    
C11   C13   A    
C2    O4    A    
C22   H10   S    
Cu1   O5    S    
C13   C15   A    
C1    O3    A    
C24   H16   S    
C23   H15   S    
Cu2   O6    S    
C24   H17   S    
N5    N6    D    
C26   H24   S    
C19   N3    A    
C25   H19   S    
N1    N3    A    
Cu1   Cu2   S    
H5    N5    S    
N2    N4    A    
C21   H8    S    
C4    C26   S    
C9    C11   A    
C23   H13   S    
C10   C12   A    
C7    H1    S    
C12   C19   S    
C16   C18   A    
C8    H2    S    
C12   C14   A    
C14   C24   S    
C22   H12   S    
C14   C16   A    
C20   N1    A    
C5    O5    A    
C16   H4    S    
C6    C18   S    
C21   H9    S    
C6    O6    A    
C11   C20   S    
C25   H20   S    
Cu2   O7    S    
C9    C21   S    
H6    N6    S    
Cu1   O8    S    
C5    C17   S    
C1    O1    A    
C15   H3    S    
C22   H11   S    
C20   N4    A    
C24   H18   S    
C2    O2    A    
C10   C22   S    
C7    C9    A    
Cu2   N5    S    
C5    O7    A    
C25   H21   S    
Cu1   N6    S    
C7    C17   A    
C13   C23   S    
C19   N2    A    
C6    O8    A    
Cu2   O3    S    
C8    C10   A    
Cu2   O2    S    
Cu1   O4    S    
C3    C4    D    
C26   H22   S    
C23   H14   S    
C3    C25   S    
