data_mof_unit_14503.cif
_audit_creation_date              2013-03-05T16:25:43-0500
_audit_creation_method            fapswitch 2.2
_symmetry_space_group_name_H-M    P1
_symmetry_Int_Tables_number       1
_space_group_crystal_system       triclinic
_cell_length_a                    10.843037
_cell_length_b                    15.131636
_cell_length_c                    13.848932
_cell_angle_alpha                 90.109669
_cell_angle_beta                  90.28233
_cell_angle_gamma                 89.952977
_cell_volume                      2272.20178679

loop_
_atom_site_label
_atom_site_type_symbol
_atom_site_description
_atom_site_fract_x
_atom_site_fract_y
_atom_site_fract_z
_atom_type_partial_charge
O1    O     O_R   0.500010 0.371450 0.581430 -0.578445
O2    O     O_R   0.499990 0.628550 0.418570 -0.599130
O3    O     O_R   0.500010 0.371460 0.418560 -0.598934
O4    O     O_R   0.499990 0.628540 0.581440 -0.585284
C1    C     C_R   0.499612 0.330009 0.499898 0.779800
C2    C     C_R   0.500620 0.670235 0.500073 0.795512
O5    O     O_R   0.319640 0.500000 0.581430 -0.596154
O6    O     O_R   0.680360 0.500000 0.418570 -0.586116
O7    O     O_R   0.319640 0.500010 0.418560 -0.570111
O8    O     O_R   0.680360 0.499990 0.581440 -0.580414
C3    C     C_R   0.262135 0.501923 0.499559 0.804533
C4    C     C_R   0.737805 0.497460 0.500354 0.801163
Cu1   Cu    Cu3+1 0.500000 0.499990 0.596430 0.951306
Cu2   Cu    Cu3+1 0.500000 0.500010 0.403570 0.946178
H1    H     H_    0.269442 0.682344 0.108498 0.174647
H2    H     H_    0.729619 0.299043 0.881233 0.173146
C5    C     C_R   0.208521 0.704834 0.255512 0.379630
C6    C     C_R   0.766278 0.291555 0.727646 0.396113
C7    C     C_R   0.154674 0.664964 0.336770 -0.221673
C8    C     C_R   0.820977 0.335236 0.649202 -0.200758
H3    H     H_    0.140109 0.702876 0.402157 0.166813
H4    H     H_    0.817053 0.306272 0.577648 0.150779
C9    C     C_R   0.118482 0.576028 0.333859 0.071583
C10   C     C_R   0.881182 0.416474 0.662647 0.073857
C11   C     C_R   0.135987 0.526506 0.249397 -0.116653
C12   C     C_R   0.887934 0.453728 0.755284 -0.159164
H5    H     H_    0.108004 0.457856 0.246265 0.132682
H6    H     H_    0.934784 0.516085 0.766787 0.137932
C13   C     C_R   0.191021 0.565211 0.168991 -0.199453
C14   C     C_R   0.832671 0.411213 0.833279 -0.211503
H7    H     H_    0.205169 0.526613 0.104092 0.152697
H8    H     H_    0.837157 0.440617 0.904521 0.154618
C15   C     C_R   0.227570 0.653699 0.171937 -0.175943
C16   C     C_R   0.771343 0.330958 0.819624 -0.166608
C17   C     C_R   0.932647 0.531139 0.421121 -0.229185
C18   C     C_R   0.067274 0.466708 0.578322 -0.233466
H9    H     H_    0.880666 0.557993 0.360781 0.162192
H10   H     H_    0.119465 0.439709 0.638466 0.152729
C19   C     C_R   0.871663 0.495496 0.500839 -0.088206
C20   C     C_R   0.128237 0.502452 0.498616 -0.083353
C21   C     C_R   0.939509 0.461602 0.579888 0.027017
C22   C     C_R   0.060299 0.534973 0.418960 0.019985
C23   C     C_R   0.443223 0.095782 0.574943 -0.078712
C24   C     C_R   0.486377 0.904945 0.413077 -0.092942
H11   H     H_    0.397519 0.061364 0.633135 0.130605
H12   H     H_    0.471665 0.939036 0.345317 0.163483
C25   C     C_R   0.443490 0.187659 0.575292 -0.103318
C26   C     C_R   0.487685 0.813140 0.413141 -0.122577
H13   H     H_    0.399338 0.222594 0.634109 0.141681
H14   H     H_    0.476115 0.778462 0.345239 0.170759
C27   C     C_R   0.499006 0.233850 0.499555 -0.028770
C28   C     C_R   0.501889 0.766871 0.500081 -0.060651
C29   C     C_R   0.554473 0.187666 0.423584 -0.164149
C30   C     C_R   0.517465 0.813643 0.586808 -0.179798
H15   H     H_    0.598647 0.222584 0.364947 0.145071
H16   H     H_    0.530056 0.779354 0.654734 0.156705
C31   C     C_R   0.556219 0.095852 0.424062 -0.124306
C32   C     C_R   0.518106 0.905524 0.586567 -0.134182
H17   H     H_    0.602806 0.061550 0.366040 0.130832
H18   H     H_    0.532693 0.940179 0.654142 0.158759
C33   C     C_R   0.500322 0.049112 0.499617 0.108664
C34   C     C_R   0.501594 0.951932 0.499782 0.070090
C35   C     C_R   0.546862 0.572040 0.108099 -0.277553
C36   C     C_R   0.410831 0.452607 0.891555 -0.274696
H19   H     H_    0.582187 0.630158 0.072344 0.139100
H20   H     H_    0.338435 0.416173 0.927209 0.128166
C37   C     C_R   0.547168 0.570289 0.209602 0.092581
C38   C     C_R   0.413208 0.452888 0.790051 0.099139
H21   H     H_    0.585110 0.625829 0.248876 0.122720
H22   H     H_    0.344726 0.415576 0.750212 0.115171
N1    N     N_R   0.500000 0.500020 0.258690 -0.170224
N2    N     N_R   0.500000 0.499980 0.741310 -0.175225
C39   C     C_R   0.452418 0.429912 0.208939 0.090530
C40   C     C_R   0.586474 0.547296 0.790940 0.103258
H23   H     H_    0.414112 0.374515 0.247716 0.126110
H24   H     H_    0.655192 0.584388 0.751794 0.123119
C41   C     C_R   0.452439 0.428284 0.107415 -0.291257
C42   C     C_R   0.588479 0.547832 0.892469 -0.280474
H25   H     H_    0.416633 0.370331 0.071125 0.138900
H26   H     H_    0.660861 0.584262 0.928845 0.128835
C43   C     C_R   0.499647 0.500177 0.054554 0.119476
C44   C     C_R   0.499640 0.500213 0.945212 0.126384
N3    N     N_R   0.241728 0.796875 0.257349 0.101727
O9    O     O_R   0.301567 0.831990 0.185791 -0.384474
O10   O     O_R   0.210170 0.846909 0.329698 -0.371941
N4    N     N_R   0.708026 0.207047 0.714242 0.112211
O11   O     O_R   0.640050 0.173150 0.781914 -0.380089
O12   O     O_R   0.726900 0.161484 0.635892 -0.373099

loop_
_geom_bond_atom_site_label_1
_geom_bond_atom_site_label_2
_geom_bond_distance
_ccdc_geom_bond_type
C32   C34   1.403784 A    
O5    Cu1   1.965634 S    
C27   C29   1.399924 A    
C35   H19   1.081377 S    
Cu2   N1    2.006432 S    
C17   C19   1.398944 A    
C43   C44   1.514272 S    
C19   C21   1.412908 A    
O5    C3    1.291635 A    
C6    N4    1.438006 S    
C9    C22   1.477737 S    
C40   H24   1.081632 S    
C35   C43   1.410158 A    
O1    C1    1.290506 A    
C36   C38   1.406101 A    
C7    H3    1.083205 S    
C10   C12   1.401927 A    
C42   H26   1.081377 S    
C31   H17   1.082701 S    
C32   H18   1.082854 S    
C13   C15   1.397146 A    
O4    Cu1   1.956613 S    
C17   C22   1.385867 A    
H2    C16   1.082401 S    
C8    C10   1.403975 A    
C24   H12   1.082777 S    
C37   N1    1.364323 A    
C38   N2    1.363186 A    
C20   C22   1.412524 A    
Cu1   Cu2   2.670907 S    
C10   C21   1.480113 S    
C39   H23   1.080768 S    
C18   C21   1.387850 A    
O2    C2    1.291953 A    
C5    C15   1.407005 A    
C28   C30   1.402475 A    
C35   C37   1.405996 A    
C29   H15   1.083473 S    
C11   C13   1.395955 A    
C30   H16   1.083173 S    
C14   C16   1.397111 A    
N4    O12   1.301411 A    
C3    C20   1.451876 S    
C18   C20   1.399298 A    
N2    C40   1.362745 A    
N1    C39   1.364151 A    
C29   C31   1.389436 A    
N4    O11   1.301519 A    
C25   C27   1.400261 A    
C24   C34   1.403404 A    
C5    N3    1.438957 S    
C36   H20   1.081448 S    
C7    C9    1.402548 A    
O7    Cu2   1.967656 S    
C6    C16   1.406247 A    
C42   C44   1.410926 A    
N3    O9    1.301649 A    
C41   C43   1.410321 A    
O6    C4    1.290520 A    
C41   H25   1.081329 S    
C23   H11   1.082708 S    
O7    C3    1.286347 A    
C36   C44   1.410830 A    
O3    Cu2   1.956613 S    
O8    C4    1.287312 A    
O4    C2    1.292553 A    
N3    O10   1.301629 A    
C8    H4    1.083429 S    
C12   C14   1.396180 A    
C11   H5    1.083174 S    
O1    Cu1   1.955688 S    
C23   C33   1.404673 A    
C30   C32   1.390345 A    
O6    Cu2   1.965634 S    
C17   H9    1.085068 S    
O3    C1    1.290369 A    
O8    Cu1   1.967653 S    
C31   C33   1.404356 A    
Cu1   N2    2.006434 S    
C25   H13   1.083485 S    
C12   H6    1.083129 S    
C2    C28   1.462335 S    
C4    C19   1.451691 S    
C18   H10   1.084982 S    
C13   H7    1.082443 S    
C14   H8    1.082413 S    
C26   H14   1.082798 S    
C5    C7    1.407453 A    
C6    C8    1.406619 A    
C9    C11   1.401556 A    
C33   C34   1.470540 S    
O2    Cu2   1.955688 S    
C26   C28   1.401713 A    
C38   H22   1.081666 S    
C40   C42   1.406140 A    
C39   C41   1.406169 A    
C1    C27   1.455065 S    
C37   H21   1.080740 S    
C23   C25   1.390251 A    
H1    C15   1.082404 S    
C24   C26   1.389226 A    
