data_mof_unit_11660.cif
_audit_creation_date              2012-10-26T19:28:20-0400
_audit_creation_method            fapswitch 2.2
_symmetry_space_group_name_H-M    P1
_symmetry_Int_Tables_number       1
_space_group_crystal_system       triclinic
_cell_length_a                    14.722231
_cell_length_b                    14.57703
_cell_length_c                    14.343006
_cell_angle_alpha                 77.978385
_cell_angle_beta                  102.323754
_cell_angle_gamma                 114.460437
_cell_volume                      2712.2748324

loop_
_atom_site_label
_atom_site_type_symbol
_atom_type_description
_atom_site_fract_x
_atom_site_fract_y
_atom_site_fract_z
_atom_type_partial_charge
C1    C     C_R   0.880510 0.312113 0.514930 0.541236
C2    C     C_R   0.489080 0.127468 0.470374 0.242381
C3    C     C_R   0.612474 0.900375 0.529377 -0.106490
C4    C     C_R   0.387078 0.099691 0.473041 -0.114221
C5    C     C_R   0.722687 0.677715 0.353018 0.221273
C6    C     C_R   0.273885 0.317595 0.640753 0.225152
C7    C     C_R   0.801588 0.643908 0.376166 0.050736
C8    C     C_R   0.196915 0.353877 0.621090 0.053925
C9    C     C_R   0.712990 0.507217 0.487158 0.019276
C10   C     C_R   0.287797 0.493906 0.514129 0.017053
C11   C     C_R   0.629536 0.536631 0.467018 -0.038164
C12   C     C_R   0.119475 0.687887 0.485213 0.539801
C13   C     C_R   0.370984 0.464079 0.533650 -0.038701
C14   C     C_R   0.637254 0.625544 0.400460 0.034342
C15   C     C_R   0.362075 0.373480 0.597992 0.032845
C16   C     C_R   0.000012 0.500073 0.668841 0.545554
C17   C     C_R   0.999998 0.499949 0.331157 0.545763
C18   C     C_R   0.540017 0.481950 0.511082 0.030767
C19   C     C_R   0.460965 0.519373 0.490326 0.031150
C20   C     C_R   0.474468 0.610688 0.426908 -0.129212
C21   C     C_R   0.526475 0.390496 0.574234 -0.127213
C22   C     C_R   0.560050 0.661661 0.382270 -0.118922
C23   C     C_R   0.639274 0.078688 0.509883 0.015155
C24   C     C_R   0.439927 0.338197 0.617136 -0.117103
C25   C     C_1   0.999948 0.500111 0.771160 -0.046049
C26   C     C_1   0.000078 0.499960 0.228831 -0.048567
C27   C     C_1   0.999955 0.500114 0.856586 -0.046803
C28   C     C_1   0.000075 0.499997 0.143398 -0.048836
C29   C     C_1   0.999996 0.500088 0.957267 -0.006386
C30   C     C_1   0.000036 0.500050 0.042711 -0.006964
C31   C     C_R   0.812927 0.204278 0.519980 -0.017946
C32   C     C_R   0.186948 0.795722 0.480671 -0.019170
C33   C     C_R   0.780912 0.027438 0.522831 -0.128528
C34   C     C_R   0.360497 0.921467 0.492283 0.016292
C35   C     C_R   0.218423 0.972452 0.477441 -0.138535
C36   C     C_R   0.848256 0.128505 0.521109 -0.132684
C37   C     C_R   0.151271 0.871370 0.478916 -0.134212
C38   C     C_R   0.710070 0.177988 0.519483 -0.106427
C39   C     C_R   0.289961 0.822178 0.482133 -0.105412
C40   C     C_3   0.455305 0.762184 0.664548 -0.019332
C41   C     C_3   0.395058 0.651784 0.700733 -0.362126
C42   C     C_3   0.543447 0.238507 0.338330 -0.014210
C43   C     C_3   0.603161 0.349056 0.302110 -0.368767
C44   C     C_3   0.712787 0.742393 0.194622 -0.023926
C45   C     C_R   0.677176 0.001997 0.518556 -0.006733
C46   C     C_3   0.713611 0.836202 0.123921 -0.365795
C47   C     C_3   0.206382 0.145611 0.650952 -0.023535
C48   C     C_3   0.208132 0.048116 0.713346 -0.364551
C49   C     C_R   0.322360 0.998041 0.483147 -0.008798
C50   C     C_R   0.532809 0.052721 0.496219 -0.018032
C51   C     C_R   0.466965 0.947523 0.506533 -0.018532
C52   C     C_R   0.510643 0.872758 0.532557 0.241002
Cu1   Cu    Cu3+1 0.081740 0.475690 0.523180 0.908067
Cu2   Cu    Cu3+1 0.918260 0.524310 0.476820 0.908033
H1    H     H_    0.642217 0.841292 0.543139 0.135617
H2    H     H_    0.188989 0.030704 0.471204 0.096263
H3    H     H_    0.565555 0.730579 0.333147 0.159055
H4    H     H_    0.433862 0.268441 0.665063 0.158013
H5    H     H_    0.285917 0.558777 0.463178 0.139679
H6    H     H_    0.715904 0.443834 0.539839 0.138905
H7    H     H_    0.129179 0.312008 0.654204 0.138948
H8    H     H_    0.869171 0.685362 0.342737 0.136554
H9    H     H_    0.418790 0.809816 0.679846 0.136412
H10   H     H_    0.533208 0.784351 0.704873 0.131680
H11   H     H_    0.429957 0.602142 0.687262 0.166017
H12   H     H_    0.357240 0.158709 0.459146 0.124615
H13   H     H_    0.393952 0.642955 0.779310 0.094650
H14   H     H_    0.316317 0.627952 0.663181 0.188496
H15   H     H_    0.465267 0.216253 0.298633 0.134749
H16   H     H_    0.579814 0.191149 0.322209 0.140019
H17   H     H_    0.568252 0.398390 0.316218 0.159071
H18   H     H_    0.682127 0.373080 0.339075 0.187842
H19   H     H_    0.603631 0.358111 0.223394 0.093316
H20   H     H_    0.637277 0.680078 0.180937 0.125811
H21   H     H_    0.771857 0.719759 0.180981 0.123770
H22   H     H_    0.788391 0.899551 0.134735 0.163593
H23   H     H_    0.420010 0.645353 0.409632 0.119369
H24   H     H_    0.698415 0.818887 0.048963 0.093077
H25   H     H_    0.654520 0.859985 0.134991 0.155223
H26   H     H_    0.238343 0.153938 0.584397 0.119663
H27   H     H_    0.126589 0.138477 0.631074 0.121905
H28   H     H_    0.176280 0.036738 0.780376 0.162523
H29   H     H_    0.162409 0.982218 0.673391 0.102545
H30   H     H_    0.286843 0.052352 0.732383 0.156321
H31   H     H_    0.581057 0.355978 0.591600 0.120100
H32   H     H_    0.312654 0.764538 0.470817 0.184097
H33   H     H_    0.687742 0.235790 0.531049 0.184034
H34   H     H_    0.071702 0.852733 0.477068 0.131749
H35   H     H_    0.927680 0.147071 0.522071 0.120006
H36   H     H_    0.809911 0.969017 0.527868 0.114435
N1    N     N_R   0.795420 0.560790 0.441960 -0.267558
N2    N     N_R   0.204580 0.439210 0.558040 -0.268597
O1    O     O_R   0.977910 0.338120 0.530560 -0.503133
O2    O     O_3   0.542896 0.228265 0.438310 -0.591134
O3    O     O_3   0.732293 0.765663 0.289455 -0.577617
O4    O     O_3   0.263472 0.228663 0.703002 -0.574411
O5    O     O_R   0.022090 0.661880 0.469440 -0.498489
O6    O     O_R   0.839850 0.379180 0.491410 -0.507381
O7    O     O_R   0.160150 0.620820 0.508590 -0.508245
O8    O     O_R   0.069040 0.479460 0.643530 -0.481490
O9    O     O_R   0.930960 0.520540 0.356470 -0.486926
O10   O     O_R   0.930990 0.520530 0.604380 -0.476074
O11   O     O_R   0.069010 0.479470 0.395620 -0.475760
O12   O     O_3   0.456853 0.772016 0.564817 -0.590224

loop_
_geom_bond_atom_site_label_1
_geom_bond_atom_site_label_2
_ccdc_geom_bond_type
C36   H35   S    
C43   H19   S    
C37   H34   S    
C11   C18   A    
C40   C41   S    
C43   H18   S    
C23   C45   A    
C27   C29   S    
C18   C21   A    
C33   C45   A    
Cu2   O9    S    
C19   C20   A    
C42   H16   S    
C9    N1    A    
C22   H3    S    
C46   H22   S    
C41   H13   S    
Cu1   Cu2   S    
Cu1   O7    S    
C34   C51   A    
C40   H9    S    
C20   H23   S    
C17   C26   S    
C35   C37   A    
C46   H25   S    
C11   C14   A    
C1    C31   S    
C33   C36   A    
C18   C19   A    
C32   C39   A    
C17   O9    A    
C12   O7    A    
C2    C50   A    
C6    C15   A    
C3    H1    S    
C35   C49   A    
C47   O4    S    
Cu2   O5    S    
C8    N2    A    
C8    H7    S    
C10   N2    A    
C12   C32   S    
C47   H26   S    
C5    O3    S    
C44   C46   S    
C41   H14   S    
Cu1   O8    S    
C21   H31   S    
C13   C19   A    
Cu1   O1    S    
C51   C52   A    
C24   H4    S    
C2    O2    S    
C5    C7    A    
C16   O8    A    
C23   C50   A    
C6    C8    A    
C3    C45   A    
C42   H15   S    
C34   C39   A    
C44   H21   S    
C2    C4    A    
C7    H8    S    
C29   C30   T    
C40   O12   S    
C47   C48   S    
C7    N1    A    
Cu1   N2    S    
C50   C51   A    
C5    C14   A    
C32   C37   A    
C44   H20   S    
C9    C11   A    
C12   O5    A    
C16   O10   A    
C15   C24   A    
C20   C22   A    
C6    O4    S    
C13   C15   A    
C42   C43   S    
C46   H24   S    
C16   C25   S    
C52   O12   S    
C34   C49   A    
C43   H17   S    
C35   H2    S    
C42   O2    S    
Cu2   O10   S    
C10   C13   A    
C1    O6    A    
C41   H11   S    
C3    C52   A    
C48   H29   S    
C25   C27   T    
C23   C38   A    
C4    C49   A    
C26   C28   T    
C40   H10   S    
C31   C38   A    
C38   H33   S    
C9    H6    S    
C14   C22   A    
C28   C30   S    
C10   H5    S    
C17   O11   A    
Cu2   N1    S    
C44   O3    S    
C33   H36   S    
C4    H12   S    
Cu1   O11   S    
C48   H28   S    
C47   H27   S    
C48   H30   S    
C1    O1    A    
C21   C24   A    
C31   C36   A    
Cu2   O6    S    
C39   H32   S    
