data_mof_unit_67995.cif
_audit_creation_date              2013-03-05T15:41:27-0500
_audit_creation_method            fapswitch 2.2
_symmetry_space_group_name_H-M    P1
_symmetry_Int_Tables_number       1
_space_group_crystal_system       triclinic
_cell_length_a                    11.973234
_cell_length_b                    18.410338
_cell_length_c                    10.231724
_cell_angle_alpha                 89.594152
_cell_angle_beta                  112.04588
_cell_angle_gamma                 90.511424
_cell_volume                      2090.38566009

loop_
_atom_site_label
_atom_site_type_symbol
_atom_site_description
_atom_site_fract_x
_atom_site_fract_y
_atom_site_fract_z
_atom_type_partial_charge
O1    O     O_R   0.267710 0.668200 0.902110 -0.433231
O2    O     O_R   0.732290 0.331800 0.097890 -0.428223
O3    O     O_R   0.732290 0.168200 0.097890 -0.443449
O4    O     O_R   0.267710 0.831800 0.902110 -0.439529
O5    O     O_R   0.099480 0.674460 0.038850 -0.475473
O6    O     O_R   0.900520 0.325540 0.961150 -0.508593
O7    O     O_R   0.900520 0.174460 0.961150 -0.515590
O8    O     O_R   0.099480 0.825540 0.038850 -0.515640
C1    C     C_R   0.130126 0.638677 0.159542 0.551919
C2    C     C_R   0.930676 0.351498 0.861986 0.527279
C3    C     C_R   0.925895 0.146465 0.859788 0.519200
C4    C     C_R   0.073321 0.853209 0.140039 0.527823
O9    O     O_R   0.116720 0.669210 0.267660 -0.464645
O10   O     O_R   0.883280 0.330790 0.732340 -0.484175
O11   O     O_R   0.883280 0.169210 0.732340 -0.485969
O12   O     O_R   0.116720 0.830790 0.267660 -0.485994
O13   O     O_R   0.366710 0.675440 0.427590 -0.483575
O14   O     O_R   0.633290 0.324560 0.572410 -0.458868
O15   O     O_R   0.633290 0.175440 0.572410 -0.467775
O16   O     O_R   0.366710 0.824560 0.427590 -0.478466
C5    C     C_R   0.466918 0.646459 0.440260 0.602248
C6    C     C_R   0.531439 0.353977 0.560645 0.587840
C7    C     C_R   0.529446 0.146378 0.560813 0.572963
C8    C     C_R   0.472284 0.852061 0.442401 0.578009
O17   O     O_R   0.534870 0.669390 0.371760 -0.511556
O18   O     O_R   0.465130 0.330610 0.628240 -0.544080
O19   O     O_R   0.465130 0.169390 0.628240 -0.517523
O20   O     O_R   0.534870 0.830610 0.371760 -0.505792
O21   O     O_R   0.453080 0.674480 0.075160 -0.529465
O22   O     O_R   0.546920 0.325520 0.924840 -0.541871
O23   O     O_R   0.546920 0.174480 0.924840 -0.526179
O24   O     O_R   0.453080 0.825520 0.075160 -0.518165
C9    C     C_R   0.375600 0.643935 0.966359 0.621980
C10   C     C_R   0.648927 0.360827 0.983886 0.578652
C11   C     C_R   0.645458 0.138016 0.991188 0.571076
C12   C     C_R   0.353865 0.861709 0.009548 0.585317
Cr1   Cr    Cr6+3 0.187610 0.750000 0.979860 1.088128
Cr2   Cr    Cr6+3 0.812390 0.250000 0.020140 1.092584
Cr3   Cr    Cr6+3 0.245810 0.750000 0.341640 1.100496
Cr4   Cr    Cr6+3 0.754190 0.250000 0.658360 1.135760
Cr5   Cr    Cr6+3 0.485760 0.750000 0.219910 0.997620
Cr6   Cr    Cr6+3 0.514240 0.250000 0.780090 0.974207
O25   O     O_3   0.306390 0.750000 0.180470 -0.346663
O26   O     O_3   0.693610 0.250000 0.819530 -0.339725
C13   C     C_R   0.499108 0.425961 0.488801 0.052992
C14   C     C_R   0.493186 0.576314 0.519317 0.044003
C15   C     C_R   0.511176 0.922097 0.517845 0.038690
C16   C     C_R   0.495803 0.073266 0.495448 0.039396
C17   C     C_R   0.287316 0.415974 0.466646 0.053896
C18   C     C_R   0.703904 0.584570 0.541824 0.055194
C19   C     C_R   0.709627 0.929997 0.494895 0.069952
C20   C     C_R   0.295655 0.064006 0.513870 0.064731
C21   C     C_R   0.213535 0.433965 0.541259 -0.023165
C22   C     C_R   0.768482 0.569354 0.455323 -0.019953
C23   C     C_R   0.781087 0.967595 0.432309 -0.071413
C24   C     C_R   0.223191 0.026270 0.574982 -0.064999
C25   C     C_R   0.214595 0.506792 0.585372 0.015009
C26   C     C_R   0.757015 0.498253 0.395503 0.026488
C27   C     C_R   0.753067 0.040836 0.387535 0.029095
C28   C     C_R   0.251447 0.953335 0.621277 0.040158
C29   C     C_R   0.302833 0.556698 0.573619 0.007460
C30   C     C_R   0.669408 0.449057 0.409927 0.025450
C31   C     C_R   0.645787 0.071159 0.387893 0.056643
C32   C     C_R   0.359688 0.922570 0.623692 0.039900
C33   C     C_R   0.396194 0.531947 0.528550 -0.088711
C34   C     C_R   0.591939 0.471128 0.477615 -0.091769
C35   C     C_R   0.582582 0.035955 0.460416 -0.085727
C36   C     C_R   0.425803 0.959093 0.555763 -0.088150
C37   C     C_R   0.393066 0.458216 0.490765 -0.057249
C38   C     C_R   0.598960 0.543108 0.521957 -0.075004
C39   C     C_R   0.603022 0.962336 0.494491 -0.055059
C40   C     C_R   0.405042 0.032776 0.521064 -0.052315
H1    H     H_    0.452271 0.079575 0.995735 0.181832
H2    H     H_    0.531255 0.921439 0.969341 0.176539
H3    H     H_    0.560050 0.590418 0.912778 0.157293
H4    H     H_    0.450173 0.435775 0.862174 0.148729
C41   C     C_2   0.372929 0.939847 0.000854 0.009378
C42   C     C_2   0.624506 0.060147 0.001531 0.013564
C43   C     C_2   0.637407 0.440937 0.972317 0.009335
C44   C     C_2   0.400125 0.567308 0.946202 0.035014
C45   C     C_2   0.474729 0.962422 0.986105 -0.136347
C46   C     C_2   0.515243 0.038183 0.996474 -0.119390
C47   C     C_2   0.526982 0.470859 0.912416 -0.115738
C48   C     C_2   0.499384 0.548380 0.922267 -0.138488
H5    H     H_    0.007689 0.068514 0.094544 0.182571
H6    H     H_    0.993442 0.931772 0.906506 0.186848
H7    H     H_    0.042836 0.556373 0.930833 0.204053
H8    H     H_    0.036596 0.419593 0.111234 0.190695
C49   C     C_2   0.020293 0.924970 0.120264 -0.138707
C50   C     C_2   0.979527 0.074885 0.880138 -0.139993
C51   C     C_2   0.008800 0.415399 0.895124 -0.138032
C52   C     C_2   0.110239 0.560300 0.151787 -0.119688
C53   C     C_2   0.999933 0.960566 0.000884 -0.177547
C54   C     C_2   0.000819 0.039572 0.000145 -0.177621
C55   C     C_2   0.043546 0.447579 0.020806 -0.177370
C56   C     C_2   0.066086 0.525935 0.028845 -0.190481
H9    H     H_    0.975106 0.045176 0.786971 0.135253
H10   H     H_    0.024503 0.954509 0.213564 0.137893
H11   H     H_    0.140074 0.529859 0.249942 0.101057
H12   H     H_    0.022678 0.442760 0.810005 0.131062
C57   C     C_3   0.147598 0.373775 0.589321 -0.218736
C58   C     C_3   0.232579 0.315463 0.677716 -0.392527
H13   H     H_    0.269411 0.283199 0.613011 0.246411
H14   H     H_    0.307188 0.340522 0.766785 0.150911
H15   H     H_    0.182514 0.278262 0.722284 0.122854
H16   H     H_    0.105565 0.393540 0.660825 0.178770
H17   H     H_    0.074006 0.348978 0.499220 0.260358
C59   C     C_3   0.839474 0.631021 0.419934 -0.189755
C60   C     C_3   0.773842 0.659622 0.269914 -0.380068
H18   H     H_    0.723122 0.616072 0.197637 0.157882
H19   H     H_    0.708133 0.701898 0.269497 0.175973
H20   H     H_    0.839624 0.684404 0.229602 0.157996
H21   H     H_    0.851679 0.678934 0.488044 0.217533
H22   H     H_    0.933087 0.615290 0.438726 0.249902
C61   C     C_3   0.883349 0.927620 0.412794 -0.240976
C62   C     C_3   0.837935 0.873388 0.291294 -0.378493
H23   H     H_    0.903760 0.828680 0.309597 0.187288
H24   H     H_    0.749069 0.849448 0.278738 0.184662
H25   H     H_    0.829133 0.900635 0.192185 0.132456
H26   H     H_    0.952346 0.963344 0.398928 0.173718
H27   H     H_    0.930590 0.897309 0.509755 0.204968
C63   C     C_3   0.120646 0.065687 0.594981 -0.243157
C64   C     C_3   0.167609 0.118737 0.717693 -0.387688
H28   H     H_    0.248178 0.149164 0.718074 0.183867
H29   H     H_    0.096128 0.158134 0.710776 0.178763
H30   H     H_    0.192164 0.088688 0.817788 0.137054
H31   H     H_    0.070765 0.095768 0.498942 0.214886
H32   H     H_    0.052509 0.029763 0.609999 0.168103
C65   C     C_2   0.121031 0.530657 0.640234 0.549385
O27   O     O_2   0.141686 0.578263 0.727610 -0.510290
O28   O     O_R   0.007334 0.499547 0.591385 -0.715270
H33   H     H_    0.955707 0.519662 0.641367 0.328598
C66   C     C_2   0.844793 0.472230 0.333704 0.601977
O29   O     O_2   0.869984 0.407923 0.338353 -0.449248
O30   O     O_R   0.910012 0.520770 0.285165 -0.730896
H34   H     H_    0.973648 0.494597 0.262062 0.331929
C67   C     C_2   0.842228 0.090423 0.365395 0.579004
O31   O     O_2   0.866943 0.147809 0.429977 -0.435904
O32   O     O_R   0.899361 0.072855 0.274045 -0.772548
H35   H     H_    0.953644 0.113623 0.265338 0.346343
C68   C     C_2   0.160034 0.904834 0.640521 0.574718
O33   O     O_2   0.130847 0.849355 0.570467 -0.500769
O34   O     O_R   0.105844 0.921509 0.735492 -0.761825
H36   H     H_    0.049260 0.881498 0.741587 0.339437
C69   C     C_2   0.253792 0.355497 0.360482 0.575175
O35   O     O_2   0.156627 0.324387 0.327677 -0.510622
O36   O     O_R   0.329175 0.337838 0.289260 -0.688634
H37   H     H_    0.293444 0.299451 0.214331 0.339675
C70   C     C_2   0.743808 0.642251 0.653350 0.566628
O37   O     O_2   0.851003 0.656814 0.711871 -0.532589
O38   O     O_R   0.661464 0.674010 0.702690 -0.677848
H38   H     H_    0.701597 0.705608 0.788474 0.331852
C71   C     C_2   0.753696 0.862073 0.579512 0.593140
O39   O     O_2   0.783623 0.809471 0.528484 -0.521607
O40   O     O_R   0.759150 0.858484 0.718031 -0.705975
H39   H     H_    0.798533 0.812422 0.768313 0.349487
C72   C     C_2   0.249757 0.129327 0.420932 0.580723
O41   O     O_2   0.199769 0.178773 0.455767 -0.518500
O42   O     O_R   0.266649 0.134528 0.293316 -0.689180
H40   H     H_    0.227969 0.179263 0.236838 0.351107
C73   C     C_2   0.300039 0.632171 0.620272 0.660699
O43   O     O_2   0.392552 0.662146 0.697197 -0.486420
O44   O     O_R   0.191551 0.670361 0.566626 -0.620624
H41   H     H_    0.193806 0.717723 0.616211 0.395896
C74   C     C_2   0.635909 0.383049 0.323022 0.620755
O45   O     O_2   0.701444 0.330249 0.355391 -0.382716
O46   O     O_R   0.525497 0.380555 0.209153 -0.712451
H42   H     H_    0.506253 0.331758 0.161202 0.346730
C75   C     C_2   0.585825 0.133175 0.294388 0.586197
O47   O     O_2   0.477192 0.130901 0.227024 -0.545421
O48   O     O_R   0.649755 0.195061 0.287558 -0.562547
H43   H     H_    0.599264 0.228072 0.208593 0.355204
C76   C     C_2   0.413276 0.855445 0.706463 0.603434
O49   O     O_2   0.350175 0.804303 0.710938 -0.433068
O50   O     O_R   0.538389 0.849453 0.773301 -0.708149
H44   H     H_    0.563873 0.801597 0.825188 0.353675
C77   C     C_3   0.714959 0.010476 0.979876 -0.293284
C78   C     C_3   0.702469 0.013550 0.827207 -0.408886
H45   H     H_    0.613969 0.990988 0.763642 0.198816
H46   H     H_    0.709189 0.070036 0.792617 0.136198
H47   H     H_    0.773008 0.980999 0.811082 0.202963
H48   H     H_    0.805593 0.028538 0.046246 0.213198
H49   H     H_    0.707019 0.953658 0.008665 0.158402
C79   C     C_3   0.288154 0.988335 0.037460 -0.291720
C80   C     C_3   0.300414 0.975087 0.188509 -0.393418
H50   H     H_    0.287941 0.917108 0.208385 0.142216
H51   H     H_    0.391583 0.991773 0.257365 0.189095
H52   H     H_    0.233375 0.007043 0.213505 0.189943
H53   H     H_    0.300657 0.046910 0.026746 0.175341
H54   H     H_    0.196319 0.975672 0.965234 0.203273
C81   C     C_3   0.331867 0.512325 0.999399 -0.273220
C82   C     C_3   0.372609 0.517722 0.158735 -0.381849
H55   H     H_    0.330790 0.473378 0.198642 0.195402
H56   H     H_    0.471891 0.514068 0.207275 0.197503
H57   H     H_    0.346238 0.570479 0.189169 0.116442
H58   H     H_    0.236015 0.523897 0.950566 0.184725
H59   H     H_    0.339338 0.455103 0.972628 0.158609
C83   C     C_3   0.748233 0.485460 0.995535 -0.290164
C84   C     C_3   0.752934 0.507471 0.854766 -0.445217
H60   H     H_    0.755031 0.459070 0.791767 0.150115
H61   H     H_    0.672255 0.539540 0.795719 0.184908
H62   H     H_    0.833098 0.541782 0.871437 0.182836
H63   H     H_    0.748022 0.534838 0.055551 0.181275
H64   H     H_    0.829064 0.453009 0.053200 0.194736

loop_
_geom_bond_atom_site_label_1
_geom_bond_atom_site_label_2
_geom_bond_distance
_ccdc_geom_bond_type
C57   H17   1.106197 S    
O48   H43   1.010211 S    
O4    C12   1.312583 A    
C26   C30   1.428185 A    
C74   O45   1.218297 D    
C61   H27   1.091836 S    
O23   Cr6   1.955804 S    
O5    Cr1   1.962618 S    
C42   C77   1.502977 S    
Cr5   O25   2.030910 S    
C75   O47   1.222724 D    
C15   C36   1.404692 A    
C55   C56   1.462411 S    
C3    C50   1.450240 S    
C44   C48   1.349411 D    
C45   C46   1.464041 S    
O1    C9    1.291936 A    
C64   H28   1.109945 S    
C34   C38   1.395321 A    
C76   O49   1.213289 D    
C59   C60   1.530141 S    
O7    C3    1.296310 A    
C67   O32   1.390809 S    
C81   H59   1.103184 S    
C72   O41   1.220005 D    
C19   C39   1.411834 A    
C47   C48   1.480428 S    
C29   C73   1.477111 S    
C32   C36   1.399558 A    
C25   C65   1.499153 S    
C65   O27   1.212363 D    
C23   C27   1.422851 A    
C12   C41   1.461851 S    
C68   O34   1.393037 S    
C69   O35   1.221413 D    
C10   C43   1.482263 S    
C33   C37   1.410343 A    
H3    C48   1.085282 S    
C80   H51   1.096378 S    
C27   C67   1.478375 S    
C77   H48   1.092187 S    
O21   C9    1.280777 A    
O20   Cr5   2.072049 S    
C52   C56   1.329725 D    
C41   C79   1.507891 S    
C79   C80   1.514790 S    
C1    C52   1.458206 S    
C58   H15   1.108965 S    
O13   Cr3   1.953401 S    
C59   H22   1.104695 S    
C63   H31   1.089313 S    
C1    O9    1.307376 A    
C81   H58   1.088355 S    
O14   Cr4   1.953400 S    
C60   H19   1.110480 S    
C69   O36   1.397765 S    
C83   H63   1.101180 S    
O44   H41   1.006970 S    
C3    O11   1.277785 A    
O36   H37   1.013051 S    
O3    Cr2   2.085799 S    
C21   C57   1.536604 S    
C84   H62   1.103255 S    
O38   H38   1.012581 S    
O6    Cr2   1.962616 S    
C50   C54   1.323638 D    
C83   C84   1.514614 S    
C7    O19   1.287331 A    
C51   H12   1.068066 S    
C71   O40   1.395212 S    
C50   H9    1.086114 S    
C19   C23   1.419767 A    
O1    Cr1   2.106197 S    
O2    C10   1.330092 A    
H8    C55   1.085681 S    
C84   H60   1.109430 S    
C74   O46   1.396638 S    
C43   C83   1.495255 S    
C17   C37   1.421075 A    
C63   H32   1.099835 S    
C75   O48   1.382886 S    
Cr6   O26   2.030910 S    
C16   C40   1.414881 A    
H4    C47   1.080008 S    
C73   O44   1.399467 S    
Cr2   O26   2.011047 S    
C73   O43   1.221371 D    
C63   C64   1.524487 S    
C76   O50   1.398813 S    
C26   C66   1.498687 S    
C31   C35   1.396192 A    
C14   C38   1.402240 A    
O22   C10   1.310226 A    
C13   C37   1.413457 A    
C81   C82   1.519890 S    
C57   C58   1.523384 S    
C4    O12   1.277606 A    
C4    C49   1.450601 S    
O30   H34   1.005969 S    
C14   C33   1.445362 A    
C2    O10   1.290423 A    
C60   H20   1.110602 S    
O17   Cr5   2.063788 S    
O46   H42   1.009240 S    
O16   Cr3   1.943972 S    
C30   C34   1.413527 A    
C80   H52   1.104747 S    
Cr3   O25   2.035532 S    
C77   H49   1.097674 S    
C51   C55   1.335114 D    
O13   C5    1.278564 A    
C24   C28   1.421476 A    
C36   C40   1.400339 A    
C82   H56   1.105452 S    
C59   H21   1.102304 S    
Cr1   O25   2.011047 S    
O15   C7    1.313219 A    
C82   H57   1.106174 S    
O5    C1    1.321442 A    
C20   C40   1.411324 A    
H6    C53   1.081531 S    
C28   C68   1.475088 S    
H5    C54   1.081871 S    
C42   C46   1.348225 D    
C18   C70   1.502297 S    
O42   H40   1.012860 S    
O3    C11   1.314457 A    
O8    C4    1.297401 A    
H7    C56   1.087398 S    
C30   C74   1.472142 S    
C17   C69   1.504170 S    
C53   C54   1.454451 S    
C18   C22   1.407379 A    
C58   H14   1.108516 S    
C15   C39   1.412593 A    
C2    C51   1.456656 S    
C61   H26   1.100968 S    
C83   H64   1.103791 S    
C66   O29   1.220529 D    
C44   C81   1.516641 S    
C79   H54   1.094242 S    
O8    Cr1   1.981928 S    
O24   Cr5   1.955802 S    
O28   H33   1.012353 S    
O24   C12   1.309524 A    
H1    C46   1.074776 S    
C13   C34   1.420430 A    
O18   Cr6   2.063787 S    
C66   O30   1.388315 S    
C5    C14   1.490761 S    
C22   C26   1.432486 A    
C57   H16   1.097458 S    
C5    O17   1.322554 A    
C19   C71   1.498404 S    
C21   C25   1.416160 A    
C7    C16   1.490680 S    
O21   Cr5   1.965728 S    
O14   C6    1.302163 A    
C8    C15   1.486196 S    
C8    O20   1.286786 A    
C64   H30   1.100081 S    
O6    C2    1.285792 A    
C78   H46   1.108083 S    
O32   H35   1.013646 S    
C9    C44   1.475094 S    
C25   C29   1.432226 A    
C67   O31   1.223899 D    
C11   C42   1.463109 S    
C27   C31   1.406395 A    
C62   H25   1.097512 S    
C22   C59   1.533150 S    
C49   H10   1.086420 S    
C28   C32   1.410632 A    
O2    Cr2   2.106197 S    
C70   O38   1.398904 S    
O34   H36   1.013719 S    
C32   C76   1.499168 S    
O50   H44   1.013793 S    
C70   O37   1.223492 D    
C82   H55   1.106968 S    
C43   C47   1.351690 D    
O19   Cr6   2.072051 S    
C80   H50   1.104510 S    
C18   C38   1.412855 A    
C23   C61   1.510758 S    
C17   C21   1.409960 A    
O23   C11   1.307627 A    
O7    Cr2   1.981930 S    
C62   H24   1.110268 S    
C62   H23   1.110105 S    
C35   C39   1.397723 A    
C16   C35   1.405597 A    
C49   C53   1.322446 D    
C58   H13   1.102290 S    
C41   C45   1.345106 D    
O11   Cr4   2.078704 S    
O9    Cr3   2.066599 S    
C78   H47   1.102141 S    
C64   H29   1.108350 S    
O15   Cr4   1.943974 S    
O12   Cr3   2.078703 S    
O10   Cr4   2.066598 S    
C29   C33   1.438364 A    
Cr4   O26   2.035533 S    
C6    C13   1.492723 S    
C20   C72   1.501920 S    
O4    Cr1   2.085797 S    
C72   O42   1.396831 S    
C77   C78   1.512996 S    
C6    O18   1.302158 A    
C60   H18   1.105022 S    
O40   H39   1.012431 S    
C84   H61   1.101697 S    
C79   H53   1.097788 S    
O22   Cr6   1.965727 S    
H2    C45   1.074636 S    
C61   C62   1.529175 S    
C71   O39   1.221732 D    
C68   O33   1.222724 D    
O16   C8    1.312639 A    
C20   C24   1.420129 A    
C52   H11   1.084699 S    
C24   C63   1.510821 S    
C78   H45   1.094059 S    
C65   O28   1.382177 S    
C31   C75   1.489234 S    
