data_mof_unit_52140.cif
_audit_creation_date              2012-12-11T14:08:22-0500
_audit_creation_method            fapswitch 2.2
_symmetry_space_group_name_H-M    P1
_symmetry_Int_Tables_number       1
_space_group_crystal_system       triclinic
_cell_length_a                    10.974501
_cell_length_b                    10.973627
_cell_length_c                    18.773043
_cell_angle_alpha                 89.669673
_cell_angle_beta                  89.534188
_cell_angle_gamma                 60.111773
_cell_volume                      1960.07697033

loop_
_atom_site_label
_atom_site_type_symbol
_atom_type_description
_atom_site_fract_x
_atom_site_fract_y
_atom_site_fract_z
_atom_type_partial_charge
C1    C     C_R   0.236695 0.644386 0.608920 0.569263
C2    C     C_3   0.672267 0.557483 0.800740 0.197373
C3    C     C_3   0.704184 0.678858 0.811126 -0.009738
C4    C     C_3   0.672154 0.650446 0.675639 -0.065546
C5    C     C_3   0.814684 0.649340 0.687679 -0.079741
C6    C     C_3   0.671226 0.530594 0.720937 -0.207261
C7    C     C_2   0.670955 0.164340 0.672828 -0.053377
C8    C     C_2   0.688555 0.173531 0.829640 -0.102424
C9    C     C_2   0.799355 0.124884 0.784873 -0.070260
C10   C     C_2   0.781734 0.155568 0.707895 0.320570
C11   C     C_2   0.184803 0.654879 0.682184 -0.024831
C12   C     C_R   0.654133 0.622550 0.600973 0.567953
C13   C     C_2   0.193194 0.666302 0.839424 -0.085831
C14   C     C_2   0.224004 0.547934 0.803639 0.040172
C15   C     C_2   0.247068 0.540907 0.725728 0.342394
C16   C     C_2   0.660432 0.655430 0.321425 0.003168
C17   C     C_2   0.635974 0.667367 0.159989 -0.088744
C18   C     C_2   0.712569 0.554161 0.199496 -0.116070
C19   C     C_2   0.680987 0.553412 0.274472 -0.171507
C20   C     C_2   0.634855 0.193578 0.319918 0.449060
C21   C     C_2   0.634734 0.203641 0.162063 0.377167
C22   C     C_2   0.530114 0.216652 0.203224 -0.058166
C23   C     C_R   0.627354 0.229207 0.602460 0.604928
C24   C     C_2   0.521785 0.256280 0.276589 0.348136
C25   C     C_2   0.185262 0.664511 0.327449 0.461840
C26   C     C_2   0.187107 0.641335 0.172074 -0.016761
C27   C     C_2   0.248928 0.702035 0.206851 0.001862
C28   C     C_2   0.276735 0.672646 0.282098 -0.097635
C29   C     C_R   0.702586 0.104567 0.898378 0.563471
C30   C     C_R   0.726686 0.690763 0.887328 0.617247
C31   C     C_R   0.120030 0.706065 0.907988 0.598739
C32   C     C_R   0.672784 0.114084 0.100792 0.576278
C33   C     C_R   0.692812 0.688568 0.094600 0.570080
C34   C     C_R   0.222560 0.649623 0.401249 0.596158
C35   C     C_R   0.100393 0.704753 0.110240 0.581516
C36   C     C_R   0.644052 0.624451 0.394668 0.590081
C37   C     C_R   0.614282 0.233750 0.393746 0.602097
C38   C     C_3   0.574063 0.816891 0.781179 -0.154422
C39   C     C_3   0.549928 0.798044 0.701584 0.276501
C40   C     C_3   0.841925 0.644108 0.768758 0.651100
Cr1   Cr    Cr6+3 0.393010 0.398050 0.501480 1.157005
Cr2   Cr    Cr6+3 0.398820 0.707980 0.501630 1.092216
Cr3   Cr    Cr6+3 0.708140 0.393940 0.496850 1.129471
Cr4   Cr    Cr6+3 0.937950 0.938450 0.008940 1.140084
Cr5   Cr    Cr6+3 0.626180 0.937030 0.994750 1.103455
Cr6   Cr    Cr6+3 0.937790 0.625760 0.001410 1.149705
H1    H     H_    0.765380 0.428561 0.707698 0.276119
H2    H     H_    0.905033 0.054600 0.803978 0.187055
H3    H     H_    0.583129 0.244264 0.810373 0.148903
H4    H     H_    0.597702 0.141241 0.700328 0.147230
H5    H     H_    0.197531 0.751180 0.812212 0.144880
H6    H     H_    0.482078 0.833237 0.814258 0.155572
H7    H     H_    0.110854 0.758254 0.702820 0.103901
H8    H     H_    0.803580 0.461725 0.177831 0.221892
H9    H     H_    0.683729 0.457919 0.293021 0.189080
H10   H     H_    0.543938 0.756791 0.182556 0.108060
H11   H     H_    0.455937 0.184962 0.185574 0.117109
H12   H     H_    0.371123 0.669256 0.302259 0.073807
H13   H     H_    0.181923 0.553637 0.196226 0.175182
H14   H     H_    0.801158 0.750750 0.667293 0.135042
H15   H     H_    0.567771 0.586975 0.824302 0.145442
H16   H     H_    0.579234 0.518080 0.708204 0.139777
O1    O     O_R   0.507110 0.256280 0.580300 -0.435691
O2    O     O_R   0.524640 0.695370 0.425100 -0.487162
O3    O     O_R   0.735890 0.504390 0.415980 -0.504131
O4    O     O_R   0.690560 0.277820 0.422350 -0.505193
O5    O     O_3   0.499990 0.499990 0.499980 -0.323045
O6    O     O_R   0.089190 0.825870 0.932320 -0.509556
O7    O     O_R   0.819070 0.053960 0.931440 -0.491048
O8    O     O_R   0.607070 0.076440 0.916460 -0.458941
O9    O     O_R   0.647110 0.806550 0.917690 -0.533471
O10   O     O_R   0.837080 0.593860 0.915300 -0.375680
O11   O     O_R   0.064770 0.636080 0.932550 -0.432046
O12   O     O_R   0.280830 0.527190 0.577940 -0.447651
O13   O     O_R   0.068250 0.829200 0.092940 -0.444031
O14   O     O_R   0.799650 0.057040 0.080330 -0.443957
O15   O     O_R   0.586130 0.079760 0.077080 -0.554706
O16   O     O_R   0.627700 0.809630 0.066580 -0.483701
O17   O     O_R   0.816140 0.597180 0.075920 -0.509241
O18   O     O_R   0.045360 0.639170 0.081440 -0.514962
O19   O     O_3   0.833980 0.833750 0.001700 -0.306963
O20   O     O_R   0.261360 0.738990 0.584270 -0.507308
O21   O     O_R   0.532590 0.694780 0.574370 -0.478126
O22   O     O_R   0.744470 0.503750 0.577000 -0.485878
O23   O     O_R   0.698520 0.277230 0.571620 -0.446726
O24   O     O_R   0.498530 0.256920 0.419280 -0.465311
O25   O     O_R   0.272880 0.527780 0.428680 -0.464002
O26   O     O_R   0.252780 0.739630 0.423250 -0.542753
C41   C     C_2   0.579598 0.949899 0.789538 0.341540
H17   H     H_    0.676926 0.949934 0.782023 0.141137
O27   O     O_2   0.471100 0.060943 0.799724 -0.465535
F1    F     F_    0.948913 0.511705 0.788552 -0.524994
C42   C     C_2   0.942165 0.538409 0.647354 0.315546
H18   H     H_    0.991190 0.570917 0.606808 0.090107
O28   O     O_2   0.990237 0.413068 0.658851 -0.360435
F2    F     F_    0.882861 0.170008 0.672914 -0.572263
C43   C     C_2   0.248839 0.416395 0.839533 0.382302
H19   H     H_    0.237555 0.338389 0.809565 0.226992
O29   O     O_2   0.289478 0.390208 0.901015 -0.492394
F3    F     F_    0.340592 0.412441 0.698859 -0.629237
C44   C     C_2   0.668534 0.783569 0.304169 0.265207
H20   H     H_    0.706412 0.796594 0.252825 0.133674
O30   O     O_2   0.635213 0.875867 0.348599 -0.456813
F4    F     F_    0.391479 0.350700 0.301265 -0.652111
F5    F     F_    0.721059 0.252631 0.183029 -0.615399
F6    F     F_    0.764874 0.095726 0.296364 -0.585549
C45   C     C_2   0.285962 0.803255 0.174654 0.256964
H21   H     H_    0.291571 0.880453 0.208281 0.115167
O31   O     O_2   0.317705 0.796855 0.111705 -0.483082
C46   C     C_2   0.402999 0.820751 0.694639 0.342403
H22   H     H_    0.328191 0.901961 0.659416 0.209254
O32   O     O_2   0.366023 0.751020 0.729455 -0.635142
F7    F     F_    0.061880 0.674702 0.306880 -0.618654
F8    F     F_    0.553337 0.900748 0.658904 -0.653350
F9    F     F_    0.887065 0.738118 0.785169 -0.708537
F10   F     F_    0.770291 0.434519 0.834200 -0.561348

loop_
_geom_bond_atom_site_label_1
_geom_bond_atom_site_label_2
_ccdc_geom_bond_type
C7    C10   D    
C42   H18   S    
C3    C30   S    
C1    C11   S    
C15   F3    S    
C22   H11   S    
C30   O9    A    
Cr1   O5    S    
C25   C28   D    
Cr1   O24   S    
C38   C41   S    
C35   O13   A    
C26   C27   D    
C44   H20   S    
C1    O12   A    
C16   C19   D    
Cr6   O17   S    
C33   O16   A    
C31   O11   A    
C40   F9    S    
Cr5   O9    S    
C35   O18   A    
C12   O22   A    
C18   C19   S    
Cr4   O14   S    
C46   H22   S    
C13   C14   D    
Cr1   O12   S    
C13   H5    S    
C2    F10   S    
C39   C46   S    
C20   C24   D    
C3    C38   S    
C8    C9    D    
Cr2   O20   S    
C45   H21   S    
Cr5   O16   S    
C27   C45   S    
C41   O27   D    
C9    C10   S    
Cr6   O10   S    
C11   H7    S    
C2    H15   S    
C25   C34   S    
C23   O1    A    
C32   O15   A    
C42   O28   D    
C21   C22   D    
Cr3   O22   S    
C45   O31   D    
C2    C6    S    
C17   C33   S    
C43   O29   D    
C43   H19   S    
C29   O7    A    
C31   O6    A    
Cr1   O25   S    
C21   C32   S    
C6    H1    S    
Cr3   O23   S    
C37   O24   A    
C4    C6    S    
Cr4   O19   S    
C20   F6    S    
C36   O3    A    
C33   O17   A    
C1    O20   A    
C12   O21   A    
C24   F4    S    
Cr4   O13   S    
C25   F7    S    
Cr6   O19   S    
C26   C35   S    
C30   O10   A    
C4    C39   S    
C10   F2    S    
Cr3   O3    S    
C39   F8    S    
C37   O4    A    
C17   C18   D    
Cr4   O7    S    
C34   O26   A    
C40   F1    S    
C17   H10   S    
Cr3   O5    S    
C3    C40   S    
Cr2   O26   S    
C11   C15   D    
Cr2   O5    S    
C22   C24   S    
Cr4   O6    S    
C4    C12   S    
Cr1   O1    S    
Cr2   O2    S    
C14   C43   S    
C29   O8    A    
C26   H13   S    
C19   H9    S    
C5    H14   S    
Cr5   O8    S    
C13   C31   S    
Cr5   O19   S    
Cr2   O21   S    
C7    H4    S    
C4    C5    S    
C32   O14   A    
C5    C42   S    
C28   H12   S    
C8    C29   S    
C6    H16   S    
C2    C3    S    
C16   C36   S    
Cr6   O18   S    
C20   C37   S    
C38   C39   S    
Cr3   O4    S    
C7    C23   S    
C34   O25   A    
C46   O32   D    
C18   H8    S    
C16   C44   S    
C38   H6    S    
C9    H2    S    
C44   O30   D    
C23   O23   A    
C5    C40   S    
C27   C28   S    
C14   C15   S    
Cr5   O15   S    
C41   H17   S    
C36   O2    A    
C8    H3    S    
Cr6   O11   S    
C21   F5    S    
