data_mof_unit_41820.cif
_audit_creation_date              2013-03-05T15:48:37-0500
_audit_creation_method            fapswitch 2.2
_symmetry_space_group_name_H-M    P1
_symmetry_Int_Tables_number       1
_space_group_crystal_system       triclinic
_cell_length_a                    16.663108
_cell_length_b                    16.631634
_cell_length_c                    42.75347
_cell_angle_alpha                 89.522649
_cell_angle_beta                  90.216158
_cell_angle_gamma                 119.866489
_cell_volume                      10274.4958505

loop_
_atom_site_label
_atom_site_type_symbol
_atom_site_description
_atom_site_fract_x
_atom_site_fract_y
_atom_site_fract_z
_atom_type_partial_charge
O1    O     O_R   0.509640 0.171340 0.784000 -0.464137
O2    O     O_R   0.661700 0.490360 0.716000 -0.458602
O3    O     O_R   0.828660 0.338300 0.784000 -0.458012
O4    O     O_R   0.509640 0.171340 0.716000 -0.467614
O5    O     O_R   0.661700 0.490360 0.784000 -0.499201
O6    O     O_R   0.828660 0.338300 0.716000 -0.502287
O7    O     O_R   0.171340 0.509640 0.284000 -0.466692
O8    O     O_R   0.490360 0.661700 0.216000 -0.460951
O9    O     O_R   0.338300 0.828660 0.284000 -0.495391
O10   O     O_R   0.171340 0.509640 0.216000 -0.455438
O11   O     O_R   0.490360 0.661700 0.284000 -0.480751
O12   O     O_R   0.338300 0.828660 0.216000 -0.455873
O13   O     O_R   0.539230 0.345420 0.781810 -0.467539
O14   O     O_R   0.806190 0.460770 0.718190 -0.457306
O15   O     O_R   0.654580 0.193810 0.781810 -0.468693
O16   O     O_R   0.539230 0.345420 0.718190 -0.512258
O17   O     O_R   0.806190 0.460770 0.781810 -0.477839
O18   O     O_R   0.654580 0.193810 0.718190 -0.473325
O19   O     O_R   0.345420 0.539230 0.281810 -0.497904
O20   O     O_R   0.460770 0.806190 0.218190 -0.474502
O21   O     O_R   0.193810 0.654580 0.281810 -0.476376
O22   O     O_R   0.345420 0.539230 0.218190 -0.469047
O23   O     O_R   0.460770 0.806190 0.281810 -0.453265
O24   O     O_R   0.193810 0.654580 0.218190 -0.470206
C1    C     C_R   0.582616 0.426671 0.794173 0.629208
C2    C     C_R   0.840805 0.416213 0.704672 0.596796
C3    C     C_R   0.574372 0.158006 0.794818 0.610001
C4    C     C_R   0.583926 0.426656 0.705693 0.636928
C5    C     C_R   0.842396 0.415896 0.794551 0.622246
C6    C     C_R   0.572910 0.155383 0.705665 0.596269
C7    C     C_R   0.425924 0.584289 0.294698 0.620736
C8    C     C_R   0.416245 0.843177 0.205499 0.614010
C9    C     C_R   0.154366 0.572109 0.294072 0.594019
C10   C     C_R   0.426237 0.583993 0.205442 0.608663
C11   C     C_R   0.416469 0.841094 0.295274 0.600094
C12   C     C_R   0.157401 0.573980 0.205498 0.613267
Cr1   Cr    Cr6+3 0.530290 0.262330 0.750000 1.089028
Cr2   Cr    Cr6+3 0.732040 0.469710 0.750000 1.087150
Cr3   Cr    Cr6+3 0.737670 0.267960 0.750000 1.089006
Cr4   Cr    Cr6+3 0.262330 0.530290 0.250000 1.105459
Cr5   Cr    Cr6+3 0.469710 0.732040 0.250000 1.090606
Cr6   Cr    Cr6+3 0.267960 0.737670 0.250000 1.091844
O25   O     O_3   0.666667 0.333333 0.750000 -0.267674
O26   O     O_3   0.333333 0.666667 0.250000 -0.268529
C13   C     C_R   0.888187 0.446385 0.825152 0.010904
C14   C     C_R   0.555347 0.097462 0.677023 0.008407
C15   C     C_R   0.549998 0.439664 0.824779 0.013258
C16   C     C_R   0.879525 0.449191 0.672470 0.008494
C17   C     C_R   0.563183 0.116485 0.826364 0.000475
C18   C     C_R   0.551070 0.442885 0.675883 0.016583
C19   C     C_R   0.451530 0.881336 0.327218 0.004341
C20   C     C_R   0.106368 0.557843 0.175897 0.002169
C21   C     C_R   0.433077 0.565715 0.327785 0.027031
C22   C     C_R   0.451377 0.899260 0.176553 0.005474
C23   C     C_R   0.094459 0.552256 0.322322 -0.002047
C24   C     C_R   0.442961 0.549755 0.175818 0.005699
C25   C     C_R   0.970686 0.548143 0.034348 0.018503
C26   C     C_R   0.605348 0.007360 0.469343 0.028060
C27   C     C_R   0.453074 0.415603 0.035740 -0.004660
C28   C     C_R   0.034203 0.620822 0.464589 0.026097
C29   C     C_R   0.562490 0.109475 0.040911 0.007464
C30   C     C_R   0.392269 0.452813 0.472486 0.020615
C31   C     C_R   0.623363 0.031848 0.534689 0.035591
C32   C     C_R   0.976825 0.553978 0.968249 0.019007
C33   C     C_R   0.394335 0.440120 0.538626 0.012259
C34   C     C_R   0.569846 0.146263 0.975847 0.011322
C35   C     C_R   0.013688 0.601068 0.530245 0.006225
C36   C     C_R   0.445707 0.410541 0.969571 -0.000817
C37   C     C_R   0.973421 0.547292 0.067335 0.491143
C38   C     C_R   0.586576 0.002576 0.436888 0.511084
C39   C     C_R   0.454738 0.421663 0.068693 0.480326
C40   C     C_R   0.052280 0.620404 0.432347 0.482758
C41   C     C_R   0.559967 0.083194 0.072606 0.503402
C42   C     C_R   0.397197 0.457829 0.439502 0.501352
C43   C     C_R   0.621623 0.052860 0.566516 0.485790
C44   C     C_R   0.985883 0.558814 0.935504 0.475280
C45   C     C_R   0.401477 0.432826 0.571343 0.492893
C46   C     C_R   0.571369 0.160715 0.943250 0.461135
C47   C     C_R   0.009725 0.581929 0.562742 0.507034
C48   C     C_R   0.438905 0.412065 0.936746 0.481109
O27   O     O_2   0.948744 0.593079 0.082523 -0.398148
O28   O     O_2   0.640700 0.063435 0.419207 -0.375510
O29   O     O_2   0.412787 0.351980 0.084849 -0.397249
O30   O     O_2   0.124563 0.681639 0.421093 -0.437328
O31   O     O_2   0.628564 0.123321 0.089122 -0.388660
O32   O     O_2   0.342555 0.392375 0.423669 -0.416145
O33   O     O_2   0.681718 0.126847 0.576942 -0.432459
O34   O     O_2   0.993493 0.626140 0.921144 -0.406289
O35   O     O_2   0.342639 0.365706 0.585796 -0.419452
O36   O     O_2   0.626408 0.236266 0.932180 -0.460148
O37   O     O_2   0.070598 0.636181 0.580166 -0.363278
O38   O     O_2   0.373560 0.348637 0.923226 -0.400527
N1    N     N_R   0.006332 0.496735 0.082841 -0.368803
N2    N     N_R   0.505955 0.930449 0.425001 -0.374033
N3    N     N_R   0.502108 0.506533 0.083066 -0.369129
N4    N     N_R   0.990718 0.548702 0.413617 -0.381710
N5    N     N_R   0.480577 0.010751 0.085097 -0.375503
N6    N     N_R   0.463729 0.536606 0.424746 -0.363045
N7    N     N_R   0.550070 0.992191 0.585720 -0.379088
N8    N     N_R   0.984318 0.486771 0.919264 -0.369633
N9    N     N_R   0.476372 0.500194 0.587291 -0.366219
N10   N     N_R   0.505931 0.092266 0.924153 -0.380542
N11   N     N_R   0.937955 0.501078 0.574974 -0.375123
N12   N     N_R   0.506266 0.484667 0.919518 -0.367176
C49   C     C_R   0.027208 0.437604 0.066972 0.501053
C50   C     C_R   0.444062 0.859442 0.444214 0.505328
C51   C     C_R   0.557295 0.586205 0.066138 0.495062
C52   C     C_R   0.906760 0.480735 0.425295 0.509537
C53   C     C_R   0.401758 0.962134 0.067343 0.485418
C54   C     C_R   0.528707 0.611495 0.441354 0.503096
C55   C     C_R   0.483479 0.906573 0.574843 0.531164
C56   C     C_R   0.991918 0.418028 0.934974 0.527748
C57   C     C_R   0.540209 0.581177 0.572787 0.502330
C58   C     C_R   0.419191 0.039417 0.937402 0.528564
C59   C     C_R   0.867349 0.438549 0.556045 0.490201
C60   C     C_R   0.572498 0.563715 0.934197 0.501582
O39   O     O_2   0.058920 0.396111 0.081438 -0.444349
O40   O     O_2   0.373931 0.796006 0.432852 -0.429399
O41   O     O_2   0.596059 0.660439 0.079679 -0.444657
O42   O     O_2   0.850344 0.423126 0.407486 -0.381547
O43   O     O_2   0.333133 0.898074 0.079440 -0.455458
O44   O     O_2   0.584153 0.681135 0.427115 -0.439697
O45   O     O_2   0.427044 0.850415 0.593184 -0.363023
O46   O     O_2   0.984005 0.351493 0.920485 -0.397149
O47   O     O_2   0.605756 0.639073 0.587858 -0.424905
O48   O     O_2   0.350187 0.015271 0.921498 -0.374949
O49   O     O_2   0.804989 0.367446 0.567622 -0.421935
O50   O     O_2   0.634881 0.624614 0.918685 -0.430362
C61   C     C_R   0.015457 0.427842 0.034169 0.021998
C62   C     C_R   0.460053 0.861305 0.476844 0.034306
C63   C     C_R   0.566289 0.582503 0.033352 0.009664
C64   C     C_R   0.887830 0.475975 0.457752 0.012857
C65   C     C_R   0.401168 0.984222 0.035327 0.020603
C66   C     C_R   0.530516 0.608070 0.474388 0.018210
C67   C     C_R   0.479138 0.885406 0.542577 0.023884
C68   C     C_R   0.005087 0.422855 0.967813 0.023176
C69   C     C_R   0.532531 0.595027 0.540516 0.019339
C70   C     C_R   0.410416 0.020632 0.970005 0.019655
C71   C     C_R   0.867888 0.455278 0.523537 0.021386
C72   C     C_R   0.569528 0.572929 0.967042 0.011168
C73   C     C_R   0.992495 0.487986 0.017740 -0.080662
C74   C     C_R   0.537096 0.940424 0.489459 -0.081999
C75   C     C_R   0.509557 0.497182 0.018023 -0.102289
C76   C     C_R   0.956055 0.543134 0.477597 -0.095728
C77   C     C_R   0.484081 0.055465 0.021845 -0.093659
C78   C     C_R   0.461670 0.527416 0.489958 -0.079712
C79   C     C_R   0.546341 0.952554 0.522252 -0.084337
C80   C     C_R   0.991567 0.488261 0.984616 -0.079143
C81   C     C_R   0.462619 0.520999 0.523048 -0.087252
C82   C     C_R   0.488675 0.072850 0.989208 -0.097752
C83   C     C_R   0.945977 0.533036 0.510483 -0.102291
C84   C     C_R   0.508456 0.493567 0.984890 -0.105012
C85   C     C_R   0.947478 0.607607 0.017543 0.220104
C86   C     C_R   0.690974 0.075247 0.482274 0.227468
C87   C     C_R   0.396419 0.330855 0.020037 0.200972
C88   C     C_R   0.091690 0.696350 0.484168 0.228446
C89   C     C_R   0.641565 0.186490 0.027575 0.207896
C90   C     C_R   0.320364 0.375494 0.488414 0.209007
C91   C     C_R   0.699661 0.087612 0.514963 0.235865
C92   C     C_R   0.951754 0.611498 0.984820 0.223108
C93   C     C_R   0.322061 0.368696 0.521057 0.208871
C94   C     C_R   0.645648 0.204132 0.995296 0.219640
C95   C     C_R   0.081167 0.686957 0.516958 0.214866
C96   C     C_R   0.392006 0.328566 0.987291 0.206357
C97   C     C_R   0.030666 0.363517 0.017224 0.207091
C98   C     C_R   0.402145 0.786882 0.497265 0.226275
C99   C     C_R   0.626163 0.662264 0.015337 0.208946
C100  C     C_R   0.802892 0.407486 0.470997 0.213120
C101  C     C_R   0.321213 0.935919 0.016268 0.219305
C102  C     C_R   0.596407 0.684017 0.492273 0.191463
C103  C     C_R   0.411455 0.799262 0.529974 0.212879
C104  C     C_R   0.025495 0.361061 0.984389 0.206961
C105  C     C_R   0.595674 0.678472 0.525021 0.198342
C106  C     C_R   0.326118 0.953374 0.983894 0.213243
C107  C     C_R   0.792418 0.397745 0.503748 0.231701
C108  C     C_R   0.628163 0.657309 0.982570 0.212039
C109  C     C_R   0.993140 0.448330 0.138826 0.239731
C110  C     C_R   0.447489 0.961677 0.374850 0.233322
C111  C     C_R   0.552195 0.545399 0.138568 0.241588
C112  C     C_R   0.038546 0.474234 0.373165 0.218813
C113  C     C_R   0.447268 0.014178 0.141355 0.237195
C114  C     C_R   0.492945 0.510019 0.369750 0.239174
C115  C     C_R   0.473977 0.036137 0.627175 0.219449
C116  C     C_R   0.007049 0.462749 0.862704 0.241426
C117  C     C_R   0.491465 0.525468 0.644788 0.245451
C118  C     C_R   0.461067 0.022627 0.868966 0.221120
C119  C     C_R   0.973614 0.455807 0.627163 0.239675
C120  C     C_R   0.519206 0.531477 0.862693 0.237800
C121  C     C_R   0.030180 0.469362 0.169341 0.173016
C122  C     C_R   0.423567 0.938676 0.342602 0.187927
C123  C     C_R   0.531798 0.562996 0.168947 0.176681
C124  C     C_R   0.076895 0.478359 0.343245 0.195312
C125  C     C_R   0.435407 0.974316 0.171406 0.174116
C126  C     C_R   0.483609 0.522830 0.337479 0.182750
C127  C     C_R   0.478296 0.074282 0.657182 0.207428
C128  C     C_R   0.971054 0.445742 0.831870 0.175161
C129  C     C_R   0.517675 0.505706 0.674008 0.175629
C130  C     C_R   0.477700 0.042287 0.836550 0.167672
C131  C     C_R   0.947605 0.432149 0.659272 0.192209
C132  C     C_R   0.545499 0.520417 0.831919 0.169500
C133  C     C_R   0.139246 0.628267 0.152911 0.209242
C134  C     C_R   0.510025 0.855444 0.343671 0.208363
C135  C     C_R   0.371942 0.510578 0.153268 0.211106
C136  C     C_R   0.061490 0.613136 0.330028 0.189171
C137  C     C_R   0.490425 0.871640 0.152665 0.214397
C138  C     C_R   0.394718 0.600160 0.349713 0.209362
C139  C     C_R   0.620720 0.071244 0.668053 0.196843
C140  C     C_R   0.843792 0.468246 0.848741 0.224971
C141  C     C_R   0.558460 0.398475 0.649077 0.199386
C142  C     C_R   0.636854 0.156336 0.847792 0.212087
C143  C     C_R   0.843125 0.495277 0.654040 0.197320
C144  C     C_R   0.528782 0.371690 0.847997 0.223944
C145  C     C_R   0.103594 0.606060 0.122601 -0.100950
C146  C     C_R   0.525239 0.871808 0.375593 -0.121314
C147  C     C_R   0.393611 0.495347 0.123082 -0.106480
C148  C     C_R   0.023887 0.608295 0.359756 -0.093421
C149  C     C_R   0.503608 0.913206 0.122884 -0.101452
C150  C     C_R   0.408314 0.590539 0.381685 -0.131902
C151  C     C_R   0.614851 0.032725 0.638523 -0.076170
C152  C     C_R   0.874823 0.475705 0.879505 -0.088976
C153  C     C_R   0.527598 0.415208 0.620397 -0.144611
C154  C     C_R   0.618205 0.139649 0.879672 -0.079134
C155  C     C_R   0.864019 0.510328 0.622197 -0.134627
C156  C     C_R   0.521627 0.392081 0.878923 -0.108154
C157  C     C_R   0.032349 0.517057 0.115251 0.124300
C158  C     C_R   0.492123 0.921445 0.391537 0.125781
C159  C     C_R   0.482581 0.513502 0.115455 0.130025
C160  C     C_R   0.017426 0.543231 0.381908 0.125805
C161  C     C_R   0.480548 0.982113 0.117001 0.136703
C162  C     C_R   0.456377 0.546377 0.391618 0.132864
C163  C     C_R   0.545658 0.020064 0.617393 0.126563
C164  C     C_R   0.956542 0.475581 0.886775 0.125134
C165  C     C_R   0.496157 0.478881 0.618049 0.126803
C166  C     C_R   0.527045 0.084941 0.891046 0.094376
C167  C     C_R   0.926193 0.489061 0.608470 0.138979
C168  C     C_R   0.515720 0.470228 0.886713 0.110962
H1    H     H_    0.834999 0.482257 0.898253 0.180561
H2    H     H_    0.665078 0.012945 0.631682 0.181788
H3    H     H_    0.517202 0.344281 0.897114 0.189570
H4    H     H_    0.829565 0.536988 0.607412 0.143293
H5    H     H_    0.676505 0.173363 0.895294 0.208395
H6    H     H_    0.529509 0.381044 0.599229 0.155278
H7    H     H_    0.562093 0.843647 0.388379 0.186565
H8    H     H_    0.134463 0.657192 0.104057 0.178498
H9    H     H_    0.381813 0.616402 0.399664 0.175842
H10   H     H_    0.525968 0.887933 0.103441 0.157524
H11   H     H_    0.999702 0.655646 0.365883 0.165932
H12   H     H_    0.342187 0.473519 0.104728 0.160912
N13   N     N_R   0.044632 0.297309 0.968110 0.144242
O51   O     O_R   0.118534 0.328451 0.950868 -0.196526
O52   O     O_R   0.993624 0.208521 0.972990 -0.167215
N14   N     N_R   0.357886 0.721075 0.550071 0.150642
O53   O     O_R   0.380523 0.657056 0.553163 -0.256816
O54   O     O_R   0.280519 0.707785 0.562015 -0.143901
N15   N     N_R   0.687922 0.740215 0.965277 0.147124
O55   O     O_R   0.652596 0.779658 0.948039 -0.216878
O56   O     O_R   0.776972 0.782131 0.969655 -0.152471
N16   N     N_R   0.702684 0.335010 0.516641 0.145768
O57   O     O_R   0.655830 0.249882 0.506963 -0.241626
O58   O     O_R   0.663124 0.366151 0.535359 -0.311461
N17   N     N_R   0.245005 0.899877 0.965268 0.145134
O59   O     O_R   0.241032 0.836616 0.946599 -0.191853
O60   O     O_R   0.171491 0.906826 0.969647 -0.151056
N18   N     N_R   0.658581 0.759358 0.542335 0.139147
O61   O     O_R   0.626627 0.800154 0.560118 -0.260964
O62   O     O_R   0.747480 0.796683 0.538371 -0.203303
N19   N     N_R   0.337774 0.696796 0.485157 0.141612
O63   O     O_R   0.253141 0.651690 0.495478 -0.240194
O64   O     O_R   0.366743 0.655108 0.466545 -0.331775
N20   N     N_R   0.050512 0.299004 0.033071 0.143426
O65   O     O_R   0.986149 0.230948 0.049244 -0.158939
O66   O     O_R   0.129249 0.302235 0.028570 -0.224762
N21   N     N_R   0.664754 0.768178 0.477531 0.144553
O67   O     O_R   0.660194 0.843617 0.480263 -0.293623
O68   O     O_R   0.738383 0.772506 0.465467 -0.203015
N22   N     N_R   0.233899 0.868571 0.029434 0.139388
O69   O     O_R   0.188510 0.895499 0.047138 -0.173176
O70   O     O_R   0.194922 0.782306 0.020870 -0.289334
N23   N     N_R   0.723662 0.354516 0.451559 0.144256
O71   O     O_R   0.664802 0.383093 0.446750 -0.207586
O72   O     O_R   0.705835 0.274186 0.441001 -0.157940
N24   N     N_R   0.685269 0.749789 0.029937 0.142044
O73   O     O_R   0.756479 0.761612 0.046178 -0.145113
O74   O     O_R   0.673650 0.820316 0.024293 -0.239283
O75   O     O_3   0.765291 0.473893 0.841734 -0.532184
C169  C     C_3   0.770924 0.553743 0.855428 -0.076248
H13   H     H_    0.842750 0.614105 0.855955 0.150822
H14   H     H_    0.740606 0.537400 0.879305 0.166056
H15   H     H_    0.729890 0.575832 0.841247 0.124631
O76   O     O_3   0.684786 0.075046 0.689582 -0.536573
C170  C     C_3   0.774918 0.137603 0.679012 -0.068788
H16   H     H_    0.781196 0.203947 0.670397 0.128266
H17   H     H_    0.796998 0.105833 0.660652 0.132852
H18   H     H_    0.822844 0.154223 0.699069 0.149989
O77   O     O_3   0.518777 0.286366 0.840477 -0.539420
C171  C     C_3   0.428505 0.215806 0.848857 -0.057739
H19   H     H_    0.374899 0.236824 0.845822 0.145544
H20   H     H_    0.427907 0.192626 0.873341 0.171762
H21   H     H_    0.407281 0.155713 0.833350 0.187815
O78   O     O_3   0.777914 0.514752 0.666511 -0.526545
C172  C     C_3   0.800956 0.607342 0.660008 -0.066098
H22   H     H_    0.773875 0.612352 0.636737 0.146141
H23   H     H_    0.876770 0.656830 0.661611 0.137286
H24   H     H_    0.766772 0.629002 0.677554 0.175697
O79   O     O_3   0.724622 0.222698 0.838276 -0.533848
C173  C     C_3   0.783415 0.184471 0.840272 -0.063779
H25   H     H_    0.756700 0.120437 0.826010 0.120568
H26   H     H_    0.793936 0.170131 0.864945 0.149872
H27   H     H_    0.852232 0.235598 0.830781 0.193759
O80   O     O_3   0.594271 0.338619 0.652768 -0.580804
C174  C     C_3   0.630557 0.323806 0.625003 -0.065846
H28   H     H_    0.674747 0.293652 0.631351 0.155990
H29   H     H_    0.674702 0.389514 0.612035 0.170144
H30   H     H_    0.574178 0.273002 0.609826 0.148441
O81   O     O_3   0.543053 0.802870 0.329787 -0.516757
C175  C     C_3   0.638683 0.859656 0.324215 -0.065927
H31   H     H_    0.678236 0.882340 0.346490 0.149211
H32   H     H_    0.653165 0.920848 0.309404 0.125399
H33   H     H_    0.663594 0.818675 0.311318 0.143347
O82   O     O_3   0.214543 0.714818 0.159226 -0.540068
C176  C     C_3   0.191095 0.784286 0.153313 -0.040674
H34   H     H_    0.121829 0.765670 0.162933 0.134891
H35   H     H_    0.194485 0.799974 0.127897 0.186277
H36   H     H_    0.242380 0.848805 0.165054 0.194791
O83   O     O_3   0.347750 0.644374 0.338041 -0.561666
C177  C     C_3   0.300805 0.666191 0.360895 -0.099982
H37   H     H_    0.350051 0.719848 0.377069 0.175559
H38   H     H_    0.249757 0.603490 0.373933 0.123711
H39   H     H_    0.262544 0.696281 0.349004 0.126224
O84   O     O_3   0.501724 0.795144 0.157765 -0.542803
C178  C     C_3   0.587347 0.810630 0.145958 -0.053778
H40   H     H_    0.644719 0.882620 0.150181 0.140168
H41   H     H_    0.581432 0.793788 0.120681 0.175476
H42   H     H_    0.605805 0.763074 0.158218 0.195590
O85   O     O_3   0.057422 0.670398 0.307130 -0.545887
C179  C     C_3   0.115634 0.763709 0.315350 -0.080562
H43   H     H_    0.185899 0.777126 0.321882 0.132479
H44   H     H_    0.085100 0.784677 0.334476 0.121377
H45   H     H_    0.123402 0.807710 0.294665 0.152367
O86   O     O_3   0.285491 0.499681 0.159947 -0.544094
C180  C     C_3   0.214308 0.410440 0.151362 -0.051197
H46   H     H_    0.232020 0.355291 0.156537 0.144158
H47   H     H_    0.196314 0.409531 0.126288 0.176131
H48   H     H_    0.151568 0.393401 0.165142 0.197477
N25   N     N_R   0.922128 0.668224 0.968604 0.142782
O87   O     O_R   0.848111 0.629673 0.951286 -0.272181
O88   O     O_R   0.962938 0.756926 0.973738 -0.136081
N26   N     N_R   0.789068 0.147490 0.528276 0.150448
O89   O     O_R   0.828146 0.112683 0.545922 -0.211585
O90   O     O_R   0.827342 0.236968 0.525421 -0.210037
N27   N     N_R   0.337117 0.240733 0.972264 0.141508
O91   O     O_R   0.377066 0.205889 0.955411 -0.298969
O92   O     O_R   0.248746 0.191663 0.977788 -0.146926
N28   N     N_R   0.130115 0.767744 0.536229 0.149419
O93   O     O_R   0.083961 0.793560 0.554028 -0.220000
O94   O     O_R   0.219300 0.820729 0.533859 -0.188956
N29   N     N_R   0.729285 0.278996 0.982408 0.127903
O95   O     O_R   0.781623 0.261340 0.964560 -0.283751
O96   O     O_R   0.757603 0.363918 0.990901 -0.289806
N30   N     N_R   0.248840 0.288224 0.536032 0.145325
O97   O     O_R   0.260464 0.218523 0.543209 -0.195752
O98   O     O_R   0.167044 0.279441 0.538419 -0.172095
N31   N     N_R   0.772036 0.122158 0.462862 0.150302
O99   O     O_R   0.797297 0.074101 0.445826 -0.195498
O100  O     O_R   0.824131 0.211845 0.463587 -0.183571
N32   N     N_R   0.916371 0.662742 0.033333 0.151957
O101  O     O_R   0.828416 0.635141 0.034483 -0.212771
O102  O     O_R   0.976094 0.744448 0.043670 -0.151863
N33   N     N_R   0.243166 0.303806 0.471802 0.144518
O103  O     O_R   0.182161 0.321037 0.459111 -0.182947
O104  O     O_R   0.228508 0.219313 0.472214 -0.173639
N34   N     N_R   0.718139 0.248786 0.046650 0.148625
O105  O     O_R   0.799221 0.256899 0.042668 -0.231835
O106  O     O_R   0.709378 0.305727 0.065114 -0.190188
N35   N     N_R   0.152137 0.785965 0.470773 0.148910
O107  O     O_R   0.117537 0.828740 0.454972 -0.232312
O108  O     O_R   0.241303 0.820417 0.471461 -0.204075
N36   N     N_R   0.342946 0.245688 0.037002 0.153041
O109  O     O_R   0.263588 0.226267 0.048991 -0.166240
O110  O     O_R   0.366939 0.182281 0.036501 -0.254456
O111  O     O_3   0.994545 0.401838 0.192464 -0.519230
C181  C     C_3   0.928488 0.412708 0.209604 -0.059076
H49   H     H_    0.898667 0.357730 0.227855 0.171393
H50   H     H_    0.870612 0.404629 0.194367 0.150784
H51   H     H_    0.960714 0.480776 0.221691 0.104508
O112  O     O_3   0.381601 0.977767 0.324775 -0.537274
C182  C     C_3   0.299116 0.964608 0.338744 -0.040089
H52   H     H_    0.311662 0.028888 0.350566 0.215859
H53   H     H_    0.266927 0.904978 0.355463 0.109769
H54   H     H_    0.248439 0.952126 0.319917 0.120853
O113  O     O_3   0.600169 0.597211 0.191581 -0.519883
C183  C     C_3   0.591690 0.522069 0.209658 -0.065872
H55   H     H_    0.600094 0.471702 0.195004 0.153664
H56   H     H_    0.524458 0.486464 0.222355 0.108268
H57   H     H_    0.647519 0.549154 0.227457 0.152144
O114  O     O_3   0.088651 0.405681 0.333409 -0.506224
C184  C     C_3   0.169484 0.412670 0.346737 -0.024881
H58   H     H_    0.163755 0.343353 0.346093 0.187235
H59   H     H_    0.181070 0.435379 0.371554 0.145075
H60   H     H_    0.230211 0.459931 0.332450 0.149952
O115  O     O_3   0.401798 0.004706 0.195366 -0.519586
C185  C     C_3   0.477646 0.071132 0.212759 -0.056679
H61   H     H_    0.451083 0.096530 0.231781 0.177318
H62   H     H_    0.524569 0.131962 0.197964 0.149278
H63   H     H_    0.516768 0.040336 0.223877 0.098858
O116  O     O_3   0.520802 0.490807 0.315235 -0.537642
C186  C     C_3   0.614864 0.557769 0.310966 -0.069311
H64   H     H_    0.643850 0.533373 0.292416 0.148862
H65   H     H_    0.655690 0.567036 0.332628 0.170572
H66   H     H_    0.623394 0.625561 0.303127 0.117829
O117  O     O_3   0.402577 0.078308 0.668581 -0.509908
C187  C     C_3   0.397145 0.153005 0.654869 -0.013238
H67   H     H_    0.323229 0.133762 0.653496 0.179852
H68   H     H_    0.425719 0.171588 0.630755 0.138331
H69   H     H_    0.431997 0.214416 0.670161 0.167278
O118  O     O_3   0.016052 0.426925 0.808387 -0.523736
C188  C     C_3   0.075246 0.510460 0.792504 -0.053211
H70   H     H_    0.112673 0.495776 0.774040 0.176617
H71   H     H_    0.127998 0.562478 0.808553 0.161602
H72   H     H_    0.035544 0.539715 0.780804 0.097980
O119  O     O_3   0.514151 0.550358 0.700681 -0.522320
C189  C     C_3   0.426425 0.496507 0.714629 -0.058834
H73   H     H_    0.370107 0.489303 0.698770 0.157643
H74   H     H_    0.423527 0.532166 0.736048 0.187447
H75   H     H_    0.414464 0.426907 0.721823 0.094270
O120  O     O_3   0.408720 0.991072 0.815143 -0.523064
C190  C     C_3   0.429436 0.927752 0.800592 -0.047614
H76   H     H_    0.371563 0.883343 0.784714 0.175252
H77   H     H_    0.436163 0.881377 0.818053 0.165786
H78   H     H_    0.493268 0.964137 0.786134 0.100446
O121  O     O_3   0.992959 0.400893 0.678994 -0.538566
C191  C     C_3   0.990375 0.320358 0.667293 -0.045712
H79   H     H_    0.058985 0.338175 0.657656 0.207200
H80   H     H_    0.936099 0.282945 0.649252 0.106940
H81   H     H_    0.977089 0.271938 0.687109 0.123840
O122  O     O_3   0.554533 0.580713 0.807884 -0.527802
C192  C     C_3   0.643043 0.660891 0.809294 -0.043689
H82   H     H_    0.665456 0.686583 0.833543 0.147357
H83   H     H_    0.640883 0.717191 0.795901 0.177100
H84   H     H_    0.695655 0.648506 0.798035 0.130637
N37   N     N_R   0.917003 0.357710 0.131830 0.129525
O123  O     O_R   0.910093 0.284168 0.145377 -0.231185
O124  O     O_R   0.853255 0.348257 0.112133 -0.200759
N38   N     N_R   0.431607 0.029049 0.390031 0.099887
O125  O     O_R   0.466723 0.112210 0.378269 -0.215883
O126  O     O_R   0.391858 0.011341 0.417322 -0.228718
N39   N     N_R   0.643071 0.560755 0.131199 0.128961
O127  O     O_R   0.716256 0.627960 0.144201 -0.228106
O128  O     O_R   0.653248 0.507134 0.111554 -0.229987
N40   N     N_R   0.022477 0.400811 0.394683 0.116329
O129  O     O_R   0.981782 0.315212 0.385319 -0.189819
O130  O     O_R   0.052035 0.419531 0.423375 -0.253895
N41   N     N_R   0.421321 0.083593 0.135413 0.119943
O131  O     O_R   0.349911 0.079112 0.149362 -0.239247
O132  O     O_R   0.469161 0.152204 0.116252 -0.234923
N42   N     N_R   0.539013 0.460722 0.380057 0.119949
O133  O     O_R   0.532335 0.391628 0.363934 -0.203236
O134  O     O_R   0.588683 0.484953 0.405430 -0.248762
N43   N     N_R   0.397248 0.014433 0.606744 0.111788
O135  O     O_R   0.312806 0.968266 0.617215 -0.194512
O136  O     O_R   0.411516 0.042916 0.577793 -0.265780
N44   N     N_R   0.094455 0.468316 0.869254 0.131979
O137  O     O_R   0.118395 0.414785 0.854898 -0.217172
O138  O     O_R   0.151855 0.528838 0.889049 -0.235586
N45   N     N_R   0.459958 0.591727 0.642387 0.126264
O139  O     O_R   0.395282 0.579330 0.622614 -0.207198
O140  O     O_R   0.494852 0.664380 0.660243 -0.226772
N46   N     N_R   0.386832 0.933301 0.878433 0.137725
O141  O     O_R   0.306175 0.897555 0.864996 -0.201681
O142  O     O_R   0.402348 0.883709 0.898662 -0.253613
N47   N     N_R   0.049480 0.449669 0.614047 0.105037
O143  O     O_R   0.130099 0.491588 0.627567 -0.219527
O144  O     O_R   0.041172 0.410956 0.587003 -0.226684
N48   N     N_R   0.491177 0.599343 0.869170 0.142919
O145  O     O_R   0.504687 0.663797 0.848974 -0.265899
O146  O     O_R   0.439980 0.589242 0.893440 -0.224561

loop_
_geom_bond_atom_site_label_1
_geom_bond_atom_site_label_2
_geom_bond_distance
_ccdc_geom_bond_type
C86   N31   1.438764 S    
C64   C76   1.415516 A    
C100  C107  1.409707 A    
C117  C165  1.410369 A    
C190  H76   1.109189 S    
N15   O56   1.301032 A    
C10   C24   1.476056 S    
N29   O95   1.301099 A    
N9    C57   1.376318 Am   
C52   O42   1.221132 D    
C45   N9    1.375271 Am   
C170  H16   1.114747 S    
N43   O135  1.301081 A    
C182  H54   1.107753 S    
O13   C1    1.290033 A    
C63   C75   1.418307 A    
C192  H82   1.114633 S    
O78   C172  1.414523 S    
C45   O35   1.221576 D    
N24   O73   1.300914 A    
C135  C147  1.400057 A    
C56   O46   1.221130 D    
C76   C83   1.415273 A    
C37   N1    1.376388 Am   
C184  H59   1.112712 S    
N44   O138  1.301338 A    
C172  H24   1.108604 S    
C39   N3    1.376289 Am   
C28   C40   1.412892 A    
O24   Cr6   1.898415 S    
N34   O105  1.300912 A    
O10   Cr4   2.000705 S    
C91   N26   1.435487 S    
C186  H66   1.112743 S    
O12   Cr6   1.996631 S    
N12   C60   1.379760 Am   
C18   C141  1.407056 A    
C90   N33   1.435407 S    
C123  O113  1.383227 S    
C70   C106  1.416788 A    
C101  C106  1.406112 A    
C177  H37   1.106597 S    
C114  C126  1.414083 A    
C72   C84   1.418218 A    
Cr4   O26   1.967659 S    
C136  O85   1.385002 S    
O1    Cr1   1.992491 S    
C17   C130  1.409435 A    
N35   O108  1.299535 A    
N4    C52   1.380257 Am   
C24   C123  1.415487 A    
O3    Cr3   2.006372 S    
C50   O40   1.221067 D    
C21   C126  1.407157 A    
O7    C9    1.282930 A    
Cr6   O26   1.965284 S    
C36   C96   1.416452 A    
C66   C78   1.420150 A    
C33   C45   1.412726 A    
C97   N20   1.434999 S    
C16   C131  1.418942 A    
C53   C65   1.415538 A    
C35   C47   1.417184 A    
O86   C180  1.413146 S    
C183  H56   1.113064 S    
C26   C38   1.415354 A    
C172  H22   1.110452 S    
O4    C6    1.288913 A    
C5    C13   1.472778 S    
C175  H31   1.112323 S    
C48   O38   1.222270 D    
N39   O128  1.301401 A    
C69   C105  1.416888 A    
N10   C58   1.383875 Am   
C118  N46   1.436853 S    
O14   Cr2   1.896664 S    
O15   C3    1.287462 A    
C72   C108  1.417674 A    
C22   C137  1.409945 A    
C143  C155  1.395834 A    
C177  H39   1.107470 S    
C173  H25   1.113892 S    
C130  O120  1.383586 S    
C134  C146  1.391323 A    
O15   Cr3   1.890256 S    
C40   O30   1.222270 D    
C19   C122  1.419353 A    
O5    C1    1.286142 A    
C191  H79   1.108475 S    
C59   C71   1.414295 A    
N10   C166  1.480310 S    
C11   C19   1.508038 S    
O111  C181  1.409864 S    
N20   O66   1.301071 A    
C65   C77   1.417468 A    
C182  H52   1.108032 S    
C109  N37   1.439026 S    
O122  C192  1.413840 S    
C192  H84   1.107868 S    
C50   C62   1.416966 A    
C154  C166  1.411885 A    
C169  H15   1.101539 S    
C179  H43   1.112200 S    
N7    C163  1.448852 S    
N35   O107  1.300928 A    
C134  O81   1.382099 S    
C25   C73   1.418847 A    
C44   N8    1.378786 Am   
O23   Cr5   1.898701 S    
O118  C188  1.410216 S    
Cr2   O25   1.967338 S    
C169  H14   1.110718 S    
N22   O69   1.301092 A    
C53   O43   1.221531 D    
N48   O145  1.300400 A    
N26   O89   1.301037 A    
C126  O116  1.383402 S    
C20   C121  1.413975 A    
N23   O72   1.300279 A    
C33   C81   1.419177 A    
C38   O28   1.221692 D    
N3    C159  1.442363 S    
O21   Cr6   1.888570 S    
C40   N4    1.380954 Am   
N1    C157  1.442015 S    
O21   C9    1.296499 A    
C176  H34   1.114786 S    
C33   C93   1.417351 A    
C117  C129  1.411157 A    
N36   O109  1.301006 A    
C89   C94   1.403326 A    
C28   C76   1.411451 A    
N14   O53   1.300267 A    
N40   O130  1.301275 A    
O119  C189  1.410093 S    
C142  C154  1.393632 A    
N27   O91   1.301138 A    
C31   C91   1.417215 A    
O115  C185  1.409530 S    
C42   N6    1.374236 Am   
N43   O136  1.301251 A    
C96   N27   1.436565 S    
C137  C149  1.408384 A    
N13   O51   1.301302 A    
C148  C160  1.395398 A    
C175  H33   1.109330 S    
N4    C160  1.446084 S    
C187  H67   1.109078 S    
C170  H17   1.110594 S    
C20   C133  1.408392 A    
N47   O144  1.301128 A    
N17   O59   1.301025 A    
C58   O48   1.218369 D    
C120  C132  1.430191 A    
C104  N13   1.435630 S    
C112  N40   1.437608 S    
O3    C5    1.279110 A    
C29   C77   1.419035 A    
N6    C162  1.435994 S    
C114  C162  1.411294 A    
C171  H21   1.104863 S    
N18   O61   1.301302 A    
C17   C142  1.406016 A    
C93   N30   1.433545 S    
C47   O37   1.221453 D    
C77   C82   1.417230 A    
C12   C20   1.472060 S    
C19   C134  1.427645 A    
C115  N43   1.437059 S    
C13   C128  1.414546 A    
C27   C75   1.420165 A    
C32   C80   1.413495 A    
C47   N11   1.379582 Am   
C101  N22   1.435574 S    
C141  O80   1.400110 S    
C56   C68   1.416948 A    
C179  H45   1.109129 S    
C31   C79   1.410641 A    
N30   O97   1.301070 A    
C188  H71   1.113487 S    
N21   O67   1.300411 A    
C39   O29   1.221597 D    
C180  H47   1.110231 S    
O22   C10   1.290363 A    
C135  O86   1.389866 S    
C133  O82   1.387209 S    
C150  H9    1.080787 S    
O8    Cr5   2.008239 S    
C42   O32   1.221805 D    
O85   C179  1.407168 S    
N38   O125  1.301085 A    
C95   N28   1.439192 S    
N5    C53   1.378371 Am   
O2    Cr2   1.996117 S    
C173  H26   1.111935 S    
O121  C191  1.414123 S    
N31   O99   1.301386 A    
C176  H36   1.107325 S    
N7    C55   1.381549 Am   
C43   N7    1.381729 Am   
C21   C138  1.412037 A    
N22   O70   1.301241 A    
C111  C123  1.413090 A    
C9    C23   1.496160 S    
O8    C10   1.283143 A    
C41   O31   1.221689 D    
C68   C80   1.417195 A    
C43   O33   1.222342 D    
C87   N36   1.434269 S    
C13   C140  1.405782 A    
C67   C79   1.414858 A    
C174  H29   1.111360 S    
C49   C61   1.414810 A    
C189  H73   1.113254 S    
C171  H20   1.110854 S    
C54   C66   1.413779 A    
C115  C163  1.413018 A    
C185  H61   1.109240 S    
C144  C156  1.387919 A    
N11   C167  1.444803 S    
C153  C165  1.398697 A    
N20   O65   1.301160 A    
C74   C79   1.415013 A    
C6    C14   1.499778 S    
C187  H69   1.106963 S    
C118  C130  1.417586 A    
C151  C163  1.394002 A    
C182  H53   1.115108 S    
N19   O63   1.300692 A    
C138  O83   1.402300 S    
C136  C148  1.403053 A    
N24   O74   1.301043 A    
C85   C92   1.400438 A    
N16   O57   1.300655 A    
C86   C91   1.410673 A    
C184  H58   1.108983 S    
C108  N15   1.435458 S    
O6    C2    1.297599 A    
C31   C43   1.411687 A    
C71   C83   1.412297 A    
N45   O140  1.301227 A    
N34   O106  1.300906 A    
C147  C159  1.396979 A    
O17   Cr2   1.888180 S    
C186  H65   1.112413 S    
C111  C159  1.410913 A    
C62   C74   1.412320 A    
C178  H42   1.108635 S    
C119  N47   1.434524 S    
C52   C64   1.416991 A    
C145  C157  1.397867 A    
O19   Cr4   1.890170 S    
C109  C157  1.411158 A    
C35   C95   1.420946 A    
O81   C175  1.410026 S    
N46   O141  1.301485 A    
C189  H75   1.113107 S    
N28   O93   1.301394 A    
C66   C102  1.419220 A    
C177  H38   1.110034 S    
C102  N21   1.434064 S    
C102  C105  1.402079 A    
C3    C17   1.479447 S    
N33   O104  1.300946 A    
C172  H23   1.114791 S    
O16   C4    1.286229 A    
C181  H49   1.109198 S    
N6    C54   1.376104 Am   
C46   N10   1.387093 Am   
O17   C5    1.287210 A    
O19   C7    1.290273 A    
C143  O78   1.388415 S    
C24   C135  1.410093 A    
C141  C153  1.406266 A    
C46   O36   1.220500 D    
C48   N12   1.379112 Am   
C38   N2    1.379127 Am   
C34   C82   1.412765 A    
O20   C8    1.291982 A    
C110  C122  1.434859 A    
N37   O124  1.300523 A    
C61   C73   1.416958 A    
O120  C190  1.410611 S    
C34   C94   1.416952 A    
C175  H32   1.113885 S    
O76   C170  1.408312 S    
C8    C22   1.478719 S    
N41   O132  1.300819 A    
C65   C101  1.421665 A    
N32   O101  1.300476 A    
C150  C162  1.392592 A    
C105  N18   1.436217 S    
C26   C86   1.419936 A    
C90   C93   1.400541 A    
C18   C129  1.408913 A    
N2    C50   1.382114 Am   
C68   C104  1.417133 A    
C88   C95   1.411186 A    
C115  C127  1.421588 A    
C98   N19   1.439257 S    
C30   C90   1.417753 A    
C67   C103  1.419125 A    
N25   O88   1.300811 A    
C113  C125  1.409407 A    
C1    C15   1.476939 S    
C2    C16   1.501397 S    
O16   Cr1   1.883256 S    
C191  H80   1.114566 S    
C147  H12   1.082436 S    
N29   O96   1.301102 A    
O5    Cr2   2.006696 S    
C49   O39   1.221300 D    
C142  O79   1.382727 S    
C51   O41   1.221281 D    
C154  H5    1.078472 S    
C188  H70   1.109232 S    
C192  H83   1.109235 S    
C34   C46   1.410422 A    
C173  H27   1.108721 S    
C132  O122  1.384860 S    
C125  O115  1.383245 S    
N39   O127  1.301218 A    
O113  C183  1.409986 S    
O114  C184  1.411320 S    
C179  H44   1.110715 S    
O84   C178  1.412113 S    
C184  H60   1.104263 S    
O77   C171  1.416736 S    
N44   O137  1.301196 A    
C181  H51   1.113179 S    
C29   C41   1.414650 A    
C116  C128  1.417332 A    
C55   O45   1.220730 D    
C103  N14   1.434274 S    
C112  C160  1.410938 A    
C138  C150  1.405530 A    
C119  C131  1.432783 A    
C146  H7    1.083962 S    
Cr1   O25   1.971265 S    
N11   C59   1.381635 Am   
O18   Cr3   1.897513 S    
C28   C88   1.417463 A    
O75   C169  1.415515 S    
C36   C84   1.414529 A    
C29   C89   1.419339 A    
C78   C81   1.418455 A    
C190  H77   1.113844 S    
C26   C74   1.415233 A    
N48   O146  1.301431 A    
C16   C143  1.423246 A    
C113  N41   1.440729 S    
C137  O84   1.391141 S    
C32   C92   1.415334 A    
N26   O90   1.299464 A    
O24   C12   1.288075 A    
C149  H10   1.081950 S    
C133  C145  1.397207 A    
N3    C51   1.378661 Am   
C75   C84   1.417997 A    
N8    C56   1.380260 Am   
O23   C11   1.284075 A    
N9    C165  1.438397 S    
Cr5   O26   1.971148 S    
C152  H1    1.082694 S    
C94   N29   1.436065 S    
C139  O76   1.384616 S    
N36   O110  1.301060 A    
N14   O54   1.300334 A    
C122  O112  1.390355 S    
O80   C174  1.412082 S    
C128  O118  1.383056 S    
C183  H55   1.113586 S    
N27   O92   1.301040 A    
C92   N25   1.436932 S    
C61   C97   1.420525 A    
C110  N38   1.433720 S    
C23   C124  1.421872 A    
C187  H68   1.112192 S    
O112  C182  1.413531 S    
C156  C168  1.394535 A    
N23   O71   1.300469 A    
C178  H40   1.114627 S    
C54   O44   1.221652 D    
C106  N17   1.434766 S    
N19   O64   1.300905 A    
C55   C67   1.419190 A    
C25   C85   1.418034 A    
C145  H8    1.082826 S    
C23   C136  1.412981 A    
C116  N44   1.439213 S    
C89   N34   1.433951 S    
O83   C177  1.411629 S    
C118  C166  1.430938 A    
C37   O27   1.221782 D    
N2    C158  1.445373 S    
C107  N16   1.439140 S    
O4    Cr1   2.008925 S    
N18   O62   1.301048 A    
O79   C173  1.410705 S    
C131  O121  1.389784 S    
O117  C187  1.412348 S    
O9    C11   1.303972 A    
O6    Cr3   2.000529 S    
C30   C42   1.412207 A    
O10   C12   1.280390 A    
C100  N23   1.433606 S    
C88   N35   1.434886 S    
C36   C48   1.408559 A    
C174  H28   1.109680 S    
C71   C107  1.421232 A    
N47   O143  1.301107 A    
C112  C124  1.417872 A    
N30   O98   1.300755 A    
O20   Cr5   1.883117 S    
N37   O123  1.301216 A    
C14   C127  1.421566 A    
C180  H46   1.114937 S    
C70   C82   1.415846 A    
C148  H11   1.082370 S    
C41   N5    1.376252 Am   
O9    Cr6   2.008515 S    
C151  H2    1.082552 S    
C155  H4    1.082522 S    
C169  H13   1.115480 S    
C117  N45   1.440303 S    
C57   O47   1.221852 D    
C59   O49   1.222064 D    
N38   O126  1.301050 A    
C62   C98   1.422772 A    
C121  O111  1.383093 S    
C73   C80   1.416207 A    
C149  C161  1.399048 A    
C4    C18   1.460519 S    
N5    C161  1.440956 S    
C113  C161  1.408624 A    
C176  H35   1.110431 S    
O7    Cr4   2.004854 S    
N21   O68   1.301030 A    
C120  N48   1.449168 S    
C44   O34   1.222493 D    
O13   Cr1   1.899003 S    
C120  C168  1.421195 A    
N1    C49   1.379167 Am   
C97   C104  1.405818 A    
C58   C70   1.417994 A    
N40   O129  1.301098 A    
O11   C7    1.279347 A    
C98   C103  1.411869 A    
C22   C125  1.415379 A    
C15   C144  1.405100 A    
O12   C8    1.279471 A    
C189  H74   1.109319 S    
N31   O100  1.300177 A    
C69   C81   1.418086 A    
C183  H57   1.109234 S    
C185  H62   1.113649 S    
C153  H6    1.081525 S    
C191  H81   1.108038 S    
C14   C139  1.415223 A    
C190  H78   1.112331 S    
N13   O52   1.301053 A    
C109  C121  1.411292 A    
C152  C164  1.396579 A    
C35   C83   1.415759 A    
N8    C164  1.446319 S    
C170  H18   1.108339 S    
C111  N39   1.440335 S    
C116  C164  1.414907 A    
C51   C63   1.415372 A    
C124  O114  1.386099 S    
N17   O60   1.300802 A    
C27   C87   1.419260 A    
N42   O133  1.301280 A    
Cr3   O25   1.965487 S    
O14   C2    1.285004 A    
N16   O58   1.301586 A    
C185  H63   1.113274 S    
C140  C152  1.395107 A    
N12   C168  1.447239 S    
C186  H64   1.109203 S    
O22   Cr4   1.895898 S    
N45   O139  1.301286 A    
C32   C44   1.405999 A    
C7    C21   1.462429 S    
C178  H41   1.110293 S    
C155  C167  1.384157 A    
O18   C6    1.296590 A    
N46   O142  1.301514 A    
N28   O94   1.300265 A    
C30   C78   1.419409 A    
C129  O119  1.383264 S    
C15   C132  1.417704 A    
N15   O55   1.301246 A    
C188  H72   1.112942 S    
N33   O103  1.301252 A    
C180  H48   1.107768 S    
O116  C186  1.410853 S    
C171  H19   1.116369 S    
C181  H50   1.113622 S    
C64   C100  1.418082 A    
C87   C96   1.401527 A    
C139  C151  1.401443 A    
N42   O134  1.300945 A    
O82   C176  1.412594 S    
C144  O77   1.384392 S    
C140  O75   1.388724 S    
C85   N32   1.432327 S    
O11   Cr5   1.992186 S    
C57   C69   1.412684 A    
N41   O131  1.301284 A    
C146  C158  1.384431 A    
C156  H3    1.083555 S    
N32   O102  1.300813 A    
C110  C158  1.411946 A    
C99   N24   1.435715 S    
C63   C99   1.420904 A    
C114  N42   1.440128 S    
C127  O117  1.386809 S    
C60   O50   1.221336 D    
C174  H30   1.109742 S    
O1    C3    1.288151 A    
O2    C4    1.277566 A    
C25   C37   1.411063 A    
N25   O87   1.301511 A    
C119  C167  1.411418 A    
C27   C39   1.412497 A    
C99   C108  1.405500 A    
C60   C72   1.417565 A    
