data_mof_unit_6397.cif
_audit_creation_date              2013-03-05T15:53:24-0500
_audit_creation_method            fapswitch 2.2
_symmetry_space_group_name_H-M    P1
_symmetry_Int_Tables_number       1
_space_group_crystal_system       triclinic
_cell_length_a                    10.689436
_cell_length_b                    10.681744
_cell_length_c                    16.937836
_cell_angle_alpha                 99.238767
_cell_angle_beta                  98.738316
_cell_angle_gamma                 61.795654
_cell_volume                      1675.81518284

loop_
_atom_site_label
_atom_site_type_symbol
_atom_site_description
_atom_site_fract_x
_atom_site_fract_y
_atom_site_fract_z
_atom_type_partial_charge
O1    O     O_R   0.751220 0.499230 0.435170 -0.453693
O2    O     O_R   0.477220 0.727600 0.436870 -0.458608
C1    C     C_R   0.355923 0.774247 0.399085 0.581230
O3    O     O_R   0.258650 0.745120 0.411470 -0.481971
O4    O     O_R   0.297070 0.467240 0.395960 -0.454387
C2    C     C_R   0.372661 0.347599 0.358550 0.612968
O5    O     O_R   0.488830 0.252610 0.387790 -0.445627
O6    O     O_R   0.724400 0.302390 0.420980 -0.470206
C3    C     C_R   0.779151 0.374175 0.402991 0.597121
O7    O     O_R   0.752100 0.501210 0.612190 -0.460082
O8    O     O_R   0.478040 0.729440 0.600970 -0.428330
C4    C     C_R   0.378724 0.717236 0.631439 0.515095
O9    O     O_R   0.259530 0.747110 0.588490 -0.480015
O10   O     O_R   0.297880 0.469080 0.560050 -0.483846
C5    C     C_R   0.366402 0.345096 0.584139 0.608589
O11   O     O_R   0.489720 0.254590 0.564810 -0.466180
O12   O     O_R   0.725220 0.304230 0.585080 -0.474081
C6    C     C_R   0.720741 0.409536 0.635874 0.503558
Cr1   Cr    Cr6+3 0.608340 0.611040 0.520430 1.181931
Cr2   Cr    Cr6+3 0.287650 0.601120 0.489350 1.152566
Cr3   Cr    Cr6+3 0.604040 0.287870 0.490280 1.167984
O13   O     O_3   0.500010 0.500010 0.500020 -0.381420
C7    C     C_1   0.345087 0.336042 0.275089 0.016419
C8    C     C_1   0.331136 0.326008 0.204009 0.020907
C9    C     C_3   0.731401 0.329288 0.199943 0.160628
C10   C     C_3   0.718810 0.453252 0.264857 -0.191121
H1    H     H_    0.624495 0.544292 0.289300 0.130321
C11   C     C_3   0.821823 0.339688 0.322570 -0.029295
C12   C     C_3   0.830627 0.218718 0.256761 0.155651
C13   C     C_3   0.962149 0.216974 0.228846 -0.204027
C14   C     C_3   0.949814 0.340433 0.294320 0.163496
C15   C     C_3   0.850662 0.450950 0.237582 0.169728
C16   C     C_3   0.859060 0.330006 0.172162 -0.029199
H2    H     H_    0.053237 0.128066 0.200744 0.130760
C17   C     C_3   0.452796 0.743529 0.208989 -0.106784
C18   C     C_3   0.354925 0.705045 0.248513 -0.147444
H3    H     H_    0.370227 0.596188 0.253231 0.151654
H4    H     H_    0.543182 0.670091 0.173413 0.202240
C19   C     C_3   0.349478 0.814799 0.321134 0.021173
C20   C     C_3   0.445976 0.851809 0.282092 0.207416
C21   C     C_3   0.314388 0.970821 0.243182 -0.104446
C22   C     C_3   0.217152 0.931067 0.282518 -0.123290
C23   C     C_3   0.221161 0.822766 0.209425 -0.088360
C24   C     C_3   0.319536 0.860507 0.171432 0.002150
H5    H     H_    0.300605 0.078977 0.238249 0.144803
H6    H     H_    0.124465 0.002240 0.317290 0.199719
H7    H     H_    0.128488 0.809405 0.178116 0.210579
C25   C     C_3   0.457023 0.263860 0.774560 0.141046
C26   C     C_3   0.396860 0.403420 0.734519 -0.200392
H8    H     H_    0.455141 0.464991 0.731460 0.094301
C27   C     C_3   0.335959 0.332033 0.661366 -0.025163
C28   C     C_3   0.398594 0.194354 0.702835 0.174715
C29   C     C_3   0.258290 0.252839 0.741127 0.167548
C30   C     C_3   0.195926 0.391005 0.700485 0.211163
C31   C     C_3   0.255409 0.459015 0.773043 0.175916
C32   C     C_3   0.318079 0.321603 0.814141 0.048289
C33   C     C_1   0.772295 0.366334 0.715295 -0.016626
C34   C     C_1   0.816886 0.328033 0.781565 0.052455
C35   C     C_1   0.356802 0.766524 0.714187 0.003805
C36   C     C_1   0.325316 0.812482 0.781824 0.029332
O14   O     O_R   0.171830 0.913880 0.057510 -0.508678
O15   O     O_R   0.940690 0.186050 0.054730 -0.475592
C37   C     C_R   0.894348 0.311255 0.091327 0.598966
O16   O     O_R   0.920470 0.405720 0.075010 -0.473355
O17   O     O_R   0.196690 0.370460 0.084120 -0.500115
C38   C     C_R   0.317926 0.298392 0.120513 0.606391
O18   O     O_R   0.412990 0.180750 0.091610 -0.438227
O19   O     O_R   0.366620 0.943130 0.065760 -0.494437
C39   C     C_R   0.291499 0.896050 0.089956 0.555450
O20   O     O_R   0.160510 0.906330 0.879210 -0.470864
O21   O     O_R   0.930190 0.179050 0.889450 -0.432308
C40   C     C_R   0.881125 0.300972 0.861601 0.622575
O22   O     O_R   0.909140 0.398170 0.896710 -0.507055
O23   O     O_R   0.186190 0.363460 0.918830 -0.473589
C41   C     C_R   0.308421 0.294066 0.892635 0.643872
O24   O     O_R   0.401670 0.173200 0.913310 -0.445623
O25   O     O_R   0.356120 0.936130 0.900470 -0.475881
C42   C     C_R   0.281841 0.880695 0.859670 0.589249
Cr4   Cr    Cr6+3 0.054020 0.052700 0.970850 1.162901
Cr5   Cr    Cr6+3 0.059230 0.375120 0.993390 1.136957
Cr6   Cr    Cr6+3 0.374950 0.061200 0.992340 1.168548
O26   O     O_3   0.162740 0.163010 0.985530 -0.332726
N1    N     N_R   0.597774 0.199915 0.817764 0.091152
O27   O     O_R   0.698511 0.080492 0.788710 -0.260150
O28   O     O_R   0.622931 0.263097 0.886012 -0.310328
N2    N     N_R   0.472396 0.047487 0.666881 0.118888
O29   O     O_R   0.529337 0.943876 0.712591 -0.269601
O30   O     O_R   0.464209 0.018087 0.589326 -0.266494
O31   O     O_3   0.185620 0.175074 0.746493 -0.688451
H9    H     H_    0.160778 0.145681 0.690258 0.357907
O32   O     O_3   0.060030 0.455612 0.660419 -0.618772
H10   H     H_    0.993359 0.486848 0.702565 0.360451
O33   O     O_3   0.181157 0.595930 0.811737 -0.649309
H11   H     H_    0.145730 0.660867 0.768850 0.352077
N3    N     N_R   0.620055 0.321659 0.141484 0.082978
O34   O     O_R   0.652510 0.209669 0.089443 -0.231383
O35   O     O_R   0.504976 0.438247 0.126494 -0.389000
N4    N     N_R   0.824809 0.087936 0.265440 0.105027
O36   O     O_R   0.827059 0.000368 0.202120 -0.234930
O37   O     O_R   0.842860 0.046081 0.336091 -0.256607
N5    N     N_R   0.063048 0.346207 0.352147 0.081003
O38   O     O_R   0.035296 0.461063 0.401373 -0.233662
O39   O     O_R   0.173270 0.227812 0.370221 -0.372423
N6    N     N_R   0.863152 0.576446 0.224585 0.130533
O40   O     O_R   0.966552 0.600306 0.262119 -0.243297
O41   O     O_R   0.777852 0.659097 0.170687 -0.280257
N7    N     N_R   0.566677 0.874408 0.319915 0.108049
O42   O     O_R   0.631077 0.914208 0.277712 -0.198471
O43   O     O_R   0.599347 0.872877 0.396966 -0.244055

loop_
_geom_bond_atom_site_label_1
_geom_bond_atom_site_label_2
_geom_bond_distance
_ccdc_geom_bond_type
C31   C32   1.531249 S    
C10   C15   1.536864 S    
O33   H11   0.991021 S    
O20   C42   1.277599 A    
O16   Cr5   2.058597 S    
C21   C22   1.556622 S    
N3    O34   1.300151 A    
C23   C24   1.540168 S    
O21   Cr4   1.956759 S    
Cr6   O26   1.992638 S    
O4    Cr2   1.934769 S    
O25   C42   1.266858 A    
C36   C42   1.429352 S    
C10   H1    1.097416 S    
O15   C37   1.272467 A    
C12   N4    1.458727 S    
O19   Cr6   1.946386 S    
C14   N5    1.455736 S    
C18   H3    1.109639 S    
O18   Cr6   2.053504 S    
O7    C6    1.307462 A    
C13   C14   1.548179 S    
N2    O30   1.300180 A    
C5    O11   1.266639 A    
C22   H6    1.108163 S    
C26   H8    1.109683 S    
C4    C35   1.429232 S    
N1    O27   1.300005 A    
O19   C39   1.270263 A    
C26   C27   1.568849 S    
C7    C8    1.184201 T    
C15   N6    1.461550 S    
C5    C27   1.437783 S    
C13   C16   1.544998 S    
C8    C38   1.397065 S    
C38   O18   1.264110 A    
O2    Cr1   1.957394 S    
C1    C19   1.436469 S    
C35   C36   1.202969 T    
N5    O39   1.299061 A    
C32   C41   1.435544 S    
O23   Cr5   1.939761 S    
Cr3   O13   1.988093 S    
N7    O43   1.299395 A    
N6    O41   1.299695 A    
N6    O40   1.300584 A    
O6    Cr3   1.939863 S    
C19   C22   1.513347 S    
C11   C14   1.520293 S    
C9    C12   1.522105 S    
O1    Cr1   2.058326 S    
O23   C41   1.268282 A    
C13   H2    1.094600 S    
C27   C28   1.537055 S    
N5    O38   1.300409 A    
O10   Cr2   1.947306 S    
O15   Cr4   1.938324 S    
C17   H4    1.104839 S    
O1    C3    1.268568 A    
Cr5   O26   1.988386 S    
C19   C20   1.527827 S    
N2    O29   1.300003 A    
O6    C3    1.255678 A    
C9    C10   1.545785 S    
C26   C31   1.546379 S    
O12   Cr3   1.943872 S    
C17   C18   1.555424 S    
C41   O24   1.267173 A    
C12   C13   1.541049 S    
C6    C33   1.435256 S    
C14   C15   1.520740 S    
O25   Cr6   1.933441 S    
O7    Cr1   2.075837 S    
C16   C37   1.433343 S    
O8    Cr1   1.938744 S    
Cr1   O13   1.977852 S    
O12   C6    1.287887 A    
C24   C39   1.439937 S    
C17   C24   1.514128 S    
C20   N7    1.458414 S    
C20   C21   1.525156 S    
N1    O28   1.300248 A    
Cr2   O13   1.993158 S    
C9    N3    1.453060 S    
N4    O37   1.299704 A    
C29   O31   1.399038 S    
C21   C24   1.538720 S    
C22   C23   1.543445 S    
N7    O42   1.299750 A    
C1    O3    1.270825 A    
O32   H10   0.991041 S    
C28   C29   1.529729 S    
C29   C32   1.545729 S    
O14   C39   1.250739 A    
C25   C32   1.529590 S    
C30   C31   1.534574 S    
C11   C12   1.541267 S    
O9    Cr2   2.052169 S    
O20   Cr4   2.055447 S    
C18   C19   1.544344 S    
C40   O22   1.250111 A    
O24   Cr6   2.063511 S    
Cr4   O26   1.978215 S    
O8    C4    1.315028 A    
N3    O35   1.298917 A    
O11   Cr3   2.058330 S    
C29   C30   1.534031 S    
C2    O5    1.265045 A    
C10   C11   1.559077 S    
C25   N1    1.456117 S    
C27   C30   1.533790 S    
C15   C16   1.538122 S    
C28   N2    1.457298 S    
O2    C1    1.256434 A    
C30   O32   1.396508 S    
O5    Cr3   2.061793 S    
C34   C40   1.431159 S    
C33   C34   1.206259 T    
O4    C2    1.267717 A    
O14   Cr4   2.076383 S    
C25   C26   1.543310 S    
C2    C7    1.397231 S    
O22   Cr5   2.067370 S    
C17   C20   1.537568 S    
O17   C38   1.272279 A    
C37   O16   1.245728 A    
O3    Cr2   2.068502 S    
C25   C28   1.528191 S    
O21   C40   1.292332 A    
C4    O9    1.289576 A    
N4    O36   1.300080 A    
O17   Cr5   1.947437 S    
C21   H5    1.108939 S    
O10   C5    1.273854 A    
C18   C23   1.531083 S    
O31   H9    0.991097 S    
C23   H7    1.110240 S    
C31   O33   1.396951 S    
C3    C11   1.438077 S    
C9    C16   1.513209 S    
