data_mof_unit_14579.cif
_audit_creation_date              2012-12-11T15:57:01-0500
_audit_creation_method            fapswitch 2.2
_symmetry_space_group_name_H-M    P1
_symmetry_Int_Tables_number       1
_space_group_crystal_system       triclinic
_cell_length_a                    17.44292
_cell_length_b                    24.318816
_cell_length_c                    15.064441
_cell_angle_alpha                 89.99698
_cell_angle_beta                  126.306993
_cell_angle_gamma                 89.947526
_cell_volume                      5149.57978098

loop_
_atom_site_label
_atom_site_type_symbol
_atom_type_description
_atom_site_fract_x
_atom_site_fract_y
_atom_site_fract_z
_atom_type_partial_charge
C1    C     C_R   0.308088 0.123867 0.906746 -0.136510
C2    C     C_R   0.557191 0.152350 0.908803 -0.138594
C3    C     C_R   0.811515 0.363053 0.998915 -0.011413
C4    C     C_R   0.557223 0.998731 0.362507 0.044387
C5    C     C_R   0.057187 0.498733 0.362485 0.044338
C6    C     C_R   0.191005 0.000463 0.637243 0.036535
C7    C     C_R   0.690767 0.500426 0.637446 0.036680
C8    C     C_R   0.517163 0.045818 0.749041 -0.101778
C9    C     C_R   0.521835 0.953791 0.755799 -0.126223
C10   C     C_R   0.017167 0.545817 0.749047 -0.101820
C11   C     C_R   0.021814 0.453789 0.755777 -0.126087
C12   C     C_R   0.769189 0.953549 0.247688 -0.131192
C13   C     C_R   0.055835 0.347131 0.909190 -0.166910
C14   C     C_R   0.769369 0.045941 0.246898 -0.139428
C15   C     C_R   0.269179 0.453577 0.247511 -0.131722
C16   C     C_R   0.269328 0.545953 0.246757 -0.138761
C17   C     C_3   0.763567 0.096162 0.783512 -0.963734
C18   C     C_3   0.466517 0.848831 0.556461 -1.005953
C19   C     C_3   0.263838 0.595905 0.783781 -0.963587
C20   C     C_3   0.965936 0.348945 0.556047 -1.005698
C21   C     C_R   0.057195 0.652348 0.908798 -0.138603
C22   C     C_R   0.544220 0.999242 0.720362 0.013366
C23   C     C_R   0.044196 0.499240 0.720341 0.013419
C24   C     C_R   0.824327 0.999533 0.271193 0.026182
C25   C     C_R   0.324279 0.499571 0.270840 0.025929
C26   C     C_R   0.617946 0.183941 0.000479 -0.009968
C27   C     C_R   0.616424 0.815472 0.000817 -0.003193
C28   C     C_R   0.117950 0.683940 0.000470 -0.009937
C29   C     C_R   0.308122 0.876201 0.906683 -0.134995
C30   C     C_R   0.116435 0.315474 0.000817 -0.003199
C31   C     C_3   0.021317 0.963498 0.515536 -0.155809
C32   C     C_3   0.033149 0.050743 0.487040 -0.167411
C33   C     C_3   0.521574 0.462380 0.514168 -0.156944
C34   C     C_3   0.532097 0.550299 0.488864 -0.167048
C35   C     C_3   0.954794 0.013424 0.470580 -0.135384
C36   C     C_3   0.454258 0.511926 0.470831 -0.134671
C37   C     C_3   0.925661 0.999312 0.355130 0.189543
C38   C     C_3   0.425566 0.499379 0.355004 0.189476
C39   C     C_3   0.991759 0.949207 0.399526 -0.167025
C40   C     C_R   0.808096 0.623879 0.906749 -0.136412
C41   C     C_3   0.003101 0.036707 0.370401 -0.161546
C42   C     C_3   0.492410 0.449652 0.397730 -0.166919
C43   C     C_3   0.502507 0.537832 0.371876 -0.162262
C44   C     C_3   0.071813 0.986482 0.417255 -0.149256
C45   C     C_3   0.571979 0.487995 0.417054 -0.148564
C46   C     C_R   0.401647 0.876104 0.091679 -0.138360
C47   C     C_R   0.401582 0.123816 0.091714 -0.137525
C48   C     C_R   0.901656 0.376097 0.091683 -0.138372
C49   C     C_R   0.901588 0.623821 0.091716 -0.137532
C50   C     C_3   0.099292 0.000706 0.531729 0.190480
C51   C     C_R   0.808133 0.376184 0.906689 -0.134873
C52   C     C_3   0.599032 0.500650 0.531915 0.190461
C53   C     C_3   0.255305 0.820365 0.103009 -0.400111
C54   C     C_3   0.254390 0.179011 0.102778 -0.401398
C55   C     C_3   0.755330 0.320355 0.103031 -0.400095
C56   C     C_3   0.754411 0.679020 0.102793 -0.401390
C57   C     C_3   0.701629 0.270374 0.103568 -0.407260
C58   C     C_3   0.699906 0.728711 0.103131 -0.408560
C59   C     C_3   0.201629 0.770373 0.103558 -0.407258
C60   C     C_3   0.199892 0.228706 0.103117 -0.408552
C61   C     C_3   0.801168 0.264232 0.999062 -0.399593
C62   C     C_R   0.648935 0.152209 0.091967 -0.150207
C63   C     C_3   0.800423 0.735637 0.999632 -0.396351
C64   C     C_3   0.301173 0.764243 0.999067 -0.399539
C65   C     C_3   0.300433 0.235628 0.999647 -0.396326
C66   C     C_3   0.149211 0.820460 0.896354 -0.404034
C67   C     C_3   0.148732 0.179392 0.896120 -0.401815
C68   C     C_3   0.649218 0.320460 0.896376 -0.403956
C69   C     C_3   0.648733 0.679389 0.896135 -0.401834
C70   C     C_3   0.254638 0.818611 0.999265 0.403451
C71   C     C_3   0.254069 0.181144 0.999290 0.401866
C72   C     C_3   0.754649 0.318602 0.999277 0.403416
C73   C     C_R   0.648310 0.847540 0.092092 -0.148930
C74   C     C_3   0.754074 0.681150 0.999296 0.401881
C75   C     C_3   0.664019 0.234287 0.000349 0.405555
C76   C     C_3   0.662776 0.765211 0.000498 0.406183
C77   C     C_3   0.164019 0.734289 0.000336 0.405547
C78   C     C_3   0.162782 0.265211 0.000495 0.406199
C79   C     C_3   0.748428 0.214955 0.000388 -0.394006
C80   C     C_3   0.747566 0.784758 0.001489 -0.396522
C81   C     C_3   0.248426 0.714962 0.000368 -0.394023
C82   C     C_3   0.247585 0.284753 0.001507 -0.396552
C83   C     C_3   0.595718 0.270250 0.896508 -0.407250
C84   C     C_R   0.148932 0.652211 0.091961 -0.150297
C85   C     C_3   0.594965 0.729577 0.896086 -0.405709
C86   C     C_3   0.095712 0.770252 0.896497 -0.407183
C87   C     C_3   0.094971 0.229584 0.896072 -0.405710
C88   C     C_3   0.648386 0.024748 0.661796 0.048751
C89   C     C_3   0.550710 0.936941 0.590625 0.050404
C90   C     C_3   0.148424 0.524640 0.661823 0.048784
C91   C     C_3   0.050445 0.436952 0.590430 0.050413
C92   C     C_R   0.546070 0.045097 0.303390 -0.159426
C93   C     C_R   0.546919 0.953575 0.302024 -0.160560
C94   C     C_R   0.046064 0.545098 0.303385 -0.159417
C95   C     C_R   0.148318 0.347542 0.092093 -0.148976
C96   C     C_R   0.046899 0.453575 0.302014 -0.160642
C97   C     C_3   0.646768 0.029440 0.557785 -0.487163
C98   C     C_3   0.563950 0.937797 0.498972 -0.498809
C99   C     C_3   0.146825 0.529341 0.557828 -0.487175
C100  C     C_3   0.063675 0.437796 0.498777 -0.498799
C101  C     C_3   0.466842 0.029954 0.530187 -0.419648
C102  C     C_3   0.966908 0.530061 0.530234 -0.419675
C103  C     C_3   0.553033 0.997829 0.628736 0.188132
C104  C     C_3   0.052985 0.497832 0.628699 0.188166
C105  C     C_3   0.559845 0.997772 0.461163 0.351604
C106  C     C_R   0.555828 0.847129 0.909191 -0.166956
C107  C     C_3   0.059794 0.497777 0.461127 0.351617
C108  C     C_3   0.466445 0.025166 0.429432 -0.408308
C109  C     C_3   0.966490 0.525277 0.429466 -0.408261
C110  C     C_R   0.240056 0.954278 0.696126 -0.151830
C111  C     C_R   0.239854 0.046265 0.697114 -0.146932
C112  C     C_R   0.739944 0.454255 0.696258 -0.151397
C113  C     C_R   0.739716 0.546247 0.697199 -0.147511
C114  C     C_R   0.311359 0.136862 0.998949 -0.010205
C115  C     C_R   0.311502 0.863067 0.998908 -0.011434
C116  C     C_R   0.811369 0.636872 0.998952 -0.010219
H1    H     H_    0.251564 0.132108 0.821542 0.089371
H2    H     H_    0.992798 0.066353 0.308138 0.106937
H3    H     H_    0.793059 0.088180 0.262941 0.098223
H4    H     H_    0.292256 0.411205 0.263811 0.092346
H5    H     H_    0.293008 0.588194 0.262835 0.098075
H6    H     H_    0.691548 0.165155 0.177023 0.084600
H7    H     H_    0.691098 0.834653 0.177224 0.082409
H8    H     H_    0.191536 0.665163 0.177014 0.084609
H9    H     H_    0.191116 0.334658 0.177227 0.082439
H10   H     H_    0.511987 0.834229 0.824103 0.096043
H11   H     H_    0.514425 0.164936 0.823522 0.079977
H12   H     H_    0.011992 0.334231 0.824103 0.095994
H13   H     H_    0.474136 0.408592 0.357956 0.101677
H14   H     H_    0.014429 0.664932 0.823516 0.079972
H15   H     H_    0.905324 0.024401 0.491407 0.109935
H16   H     H_    0.404461 0.521655 0.491780 0.110022
H17   H     H_    0.619153 0.108968 0.663143 0.168654
H18   H     H_    0.768576 0.136078 0.822339 0.244724
H19   H     H_    0.791104 0.101584 0.733826 0.251381
H20   H     H_    0.808104 0.065709 0.850057 0.255763
H21   H     H_    0.401668 0.923135 0.479909 0.186401
H22   H     H_    0.398721 0.832279 0.536633 0.253605
H23   H     H_    0.525262 0.834474 0.640311 0.247733
H24   H     H_    0.491849 0.568403 0.310775 0.106811
H25   H     H_    0.477260 0.832462 0.495753 0.255222
H26   H     H_    0.119479 0.608896 0.663375 0.168645
H27   H     H_    0.268967 0.635798 0.822753 0.244745
H28   H     H_    0.291428 0.601321 0.734155 0.251393
H29   H     H_    0.308242 0.565379 0.850228 0.255746
H30   H     H_    0.901351 0.423332 0.479711 0.186402
H31   H     H_    0.898084 0.332476 0.536205 0.253609
H32   H     H_    0.024642 0.334511 0.639851 0.247683
H33   H     H_    0.976596 0.332572 0.495274 0.255172
H34   H     H_    0.122989 0.975576 0.399046 0.105136
H35   H     H_    0.623441 0.478328 0.398669 0.105056
H36   H     H_    0.328834 0.819037 0.180139 0.145292
H37   H     H_    0.327853 0.180451 0.180004 0.143112
H38   H     H_    0.828863 0.319011 0.180153 0.145296
H39   H     H_    0.827877 0.680467 0.180013 0.143106
H40   H     H_    0.221723 0.859083 0.103891 0.152948
H41   H     H_    0.251590 0.868125 0.821404 0.088509
H42   H     H_    0.221256 0.140099 0.103499 0.153511
H43   H     H_    0.721776 0.359080 0.103938 0.152960
H44   H     H_    0.721289 0.640106 0.103529 0.153523
H45   H     H_    0.141444 0.784339 0.104685 0.152088
H46   H     H_    0.139356 0.214383 0.103181 0.152896
H47   H     H_    0.641441 0.284351 0.104678 0.152099
H48   H     H_    0.639379 0.714384 0.103211 0.152904
H49   H     H_    0.751536 0.246781 0.180506 0.146517
H50   H     H_    0.749109 0.752105 0.180462 0.143763
H51   H     H_    0.251552 0.746781 0.180492 0.146509
H52   H     H_    0.751583 0.632137 0.821550 0.089281
H53   H     H_    0.249093 0.252096 0.180455 0.143777
H54   H     H_    0.876967 0.262165 0.072364 0.154231
H55   H     H_    0.876230 0.737587 0.072924 0.152867
H56   H     H_    0.376965 0.762178 0.072387 0.154214
H57   H     H_    0.376239 0.237572 0.072945 0.152856
H58   H     H_    0.798547 0.189503 0.074761 0.155416
H59   H     H_    0.797533 0.809794 0.076486 0.153539
H60   H     H_    0.298541 0.689501 0.074729 0.155369
H61   H     H_    0.297552 0.309783 0.076513 0.153487
H62   H     H_    0.143471 0.819593 0.818938 0.143902
H63   H     H_    0.751615 0.368083 0.821420 0.088433
H64   H     H_    0.143176 0.180356 0.818827 0.145275
H65   H     H_    0.643463 0.319603 0.818951 0.143866
H66   H     H_    0.643166 0.680351 0.818835 0.145235
H67   H     H_    0.431571 0.868093 0.176726 0.088252
H68   H     H_    0.431494 0.131708 0.176794 0.087525
H69   H     H_    0.931581 0.368085 0.176731 0.088257
H70   H     H_    0.931502 0.631713 0.176797 0.087531
H71   H     H_    0.114803 0.859040 0.896228 0.153535
H72   H     H_    0.114348 0.140801 0.895804 0.155978
H73   H     H_    0.614819 0.359039 0.896274 0.153587
H74   H     H_    0.030259 0.933726 0.576954 0.105297
H75   H     H_    0.614363 0.640796 0.895834 0.155987
H76   H     H_    0.034036 0.783976 0.894908 0.151036
H77   H     H_    0.032826 0.215852 0.893458 0.154662
H78   H     H_    0.534034 0.283971 0.894904 0.151033
H79   H     H_    0.532830 0.715840 0.893488 0.154659
H80   H     H_    0.567497 0.246677 0.819788 0.145176
H81   H     H_    0.567414 0.753423 0.819771 0.148398
H82   H     H_    0.067480 0.746679 0.819775 0.145158
H83   H     H_    0.067436 0.253433 0.819766 0.148368
H84   H     H_    0.800273 0.261917 0.924596 0.154627
H85   H     H_    0.050886 0.092380 0.524391 0.102401
H86   H     H_    0.799479 0.738267 0.925162 0.153051
H87   H     H_    0.300304 0.761931 0.924619 0.154629
H88   H     H_    0.299498 0.238260 0.925183 0.153041
H89   H     H_    0.722582 0.188883 0.926904 0.160087
H90   H     H_    0.722226 0.811308 0.928625 0.152428
H91   H     H_    0.222580 0.688899 0.926870 0.160055
H92   H     H_    0.222259 0.311307 0.928653 0.152425
H93   H     H_    0.707187 0.996347 0.721438 0.108441
H94   H     H_    0.612030 0.914277 0.662257 0.097090
H95   H     H_    0.207128 0.496168 0.721396 0.108410
H96   H     H_    0.530876 0.431684 0.574430 0.105047
H97   H     H_    0.111692 0.414212 0.661995 0.097039
H98   H     H_    0.713813 0.012169 0.576004 0.150716
H99   H     H_    0.633522 0.918732 0.529100 0.145249
H100  H     H_    0.213809 0.511989 0.576002 0.150656
H101  H     H_    0.133179 0.418646 0.528850 0.145189
H102  H     H_    0.642804 0.073230 0.533966 0.164832
H103  H     H_    0.507243 0.912570 0.428647 0.170476
H104  H     H_    0.143017 0.573136 0.534116 0.164844
H105  H     H_    0.006874 0.412641 0.428379 0.170493
H106  H     H_    0.469896 0.074231 0.550008 0.148494
H107  H     H_    0.549192 0.591551 0.527738 0.102609
H108  H     H_    0.398302 0.014559 0.510428 0.160847
H109  H     H_    0.970121 0.574334 0.550170 0.148465
H110  H     H_    0.898314 0.514746 0.510449 0.160762
H111  H     H_    0.559113 0.087228 0.331718 0.083246
H112  H     H_    0.563359 0.911147 0.328189 0.088435
H113  H     H_    0.059120 0.587228 0.331720 0.083249
H114  H     H_    0.063324 0.411147 0.328181 0.088451
H115  H     H_    0.457580 0.067071 0.394733 0.151868
H116  H     H_    0.404070 0.000342 0.365035 0.158849
H117  H     H_    0.957772 0.567195 0.394874 0.151828
H118  H     H_    0.972941 0.907759 0.361308 0.101393
H119  H     H_    0.904026 0.500526 0.365005 0.158843
H120  H     H_    0.225567 0.912354 0.666452 0.092078
H121  H     H_    0.226051 0.088333 0.668255 0.085011
H122  H     H_    0.725467 0.412332 0.666581 0.091829
H123  H     H_    0.725831 0.588303 0.668262 0.085292
H124  H     H_    0.521208 0.088265 0.731256 0.089686
H125  H     H_    0.534939 0.911126 0.750729 0.125525
H126  H     H_    0.021239 0.588265 0.731284 0.089662
H127  H     H_    0.034879 0.411121 0.750659 0.125360
H128  H     H_    0.792195 0.911167 0.263939 0.091957
N1    N     N_R   0.392450 0.103580 0.942190 -0.036510
N2    N     N_R   0.525490 0.971610 0.207550 -0.032241
N3    N     N_R   0.025490 0.528390 0.207550 -0.031668
N4    N     N_R   0.025490 0.471610 0.207550 -0.032226
N5    N     N_R   0.317450 0.971190 0.792000 -0.034118
N6    N     N_R   0.317450 0.028810 0.792000 -0.035074
N7    N     N_R   0.817450 0.471190 0.792000 -0.034112
N8    N     N_R   0.817450 0.528810 0.792000 -0.035029
N9    N     N_R   0.473900 0.028390 0.792280 -0.044708
N10   N     N_R   0.473900 0.971610 0.792280 -0.040555
N11   N     N_R   0.973900 0.528390 0.792280 -0.044725
N12   N     N_R   0.392450 0.896420 0.942190 -0.034666
N13   N     N_R   0.973900 0.471610 0.792280 -0.040569
N14   N     N_R   0.682310 0.971180 0.208170 -0.039712
N15   N     N_R   0.682310 0.028820 0.208170 -0.039494
N16   N     N_R   0.182310 0.471180 0.208170 -0.039747
N17   N     N_R   0.182310 0.528820 0.208170 -0.039562
N18   N     N_R   0.606470 0.103570 0.057210 -0.031567
N19   N     N_R   0.606470 0.896430 0.057210 -0.031717
N20   N     N_R   0.106470 0.603570 0.057210 -0.031569
N21   N     N_R   0.106470 0.396430 0.057210 -0.031691
N22   N     N_R   0.549740 0.896000 0.943240 -0.033207
N23   N     N_R   0.892450 0.603580 0.942190 -0.036497
N24   N     N_R   0.549740 0.104000 0.943240 -0.032515
N25   N     N_R   0.049740 0.396000 0.943240 -0.033200
N26   N     N_R   0.049740 0.604000 0.943240 -0.032503
N27   N     N_2   0.665438 0.078285 0.714087 -0.098726
N28   N     N_2   0.462110 0.908366 0.551957 -0.096461
N29   N     N_2   0.165644 0.578151 0.714255 -0.098718
N30   N     N_2   0.961748 0.408486 0.551719 -0.096420
N31   N     N_R   0.892450 0.396420 0.942190 -0.034684
N32   N     N_R   0.450490 0.896000 0.057360 -0.035498
N33   N     N_R   0.450490 0.104000 0.057360 -0.035748
N34   N     N_R   0.950490 0.396000 0.057360 -0.035496
N35   N     N_R   0.950490 0.604000 0.057360 -0.035749
N36   N     N_R   0.525490 0.028390 0.207550 -0.031671
Ni1   Ni    Ni4+2 0.433780 0.065390 0.868430 0.204821
Ni2   Ni    Ni4+2 0.433780 0.934610 0.868430 0.211783
Ni3   Ni    Ni4+2 0.933780 0.565390 0.868430 0.204854
Ni4   Ni    Ni4+2 0.933780 0.434610 0.868430 0.211840
Ni5   Ni    Ni4+2 0.565800 0.934190 0.131570 0.205352
Ni6   Ni    Ni4+2 0.565800 0.065810 0.131570 0.205968
Ni7   Ni    Ni4+2 0.065800 0.434190 0.131570 0.205319
Ni8   Ni    Ni4+2 0.065800 0.565810 0.131570 0.205978

loop_
_geom_bond_atom_site_label_1
_geom_bond_atom_site_label_2
_ccdc_geom_bond_type
C55   H38   S    
N11   N13   A    
C63   H86   S    
C58   H48   S    
C69   H75   S    
C111  H121  S    
C113  N8    A    
C14   N15   A    
H17   N27   S    
C3    C48   A    
C33   C36   S    
C20   H33   S    
C32   H85   S    
C49   H70   S    
N13   Ni4   S    
C41   H2    S    
C94   N3    A    
C88   C97   S    
C81   H91   S    
C97   C105  S    
C101  C103  S    
N9    Ni1   S    
C21   N26   A    
N32   Ni5   S    
C110  N5    A    
N5    Ni2   S    
C10   N11   A    
C81   H60   S    
C13   C30   A    
C85   H79   S    
C68   H73   S    
C102  H109  S    
C44   H34   S    
C45   H35   S    
C42   C45   S    
C78   C82   S    
C68   C72   S    
C2    N24   A    
C69   C74   S    
C2    C26   A    
C90   C104  S    
C86   H82   S    
C21   C28   A    
C112  H122  S    
C97   H98   S    
C55   C57   S    
C31   C50   S    
C59   H51   S    
C5    C107  S    
C44   C50   S    
C16   C25   A    
C68   C83   S    
H30   N30   S    
C40   C116  A    
C63   C74   S    
C70   C115  S    
C86   H76   S    
C45   C52   S    
N24   Ni1   S    
C3    C72   S    
C38   C43   S    
C91   H97   S    
C1    N1    A    
C65   C82   S    
C66   C70   S    
C100  H105  S    
C11   C23   A    
C96   H114  S    
C40   N23   A    
C99   H104  S    
C14   H3    S    
N11   Ni3   S    
C97   H102  S    
N12   N32   A    
C102  C109  S    
C27   C73   A    
C75   C79   S    
C76   C85   S    
C47   N33   A    
C109  H117  S    
C101  H106  S    
C47   C114  A    
C80   H90   S    
N19   Ni5   S    
C11   H127  S    
C6    C111  A    
C17   N27   S    
C9    H125  S    
C82   H92   S    
C58   C76   S    
C15   H4    S    
C33   C52   S    
C31   H74   S    
C60   C78   S    
N5    N6    A    
C46   C115  A    
C60   H53   S    
C11   N13   A    
C7    C52   S    
C67   H64   S    
C36   H16   S    
C90   H95   S    
C15   C25   A    
C7    C112  A    
C14   C24   A    
C92   H111  S    
C12   H128  S    
C17   H19   S    
C60   H46   S    
C32   C41   S    
C20   H32   S    
C2    H11   S    
N22   Ni2   S    
C29   C115  A    
C89   C103  S    
C51   H63   S    
C24   C37   S    
C63   C80   S    
C8    H124  S    
N20   Ni8   S    
N31   N34   A    
C87   H77   S    
N8    Ni3   S    
C27   C106  A    
C79   H89   S    
C22   C103  S    
C92   N36   A    
N15   Ni6   S    
C13   N25   A    
C25   C38   S    
C53   H36   S    
C88   N27   S    
C57   H47   S    
C26   C75   S    
C43   H24   S    
C1    H1    S    
C6    C50   S    
C28   C77   S    
C43   C45   S    
H26   N29   S    
C16   N17   A    
N10   Ni2   S    
C101  H108  S    
N18   Ni6   S    
N1    Ni1   S    
C91   C100  S    
N6    Ni1   S    
C109  H119  S    
C90   C99   S    
C62   H6    S    
C69   C85   S    
C34   H107  S    
C112  N7    A    
C108  H116  S    
N20   N26   A    
C91   N30   S    
C84   N20   A    
C34   C43   S    
C76   C80   S    
C80   H59   S    
N3    Ni8   S    
C100  H101  S    
N4    Ni7   S    
C39   C44   S    
C12   C24   A    
C51   N31   A    
C89   C98   S    
C57   C75   S    
N14   N15   A    
C48   H69   S    
C61   C79   S    
C56   C58   S    
C42   H13   S    
C34   C36   S    
C37   C41   S    
C58   H50   S    
N36   Ni6   S    
C64   C81   S    
N21   Ni7   S    
C4    C93   A    
N1    N33   A    
C98   H103  S    
C15   N16   A    
C73   N19   A    
C78   C87   S    
C98   H99   S    
C19   H28   S    
C28   C84   A    
C89   N28   S    
C87   H83   S    
C5    C94   A    
N7    N8    A    
C111  N6    A    
N14   Ni5   S    
C33   H96   S    
C95   N21   A    
C57   H49   S    
C99   H100  S    
C49   N35   A    
C8    N9    A    
C102  H110  S    
C18   H22   S    
N21   N25   A    
C54   C71   S    
C101  C108  S    
C55   H43   S    
C66   H71   S    
C107  C109  S    
C79   H58   S    
C59   C77   S    
C53   C70   S    
C18   N28   S    
C110  H120  S    
C18   H25   S    
C68   H65   S    
C106  N22   A    
C56   C74   S    
N34   Ni7   S    
C3    C51   A    
N16   N17   A    
C29   H41   S    
C71   C114  S    
C64   H56   S    
C16   H5    S    
C66   C86   S    
C30   C95   A    
C59   H45   S    
C63   H55   S    
C23   C104  S    
C77   C81   S    
N2    N36   A    
C61   C72   S    
C85   H81   S    
C64   H87   S    
C88   H93   S    
C41   C44   S    
C31   C35   S    
C1    C114  A    
C33   C42   S    
C27   C76   S    
C35   H15   S    
C5    C96   A    
C67   H72   S    
C4    C105  S    
C47   H68   S    
C39   H118  S    
C99   C107  S    
C106  H10   S    
C34   C52   S    
N12   Ni2   S    
C36   C38   S    
C37   C39   S    
C75   C83   S    
N9    N10   A    
C65   H88   S    
C82   H61   S    
N23   N35   A    
C67   C71   S    
C93   N2    A    
C49   C116  A    
C17   H18   S    
C61   H54   S    
C96   N4    A    
C4    C92   A    
N19   N22   A    
C9    N10   A    
C10   H126  S    
C91   C104  S    
C62   N18   A    
C54   H37   S    
C53   C59   S    
C54   C60   S    
C66   H62   S    
C19   H29   S    
C98   C105  S    
C35   C37   S    
C38   C42   S    
N18   N24   A    
C9    C22   A    
C29   N12   A    
C83   H80   S    
C13   H12   S    
N25   Ni4   S    
N23   Ni3   S    
N26   Ni3   S    
C55   C72   S    
C69   H66   S    
N17   Ni8   S    
C6    C110  A    
C12   N14   A    
C56   H39   S    
C61   H84   S    
H21   N28   S    
C105  C108  S    
C32   C35   S    
C73   H7    S    
C65   C71   S    
C46   N32   A    
C46   H67   S    
C54   H42   S    
C95   H9    S    
C8    C22   A    
C74   C116  S    
C17   H20   S    
C20   H31   S    
C102  C104  S    
N31   Ni4   S    
C32   C50   S    
C77   C86   S    
C64   C70   S    
C88   C103  S    
C100  C107  S    
C19   H27   S    
C65   H57   S    
N3    N4    A    
C89   H94   S    
C48   N34   A    
C10   C23   A    
C84   H8    S    
N33   Ni6   S    
C67   C87   S    
N35   Ni8   S    
C7    C113  A    
C83   H78   S    
C26   C62   A    
C56   H44   S    
C93   H112  S    
C19   N29   S    
C31   C39   S    
C90   N29   S    
N7    Ni4   S    
C18   H23   S    
C20   N30   S    
C21   H14   S    
C40   H52   S    
N16   Ni7   S    
C30   C78   S    
C113  H123  S    
C53   H40   S    
N2    Ni5   S    
C94   H113  S    
C108  H115  S    
