data_mof_unit_66344.cif
_audit_creation_date              2012-12-10T20:58:41-0500
_audit_creation_method            fapswitch 2.2
_symmetry_space_group_name_H-M    P1
_symmetry_Int_Tables_number       1
_space_group_crystal_system       triclinic
_cell_length_a                    15.85571
_cell_length_b                    15.100187
_cell_length_c                    14.177028
_cell_angle_alpha                 89.978009
_cell_angle_beta                  89.990626
_cell_angle_gamma                 89.994996
_cell_volume                      3394.32308068

loop_
_atom_site_label
_atom_site_type_symbol
_atom_type_description
_atom_site_fract_x
_atom_site_fract_y
_atom_site_fract_z
_atom_type_partial_charge
C1    C     C_1   0.250464 0.500008 0.500059 -0.153931
C2    C     C_R   0.661136 0.499997 0.499953 0.900740
C3    C     C_R   0.500003 0.500012 0.328685 0.886924
C4    C     C_R   0.499997 0.499988 0.671315 0.886923
C5    C     C_1   0.500979 0.806902 0.500174 0.208846
C6    C     C_1   0.499015 0.193098 0.499814 0.208801
C7    C     C_1   0.500005 0.500028 0.227369 -0.171326
C8    C     C_1   0.499995 0.499971 0.772631 -0.171328
C9    C     C_1   0.500005 0.500021 0.142263 0.013785
C10   C     C_1   0.499995 0.499979 0.857737 0.013785
C11   C     C_1   0.500002 0.500007 0.042550 0.031552
C12   C     C_1   0.749536 0.499992 0.499940 -0.153931
C13   C     C_1   0.499998 0.499993 0.957449 0.031552
C14   C     C_R   0.515659 0.952767 0.415441 -0.079740
C15   C     C_R   0.484335 0.047233 0.584536 -0.079703
C16   C     C_R   0.486679 0.952592 0.584973 -0.074534
C17   C     C_R   0.513301 0.047408 0.415003 -0.074541
C18   C     C_R   0.956255 0.580608 0.500216 -0.161371
C19   C     C_R   0.043745 0.419392 0.499784 -0.161370
C20   C     C_R   0.043724 0.580612 0.500254 -0.167825
C21   C     C_R   0.956275 0.419388 0.499745 -0.167824
C22   C     C_2   0.531010 0.097474 0.326657 0.960975
C23   C     C_R   0.913153 0.499996 0.499961 0.157390
C24   C     C_2   0.468952 0.902534 0.673318 0.960916
C25   C     C_2   0.472023 0.096669 0.674373 0.951422
C26   C     C_2   0.527991 0.903331 0.325605 0.951412
C27   C     C_R   0.086847 0.500004 0.500039 0.157390
C28   C     C_1   0.824367 0.499992 0.499942 -0.051102
C29   C     C_1   0.175633 0.500008 0.500057 -0.051102
C30   C     C_R   0.502665 0.905035 0.500529 -0.116371
C31   C     C_R   0.497322 0.094964 0.499449 -0.116370
C32   C     C_R   0.338864 0.500003 0.500047 0.900739
H1    H     H_    0.077611 0.642945 0.500449 0.154978
H2    H     H_    0.922389 0.357055 0.499551 0.154979
H3    H     H_    0.922352 0.642937 0.500385 0.158121
H4    H     H_    0.077648 0.357063 0.499615 0.158122
H5    H     H_    0.497506 0.196827 0.239102 0.352983
H6    H     H_    0.502429 0.803180 0.760881 0.352984
H7    H     H_    0.504478 0.111472 0.811063 0.359932
H8    H     H_    0.495599 0.888564 0.188891 0.359944
N1    N     N_1   0.500000 0.270550 0.500000 -0.059412
N2    N     N_1   0.500000 0.729450 0.500000 -0.059403
O1    O     O_R   0.378020 0.573650 0.500030 -0.610752
O2    O     O_R   0.478648 0.167682 0.299994 -0.784846
O3    O     O_2   0.408291 0.922347 0.722261 -0.592476
O4    O     O_R   0.521301 0.832319 0.699992 -0.784845
O5    O     O_2   0.421696 0.157955 0.678201 -0.605447
O6    O     O_R   0.518381 0.073134 0.754462 -0.769968
O7    O     O_2   0.578301 0.842029 0.321795 -0.605470
O8    O     O_R   0.481672 0.926886 0.245497 -0.769960
O9    O     O_R   0.621980 0.426350 0.499970 -0.610749
O10   O     O_R   0.621980 0.573650 0.499970 -0.589697
O11   O     O_R   0.378020 0.426350 0.500030 -0.589696
O12   O     O_R   0.500000 0.573680 0.373720 -0.585578
O13   O     O_R   0.500000 0.426320 0.626280 -0.585581
O14   O     O_R   0.500000 0.573680 0.626280 -0.587681
O15   O     O_R   0.500000 0.426320 0.373720 -0.587685
O16   O     O_2   0.591675 0.077681 0.277710 -0.592471
Zn1   Zn    Zn3+2 0.500000 0.598370 0.500000 1.024448
Zn2   Zn    Zn3+2 0.500000 0.401630 0.500000 1.024444

loop_
_geom_bond_atom_site_label_1
_geom_bond_atom_site_label_2
_ccdc_geom_bond_type
N2    Zn1   S    
C22   O16   D    
C5    N2    T    
C10   C13   S    
C15   C31   A    
O9    Zn2   S    
C20   C27   A    
C27   C29   S    
C11   C13   T    
C18   H3    S    
C25   O5    D    
C3    C7    S    
C17   C22   S    
C14   C17   A    
O14   Zn1   S    
O1    Zn1   S    
C4    C8    S    
C2    C12   S    
H5    O2    S    
C1    C29   T    
C6    C31   S    
C24   O4    S    
C16   C24   S    
O13   Zn2   S    
C14   C26   S    
C9    C11   S    
C25   O6    S    
C2    O10   A    
C14   C30   A    
H8    O8    S    
C24   O3    D    
C3    O15   A    
O10   Zn1   S    
O11   Zn2   S    
C12   C28   T    
C18   C20   A    
O12   Zn1   S    
C26   O8    S    
C21   C23   A    
C17   C31   A    
C3    O12   A    
H6    O4    S    
C15   C25   S    
C2    O9    A    
C20   H1    S    
C16   C30   A    
C15   C16   A    
C32   O11   A    
C4    O14   A    
C19   C27   A    
C8    C10   T    
C5    C30   S    
C26   O7    D    
C4    O13   A    
C7    C9    T    
O15   Zn2   S    
C21   H2    S    
C19   C21   A    
C19   H4    S    
C23   C28   S    
C32   O1    A    
C1    C32   S    
C22   O2    S    
C18   C23   A    
N1    Zn2   S    
H7    O6    S    
C6    N1    T    
