data_mof_unit_9975.cif
_audit_creation_date              2013-03-05T16:08:54-0500
_audit_creation_method            fapswitch 2.2
_symmetry_space_group_name_H-M    P1
_symmetry_Int_Tables_number       1
_space_group_crystal_system       triclinic
_cell_length_a                    17.139101
_cell_length_b                    6.881981
_cell_length_c                    14.406725
_cell_angle_alpha                 89.988649
_cell_angle_beta                  109.849126
_cell_angle_gamma                 90.013328
_cell_volume                      1598.33242137

loop_
_atom_site_label
_atom_site_type_symbol
_atom_site_description
_atom_site_fract_x
_atom_site_fract_y
_atom_site_fract_z
_atom_type_partial_charge
O1    O     O_R   0.314130 0.635770 0.168990 -0.592295
O2    O     O_R   0.685870 0.364230 0.831010 -0.592294
O3    O     O_R   0.185870 0.135770 0.331010 -0.592417
O4    O     O_R   0.814130 0.864230 0.668990 -0.592423
O5    O     O_R   0.146800 0.302460 0.139760 -0.593124
O6    O     O_R   0.853200 0.697540 0.860240 -0.593124
O7    O     O_R   0.353200 0.802460 0.360240 -0.593155
O8    O     O_R   0.646800 0.197540 0.639760 -0.593155
C1    C     C_R   0.113975 0.475864 0.112810 1.000689
C2    C     C_R   0.886024 0.524136 0.887190 1.000690
C3    C     C_R   0.386026 0.975867 0.387187 1.001598
C4    C     C_R   0.613974 0.024133 0.612813 1.001567
O9    O     O_R   0.311100 0.305780 0.157130 -0.589611
O10   O     O_R   0.688900 0.694220 0.842870 -0.589607
O11   O     O_R   0.188900 0.805780 0.342870 -0.590122
O12   O     O_R   0.811100 0.194220 0.657130 -0.590111
O13   O     O_R   0.351340 0.139640 0.348510 -0.582214
O14   O     O_R   0.648660 0.860360 0.651490 -0.582218
O15   O     O_R   0.148660 0.639640 0.151490 -0.582183
O16   O     O_R   0.851340 0.360360 0.848510 -0.582184
C5    C     C_R   0.331744 0.476221 0.134297 1.025675
C6    C     C_R   0.668255 0.523779 0.865702 1.025667
C7    C     C_R   0.168205 0.976146 0.365647 1.026181
C8    C     C_R   0.831791 0.023854 0.634351 1.026183
C9    C     C_1   0.533566 0.008864 0.533057 -0.183807
C10   C     C_1   0.466434 0.991136 0.466942 -0.183809
C11   C     C_1   0.966434 0.508866 0.966943 -0.184343
C12   C     C_1   0.033566 0.491134 0.033056 -0.184341
O17   O     O_3   0.263010 0.470920 0.312770 -0.255636
O18   O     O_3   0.736990 0.529080 0.687230 -0.255620
O19   O     O_3   0.236990 0.970920 0.187230 -0.255081
O20   O     O_3   0.763010 0.029080 0.812770 -0.255082
V1    V     V_3+5 0.247590 0.194450 0.238360 1.255292
V2    V     V_3+5 0.752410 0.805550 0.761640 1.255301
V3    V     V_3+5 0.252410 0.694450 0.261640 1.255068
V4    V     V_3+5 0.747590 0.305550 0.738360 1.255087
C13   C     C_R   0.119709 0.995172 0.433033 -0.279752
C14   C     C_R   0.880295 0.004825 0.566973 -0.279750
C15   C     C_R   0.380293 0.495532 0.066963 -0.279791
C16   C     C_R   0.619706 0.504467 0.933036 -0.279790
C17   C     C_R   0.919143 0.814100 0.446356 -0.268142
C18   C     C_R   0.080864 0.185891 0.553652 -0.268147
C19   C     C_R   0.580163 0.312198 0.052686 -0.268411
C20   C     C_R   0.419835 0.687800 0.947312 -0.268396
C21   C     C_R   0.862686 0.854023 0.495412 0.358783
C22   C     C_R   0.137326 0.145955 0.504608 0.358801
C23   C     C_R   0.636759 0.352274 0.003845 0.358657
C24   C     C_R   0.363239 0.647723 0.996153 0.358655
C25   C     C_R   0.952050 0.117754 0.583944 -0.224939
C26   C     C_R   0.047949 0.882252 0.416056 -0.224987
C27   C     C_R   0.548382 0.618603 0.916666 -0.222536
C28   C     C_R   0.451618 0.381397 0.083334 -0.222547
C29   C     C_R   0.008045 0.077101 0.534236 0.152971
C30   C     C_R   0.991954 0.922900 0.465765 0.153000
C31   C     C_R   0.492242 0.577780 0.966165 0.152494
C32   C     C_R   0.507757 0.422219 0.033834 0.152501
H1    H     H_    0.905733 0.698528 0.392084 0.178913
H2    H     H_    0.094274 0.301455 0.607930 0.178928
H3    H     H_    0.593160 0.195522 0.106353 0.178733
H4    H     H_    0.406839 0.804474 0.893644 0.178738
H5    H     H_    0.033803 0.768431 0.360729 0.146028
H6    H     H_    0.966196 0.231576 0.639267 0.146038
H7    H     H_    0.465349 0.266490 0.138068 0.146305
H8    H     H_    0.534651 0.733511 0.861932 0.146308
N1    N     N_R   0.212550 0.258023 0.529170 0.242878
O21   O     O_R   0.281993 0.175364 0.533517 -0.412599
O22   O     O_R   0.214001 0.437111 0.558777 -0.380392
N2    N     N_R   0.787471 0.741927 0.470860 0.242884
O23   O     O_R   0.718016 0.824569 0.466472 -0.412586
O24   O     O_R   0.786045 0.562804 0.441327 -0.380409
N3    N     N_R   0.288434 0.761135 0.972146 0.243020
O25   O     O_R   0.218596 0.679208 0.966809 -0.411782
O26   O     O_R   0.287791 0.941092 0.944088 -0.380974
N4    N     N_R   0.711563 0.238858 0.027849 0.243018
O27   O     O_R   0.781402 0.320784 0.033193 -0.411785
O28   O     O_R   0.712202 0.058894 0.055897 -0.380981

loop_
_geom_bond_atom_site_label_1
_geom_bond_atom_site_label_2
_geom_bond_distance
_ccdc_geom_bond_type
C2    C11   1.468060 S    
C16   C23   1.421390 A    
C31   C32   1.410993 A    
O1    C5    1.284297 A    
O3    C7    1.284394 A    
C18   H2    1.083938 S    
C14   C25   1.404156 A    
C29   C30   1.410970 A    
O7    C3    1.320211 A    
C26   C30   1.406797 A    
N4    O28   1.301574 A    
O20   V4    2.155503 S    
C18   C29   1.399628 A    
O8    V4    1.971771 S    
O4    C8    1.284378 A    
O3    V1    2.005533 S    
O17   V1    2.155768 S    
C18   C22   1.405621 A    
C14   C21   1.421273 A    
C1    O15   1.307382 A    
C2    O16   1.307381 A    
N2    O23   1.301421 A    
N1    O22   1.301751 A    
O5    V1    1.971862 S    
O2    C6    1.284298 A    
C8    C14   1.482761 S    
O19   V1    1.688641 S    
C19   H3    1.083993 S    
O11   C7    1.299047 A    
C15   C28   1.404116 A    
O12   C8    1.299034 A    
O9    V1    2.001417 S    
O13   V1    1.976434 S    
O11   V3    2.001788 S    
O4    V2    2.005533 S    
N4    O27   1.301423 A    
O18   V2    2.155769 S    
C22   N1    1.439473 S    
N3    O26   1.301567 A    
C3    C10   1.468045 S    
C9    C10   1.225444 T    
C7    C13   1.482746 S    
O6    V2    1.971861 S    
O20   V2    1.688639 S    
O5    C1    1.320287 A    
C5    C15   1.482934 S    
O8    C4    1.320210 A    
C6    C16   1.482931 S    
C21   N2    1.439472 S    
O9    C5    1.299212 A    
O14   V2    1.976433 S    
O19   V3    2.155502 S    
C24   N3    1.439380 S    
O1    V3    2.005737 S    
O2    V4    2.005738 S    
C3    O13   1.307411 A    
C25   H6    1.084689 S    
O7    V3    1.971771 S    
C27   H8    1.084595 S    
C23   N4    1.439378 S    
C28   H7    1.084592 S    
O10   V2    2.001416 S    
O6    C2    1.320287 A    
C16   C27   1.404118 A    
O17   V3    1.688451 S    
O18   V4    1.688450 S    
C4    C9    1.468045 S    
O10   C6    1.299214 A    
C17   H1    1.083919 S    
N3    O25   1.301425 A    
O15   V3    1.976395 S    
O12   V4    2.001786 S    
C13   C26   1.404177 A    
C20   C31   1.399483 A    
C20   H4    1.083992 S    
C25   C29   1.406802 A    
C27   C31   1.406780 A    
C17   C30   1.399574 A    
O16   V4    1.976395 S    
C20   C24   1.405480 A    
C19   C32   1.399487 A    
N2    O24   1.301671 A    
N1    O21   1.301439 A    
C4    O14   1.307412 A    
C11   C12   1.225463 T    
C26   H5    1.084730 S    
C17   C21   1.405647 A    
C13   C22   1.421305 A    
C19   C23   1.405475 A    
C28   C32   1.406781 A    
C1    C12   1.468059 S    
C15   C24   1.421388 A    
