data_mof_unit_27044.cif
_audit_creation_date              2012-12-11T14:14:25-0500
_audit_creation_method            fapswitch 2.2
_symmetry_space_group_name_H-M    P1
_symmetry_Int_Tables_number       1
_space_group_crystal_system       triclinic
_cell_length_a                    17.058613
_cell_length_b                    7.246911
_cell_length_c                    16.953712
_cell_angle_alpha                 90.336733
_cell_angle_beta                  99.677218
_cell_angle_gamma                 89.616719
_cell_volume                      2065.9625656

loop_
_atom_site_label
_atom_site_type_symbol
_atom_type_description
_atom_site_fract_x
_atom_site_fract_y
_atom_site_fract_z
_atom_type_partial_charge
O1    O     O_R   0.414560 0.494370 0.416770 -0.540125
O2    O     O_R   0.585440 0.994370 0.583230 -0.540624
O3    O     O_R   0.578370 0.819590 0.429320 -0.539577
O4    O     O_R   0.421630 0.319590 0.570680 -0.544284
C1    C     C_R   0.604634 0.655873 0.413894 0.700157
C2    C     C_R   0.395031 0.157742 0.585810 0.702838
O5    O     O_R   0.414740 0.823790 0.407360 -0.538146
O6    O     O_R   0.585260 0.323790 0.592640 -0.538277
O7    O     O_R   0.420650 0.998510 0.561120 -0.537361
O8    O     O_R   0.579350 0.498510 0.438880 -0.535730
C3    C     C_R   0.387960 0.655040 0.385185 0.733694
C4    C     C_R   0.612038 0.154958 0.614844 0.734415
O9    O     O_3   0.502130 0.662240 0.550470 -0.381052
O10   O     O_3   0.497870 0.162240 0.449530 -0.377865
V1    V     V_3+5 0.499600 0.935390 0.490640 1.412671
V2    V     V_3+5 0.500400 0.435390 0.509360 1.408279
C5    C     C_2   0.784520 0.271866 0.788860 -0.119862
C6    C     C_2   0.215176 0.771649 0.211286 -0.118322
C7    C     C_2   0.820767 0.113533 0.817149 -0.292113
C8    C     C_2   0.179204 0.613425 0.182879 -0.287554
H1    H     H_    0.805566 0.402078 0.816317 0.142431
H2    H     H_    0.193886 0.901706 0.183930 0.140317
H3    H     H_    0.801591 0.981893 0.790417 0.131355
H4    H     H_    0.198592 0.481959 0.209532 0.130437
C9    C     C_2   0.716675 0.284640 0.720765 -0.130415
C10   C     C_2   0.283027 0.784626 0.279369 -0.128629
C11   C     C_2   0.678772 0.138526 0.682759 -0.302170
C12   C     C_2   0.321227 0.638610 0.317269 -0.299497
H5    H     H_    0.697216 0.422857 0.701900 0.139488
H6    H     H_    0.302228 0.922866 0.298315 0.139412
H7    H     H_    0.696617 0.999472 0.701047 0.132299
H8    H     H_    0.303595 0.499538 0.298897 0.132182
C13   C     C_R   0.331964 0.165456 0.636532 -0.087814
C14   C     C_R   0.669094 0.656731 0.364883 -0.075216
C15   C     C_R   0.164939 0.106358 0.859139 -0.183694
C16   C     C_R   0.834720 0.614250 0.139652 -0.177586
C17   C     C_R   0.260925 0.913927 0.801967 0.393117
C18   C     C_R   0.718612 0.457748 0.175359 0.402220
C19   C     C_R   0.209542 0.942262 0.857148 -0.244886
C20   C     C_R   0.774341 0.481498 0.124301 -0.258758
C21   C     C_R   0.173397 0.247666 0.803726 -0.083153
C22   C     C_R   0.839799 0.726094 0.209266 -0.067744
C23   C     C_R   0.225340 0.219510 0.746936 0.052691
C24   C     C_R   0.783179 0.702990 0.261749 0.074684
C25   C     C_R   0.268771 0.051278 0.745876 0.049393
C26   C     C_R   0.723461 0.565218 0.245382 0.041409
C27   C     C_R   0.321105 0.025017 0.690037 -0.199493
C28   C     C_R   0.667992 0.540905 0.298106 -0.197291
C29   C     C_R   0.287320 0.329180 0.637021 -0.156282
C30   C     C_R   0.727368 0.793983 0.379761 -0.157838
C31   C     C_R   0.235568 0.356390 0.691170 -0.067297
C32   C     C_R   0.783450 0.816679 0.329570 -0.089619
H9    H     H_    0.356102 0.899573 0.690500 0.159297
H10   H     H_    0.621559 0.438418 0.285358 0.155584
H11   H     H_    0.293756 0.440421 0.596204 0.136868
H12   H     H_    0.728686 0.887258 0.430165 0.127052
H13   H     H_    0.205151 0.487983 0.689564 0.180138
H14   H     H_    0.825302 0.928233 0.343517 0.163173
H15   H     H_    0.203058 0.830568 0.897695 0.135501
H16   H     H_    0.770979 0.392222 0.072325 0.138148
O11   O     O_R   0.920750 0.773600 0.061260 -0.548858
O12   O     O_R   0.079250 0.273600 0.938740 -0.548152
O13   O     O_R   0.085340 0.439850 0.092570 -0.542539
O14   O     O_R   0.914660 0.939850 0.907430 -0.539063
C33   C     C_R   0.112200 0.608256 0.114717 0.728755
C34   C     C_R   0.887779 0.108337 0.885283 0.743336
O15   O     O_R   0.921720 0.444130 0.070790 -0.534379
O16   O     O_R   0.078280 0.944130 0.929210 -0.536886
O17   O     O_R   0.914480 0.269530 0.916840 -0.535022
O18   O     O_R   0.085520 0.769530 0.083160 -0.539141
C35   C     C_R   0.896837 0.612478 0.087155 0.708310
C36   C     C_R   0.103691 0.110819 0.913082 0.713579
O19   O     O_3   0.997840 0.601520 0.949550 -0.376389
O20   O     O_3   0.002160 0.101520 0.050450 -0.383283
V3    V     V_3+5 0.000400 0.328340 0.009360 1.416910
V4    V     V_3+5 0.999600 0.828340 0.990640 1.417663
C37   C     C_2   0.126200 0.420319 0.803361 0.420171
H17   H     H_    0.133210 0.508100 0.856077 0.061708
O21   O     O_2   0.078287 0.463732 0.744453 -0.520934
C38   C     C_2   0.906860 0.857223 0.228863 0.355756
H18   H     H_    0.919647 0.954786 0.184596 0.083620
O22   O     O_2   0.949821 0.853456 0.294155 -0.519587
O23   O     O_3   0.296724 0.743180 0.797226 -0.563479
C39   C     C_3   0.361230 0.725907 0.860833 0.066101
H19   H     H_    0.340712 0.730614 0.919789 0.112934
H20   H     H_    0.405512 0.837272 0.858429 0.115698
C40   C     C_3   0.402052 0.540706 0.853592 -0.713054
H21   H     H_    0.423242 0.531026 0.795215 0.225834
H22   H     H_    0.453760 0.526086 0.902624 0.168028
H23   H     H_    0.359796 0.426623 0.857753 0.218523
O24   O     O_3   0.662099 0.320593 0.158964 -0.553548
C41   C     C_3   0.600122 0.384467 0.099306 0.085341
H24   H     H_    0.621895 0.406526 0.041734 0.115264
H25   H     H_    0.574005 0.515691 0.118189 0.111470
C42   C     C_3   0.534640 0.240675 0.085319 -0.717506
H26   H     H_    0.510868 0.217195 0.141521 0.220708
H27   H     H_    0.485544 0.289419 0.038434 0.169516
H28   H     H_    0.558432 0.108499 0.065363 0.221616

loop_
_geom_bond_atom_site_label_1
_geom_bond_atom_site_label_2
_ccdc_geom_bond_type
C40   H21   S    
O13   C33   A    
C22   C38   S    
C20   H16   S    
C16   C22   A    
C42   H26   S    
O1    C3    A    
C39   C40   S    
O2    C4    A    
C2    O7    A    
C42   H28   S    
C37   H17   S    
C28   H10   S    
C39   H20   S    
C21   C37   S    
C15   C19   A    
C34   O17   A    
C13   C29   A    
C33   O18   A    
C7    C34   S    
C8    H4    S    
C29   C31   A    
C6    C10   S    
C30   C32   A    
C31   H13   S    
O15   C35   A    
C16   C35   S    
O16   C36   A    
C27   H9    S    
C24   C32   A    
O5    V1    S    
O6    V2    S    
C21   C23   A    
C22   C24   A    
C24   C26   A    
C25   C27   A    
O11   V4    S    
C9    H5    S    
C26   C28   A    
C14   C30   A    
O20   V3    S    
C4    C11   S    
C11   H7    S    
C8    C33   S    
C12   H8    S    
C39   H19   S    
C38   O22   D    
O24   C41   S    
C7    H3    S    
C29   H11   S    
C18   O24   S    
C41   C42   S    
C5    H1    S    
O14   C34   A    
O4    V2    S    
O5    C3    A    
O23   C39   S    
C16   C20   A    
O6    C4    A    
C19   H15   S    
C1    C14   S    
C41   H25   S    
O14   V4    S    
C37   O21   D    
O12   C36   A    
O1    V2    S    
O2    V1    S    
C23   C25   A    
C32   H14   S    
O4    C2    A    
C15   C36   S    
C10   H6    S    
C40   H22   S    
O18   V4    S    
C9    C11   D    
C13   C27   A    
O19   V4    S    
O12   V3    S    
C40   H23   S    
C14   C28   A    
C17   C25   A    
O3    V1    S    
C6    H2    S    
C38   H18   S    
O3    C1    A    
C42   H27   S    
O16   V4    S    
C10   C12   D    
C2    C13   S    
C5    C9    S    
O7    V1    S    
C1    O8    A    
C17   C19   A    
O8    V2    S    
C18   C20   A    
O11   C35   A    
O13   V3    S    
C3    C12   S    
C23   C31   A    
C41   H24   S    
C5    C7    D    
O17   V3    S    
C6    C8    D    
C15   C21   A    
C30   H12   S    
C18   C26   A    
O15   V3    S    
O9    V2    S    
O10   V1    S    
C17   O23   S    
