data_mof_unit_31324.cif
_audit_creation_date              2012-12-11T14:42:14-0500
_audit_creation_method            fapswitch 2.2
_symmetry_space_group_name_H-M    P1
_symmetry_Int_Tables_number       1
_space_group_crystal_system       triclinic
_cell_length_a                    18.975132
_cell_length_b                    10.931846
_cell_length_c                    18.832728
_cell_angle_alpha                 89.987467
_cell_angle_beta                  90.409479
_cell_angle_gamma                 89.769977
_cell_volume                      3906.40206113

loop_
_atom_site_label
_atom_site_type_symbol
_atom_type_description
_atom_site_fract_x
_atom_site_fract_y
_atom_site_fract_z
_atom_type_partial_charge
C1    C     C_R   0.727685 0.955205 0.853197 0.546327
C2    C     C_R   0.248482 0.413877 0.923504 0.021729
C3    C     C_R   0.251626 0.913884 0.076498 0.020764
C4    C     C_R   0.748482 0.913877 0.923504 0.021729
C5    C     C_R   0.795148 0.329778 0.042561 -0.109538
C6    C     C_R   0.205487 0.329328 0.957283 -0.109294
C7    C     C_R   0.295148 0.829777 0.042561 -0.109538
C8    C     C_R   0.705488 0.829328 0.957283 -0.109293
C9    C     C_R   0.793248 0.320591 0.969904 -0.092908
C10   C     C_R   0.207358 0.319859 0.029933 -0.093329
C11   C     C_R   0.293248 0.820591 0.969904 -0.092908
C12   C     C_R   0.272305 0.955077 0.146812 0.557893
C13   C     C_R   0.707358 0.819859 0.029933 -0.093329
C14   C     C_R   0.743852 0.388218 0.929804 0.036300
C15   C     C_R   0.256155 0.387823 0.070166 0.035593
C16   C     C_R   0.243852 0.888218 0.929804 0.036300
C17   C     C_R   0.756155 0.887823 0.070166 0.035593
C18   C     C_R   0.464688 0.262888 0.546341 -0.136474
C19   C     C_R   0.457697 0.268302 0.474017 -0.125838
C20   C     C_R   0.964688 0.762888 0.546341 -0.136474
C21   C     C_R   0.957697 0.768302 0.474017 -0.125838
C22   C     C_R   0.481946 0.171150 0.431686 0.036547
C23   C     C_R   0.227685 0.455205 0.853197 0.546327
C24   C     C_R   0.497714 0.161762 0.576682 0.034037
C25   C     C_R   0.981946 0.671150 0.431686 0.036547
C26   C     C_R   0.997714 0.661762 0.576682 0.034037
C27   C     C_R   0.509146 0.064977 0.462343 -0.154518
C28   C     C_R   0.516747 0.059825 0.535233 -0.138503
C29   C     C_R   0.009146 0.564977 0.462343 -0.154517
C30   C     C_R   0.016747 0.559825 0.535233 -0.138503
C31   C     C_R   0.822660 0.413484 0.549931 -0.127735
C32   C     C_R   0.204125 0.324086 0.469079 -0.133280
C33   C     C_R   0.322660 0.913484 0.549931 -0.127734
C34   C     C_R   0.772305 0.455077 0.146812 0.557893
C35   C     C_R   0.704125 0.824086 0.469079 -0.133280
C36   C     C_R   0.833771 0.440663 0.478957 -0.131965
C37   C     C_R   0.202412 0.334363 0.541696 -0.135764
C38   C     C_R   0.333771 0.940663 0.478957 -0.131965
C39   C     C_R   0.702412 0.834363 0.541696 -0.135764
C40   C     C_R   0.528878 0.177061 0.850530 0.566099
C41   C     C_R   0.471138 0.176846 0.149482 0.571936
C42   C     C_R   0.028878 0.677061 0.850530 0.566099
C43   C     C_R   0.971138 0.676846 0.149482 0.571936
C44   C     C_R   0.777736 0.480433 0.436009 0.028630
C45   C     C_R   0.699401 0.477267 0.037658 -0.138715
C46   C     C_R   0.246676 0.417419 0.576186 0.030159
C47   C     C_R   0.277736 0.980433 0.436009 0.028630
C48   C     C_R   0.746676 0.917419 0.576186 0.030159
C49   C     C_R   0.711219 0.500819 0.466279 -0.132601
C50   C     C_R   0.296830 0.483427 0.537257 -0.138965
C51   C     C_R   0.211219 0.000819 0.466279 -0.132601
C52   C     C_R   0.796830 0.983428 0.537257 -0.138965
C53   C     C_R   0.699835 0.472585 0.537392 -0.139016
C54   C     C_R   0.300235 0.469688 0.463883 -0.144761
C55   C     C_R   0.199835 0.972585 0.537392 -0.139015
C56   C     C_R   0.300191 0.477507 0.962488 -0.138103
C57   C     C_R   0.800235 0.969688 0.463883 -0.144761
C58   C     C_R   0.754900 0.424036 0.578884 0.026837
C59   C     C_R   0.253011 0.391165 0.429395 0.033097
C60   C     C_R   0.254900 0.924036 0.578884 0.026837
C61   C     C_R   0.753011 0.891165 0.429395 0.033097
C62   C     C_R   0.737073 0.358919 0.854811 0.560019
C63   C     C_R   0.262931 0.358599 0.145169 0.564255
C64   C     C_R   0.237073 0.858919 0.854811 0.560019
C65   C     C_R   0.762931 0.858599 0.145169 0.564255
C66   C     C_R   0.727988 0.955253 0.647497 0.544685
C67   C     C_R   0.199401 0.977268 0.037658 -0.138715
C68   C     C_R   0.290134 0.000984 0.360294 0.556065
C69   C     C_R   0.227987 0.455253 0.647497 0.544685
C70   C     C_R   0.790134 0.500985 0.360294 0.556065
C71   C     C_R   0.528632 0.175284 0.645741 0.551662
C72   C     C_R   0.466981 0.176792 0.357217 0.545385
C73   C     C_R   0.028632 0.675284 0.645741 0.551662
C74   C     C_R   0.966981 0.676792 0.357217 0.545385
C75   C     C_R   0.739938 0.364472 0.646775 0.552124
C76   C     C_R   0.261425 0.358702 0.355146 0.545266
C77   C     C_R   0.239938 0.864472 0.646775 0.552124
C78   C     C_R   0.800191 0.977507 0.962488 -0.138103
C79   C     C_R   0.761425 0.858702 0.355146 0.545266
C80   C     C_2   0.496772 0.166198 0.921496 -0.133268
C81   C     C_2   0.503280 0.165790 0.078531 -0.132991
C82   C     C_2   0.996772 0.666198 0.921496 -0.133268
C83   C     C_2   0.003280 0.665790 0.078531 -0.132991
C84   C     C_2   0.500306 0.060414 0.040041 -0.000411
C85   C     C_2   0.499795 0.060602 0.959882 0.000891
C86   C     C_2   0.000306 0.560414 0.040041 -0.000411
C87   C     C_2   0.999795 0.560603 0.959882 0.000891
C88   C     C_R   0.695212 0.463790 0.964240 -0.145561
C89   C     C_R   0.751626 0.413884 0.076498 0.020764
C90   C     C_R   0.304322 0.463860 0.035888 -0.145122
C91   C     C_R   0.195212 0.963790 0.964240 -0.145561
C92   C     C_R   0.804322 0.963860 0.035889 -0.145122
C93   C     C_2   0.501507 0.940430 0.077800 0.644366
C94   C     C_2   0.498711 0.940766 0.922011 0.645133
C95   C     C_2   0.001508 0.440430 0.077800 0.644366
C96   C     C_2   0.998711 0.440766 0.922011 0.645133
Cr1   Cr    Cr6+3 0.769270 0.163730 0.750710 1.017749
Cr2   Cr    Cr6+3 0.385840 0.322500 0.252290 1.021714
Cr3   Cr    Cr6+3 0.114160 0.822500 0.747710 1.023941
Cr4   Cr    Cr6+3 0.885840 0.822500 0.252290 1.021715
Cr5   Cr    Cr6+3 0.230730 0.163730 0.249290 1.017763
Cr6   Cr    Cr6+3 0.269270 0.663730 0.750710 1.017749
Cr7   Cr    Cr6+3 0.730730 0.663730 0.249290 1.017763
Cr8   Cr    Cr6+3 0.612620 0.009790 0.748780 1.048867
Cr9   Cr    Cr6+3 0.387380 0.009790 0.251220 1.049485
Cr10  Cr    Cr6+3 0.112620 0.509790 0.748780 1.048867
Cr11  Cr    Cr6+3 0.887380 0.509790 0.251220 1.049485
Cr12  Cr    Cr6+3 0.614160 0.322500 0.747710 1.023941
H1    H     H_    0.885698 0.426588 0.456955 0.130144
H2    H     H_    0.339328 0.520063 0.434289 0.124116
H3    H     H_    0.147123 0.981698 0.558498 0.130472
H4    H     H_    0.839327 0.020063 0.434289 0.124116
H5    H     H_    0.516051 0.252016 0.053632 0.087300
H6    H     H_    0.483976 0.252501 0.946477 0.086833
H7    H     H_    0.016051 0.752016 0.053632 0.087301
H8    H     H_    0.983976 0.752501 0.946477 0.086833
H9    H     H_    0.654983 0.512923 0.934602 0.132730
H10   H     H_    0.344115 0.513272 0.065642 0.133214
H11   H     H_    0.154983 0.012924 0.934602 0.132730
H12   H     H_    0.163365 0.282094 0.570303 0.128925
H13   H     H_    0.844114 0.013272 0.065642 0.133214
H14   H     H_    0.664063 0.540858 0.063477 0.132078
H15   H     H_    0.335113 0.541483 0.936808 0.131725
H16   H     H_    0.164064 0.040858 0.063477 0.132078
H17   H     H_    0.835113 0.041483 0.936808 0.131725
H18   H     H_    0.833903 0.276482 0.071712 0.173837
H19   H     H_    0.167134 0.275891 0.928023 0.172734
H20   H     H_    0.333902 0.776482 0.071712 0.173837
H21   H     H_    0.667134 0.775890 0.928023 0.172733
H22   H     H_    0.830278 0.258252 0.945498 0.154570
H23   H     H_    0.385698 0.926588 0.456955 0.130143
H24   H     H_    0.170764 0.257127 0.054234 0.154273
H25   H     H_    0.330278 0.758252 0.945498 0.154570
H26   H     H_    0.670764 0.757127 0.054234 0.154272
H27   H     H_    0.448960 0.341123 0.577946 0.126701
H28   H     H_    0.433320 0.349143 0.451332 0.139939
H29   H     H_    0.948960 0.841122 0.577946 0.126701
H30   H     H_    0.933320 0.849142 0.451332 0.139939
H31   H     H_    0.525347 0.987883 0.430101 0.123390
H32   H     H_    0.542314 0.980253 0.558283 0.138755
H33   H     H_    0.025347 0.487884 0.430101 0.123390
H34   H     H_    0.663365 0.782094 0.570303 0.128925
H35   H     H_    0.042314 0.480253 0.558283 0.138755
H36   H     H_    0.866340 0.377601 0.581004 0.131895
H37   H     H_    0.167758 0.260704 0.444404 0.130318
H38   H     H_    0.366340 0.877602 0.581004 0.131894
H39   H     H_    0.667758 0.760704 0.444405 0.130318
H40   H     H_    0.546950 0.835505 0.153639 0.329678
H41   H     H_    0.453294 0.836540 0.846152 0.328187
H42   H     H_    0.046950 0.335505 0.153639 0.329678
H43   H     H_    0.953293 0.336541 0.846152 0.328187
H44   H     H_    0.667233 0.533311 0.434478 0.129224
H45   H     H_    0.331122 0.549222 0.562888 0.132456
H46   H     H_    0.167233 0.033311 0.434478 0.129224
H47   H     H_    0.831122 0.049223 0.562888 0.132456
H48   H     H_    0.647123 0.481698 0.558498 0.130472
O1    O     O_R   0.784320 0.290430 0.830510 -0.515586
O2    O     O_R   0.456080 0.282180 0.333210 -0.524137
O3    O     O_R   0.043920 0.782180 0.666790 -0.522992
O4    O     O_R   0.956080 0.782180 0.333210 -0.524136
O5    O     O_R   0.679040 0.374160 0.674430 -0.501966
O6    O     O_R   0.320960 0.374160 0.325570 -0.507882
O7    O     O_R   0.179040 0.874160 0.674430 -0.501966
O8    O     O_R   0.820960 0.874160 0.325570 -0.507882
O9    O     O_3   0.665350 0.165340 0.749070 -0.253181
O10   O     O_3   0.334650 0.165340 0.250930 -0.279654
O11   O     O_3   0.165350 0.665340 0.749070 -0.253181
O12   O     O_R   0.215680 0.290430 0.169490 -0.512134
O13   O     O_3   0.834650 0.665340 0.250930 -0.279654
O14   O     O_R   0.762640 0.040960 0.825200 -0.514255
O15   O     O_R   0.237360 0.040960 0.174800 -0.508153
O16   O     O_R   0.262640 0.540960 0.825200 -0.514255
O17   O     O_R   0.737360 0.540960 0.174800 -0.508153
O18   O     O_R   0.667400 0.923970 0.829950 -0.499089
O19   O     O_R   0.332600 0.923970 0.170050 -0.494922
O20   O     O_R   0.167400 0.423970 0.829950 -0.499089
O21   O     O_R   0.832600 0.423970 0.170050 -0.494922
O22   O     O_R   0.553960 0.081340 0.821780 -0.461260
O23   O     O_R   0.284320 0.790430 0.830510 -0.515586
O24   O     O_R   0.446040 0.081340 0.178220 -0.459724
O25   O     O_R   0.053960 0.581340 0.821780 -0.461259
O26   O     O_R   0.946040 0.581340 0.178220 -0.459724
O27   O     O_R   0.543180 0.283240 0.826740 -0.519332
O28   O     O_R   0.456820 0.283240 0.173260 -0.513527
O29   O     O_R   0.043180 0.783240 0.826740 -0.519332
O30   O     O_R   0.956820 0.783240 0.173260 -0.513527
O31   O     O_R   0.678360 0.375140 0.822710 -0.505488
O32   O     O_R   0.321640 0.375140 0.177290 -0.501108
O33   O     O_R   0.178360 0.875140 0.822710 -0.505488
O34   O     O_R   0.715680 0.790430 0.169490 -0.512134
O35   O     O_R   0.821640 0.875140 0.177290 -0.501108
O36   O     O_R   0.785050 0.289380 0.670560 -0.520808
O37   O     O_R   0.214950 0.289380 0.329440 -0.528774
O38   O     O_R   0.285050 0.789380 0.670560 -0.520808
O39   O     O_R   0.714950 0.789380 0.329440 -0.528774
O40   O     O_R   0.763320 0.039990 0.676930 -0.506358
O41   O     O_R   0.236680 0.039990 0.323070 -0.505401
O42   O     O_R   0.263320 0.539990 0.676930 -0.506358
O43   O     O_R   0.736680 0.539990 0.323070 -0.505401
O44   O     O_R   0.668130 0.922920 0.670000 -0.528730
O45   O     O_R   0.554640 0.080370 0.673500 -0.507449
O46   O     O_R   0.331870 0.922920 0.330000 -0.513915
O47   O     O_R   0.168130 0.422920 0.670000 -0.528730
O48   O     O_R   0.831870 0.422920 0.330000 -0.513915
O49   O     O_2   0.459892 0.860061 0.061483 -0.524103
O50   O     O_R   0.550840 0.920223 0.132141 -0.680926
O51   O     O_2   0.540514 0.859981 0.938147 -0.523451
O52   O     O_R   0.449300 0.921204 0.867752 -0.684811
O53   O     O_2   0.959892 0.360061 0.061483 -0.524103
O54   O     O_R   0.050840 0.420223 0.132141 -0.680926
O55   O     O_2   0.040514 0.359980 0.938147 -0.523451
O56   O     O_R   0.445360 0.080370 0.326500 -0.521040
O57   O     O_R   0.949300 0.421204 0.867752 -0.684812
O58   O     O_R   0.054640 0.580370 0.673500 -0.507449
O59   O     O_R   0.945360 0.580370 0.326500 -0.521040
O60   O     O_R   0.543920 0.282180 0.666790 -0.522992

loop_
_geom_bond_atom_site_label_1
_geom_bond_atom_site_label_2
_ccdc_geom_bond_type
C44   C49   A    
C77   O7    A    
Cr12  O9    S    
C51   H46   S    
Cr6   O11   S    
Cr3   O3    S    
C74   O59   A    
C43   C83   S    
C13   H26   S    
Cr12  O31   S    
C76   O6    A    
C28   H32   S    
C79   O8    A    
C4    C8    A    
C93   O49   D    
C67   H16   S    
C64   O33   A    
C72   O2    A    
Cr1   O9    S    
C72   O56   A    
C9    H22   S    
C52   H47   S    
C7    C11   A    
Cr12  O60   S    
C29   C30   A    
Cr9   O56   S    
C18   C24   A    
H42   O54   S    
Cr1   O40   S    
C6    H19   S    
C18   C19   A    
C3    C7    A    
C10   C15   A    
C11   H25   S    
Cr5   O41   S    
C76   O37   A    
C57   H4    S    
C50   H45   S    
C71   O60   A    
C14   C62   S    
C1    O14   A    
Cr7   O17   S    
C26   C73   S    
C79   O39   A    
Cr9   O10   S    
C54   H2    S    
C25   C74   S    
C11   C16   A    
C31   H36   S    
C46   C69   S    
Cr2   O32   S    
C3    C12   S    
C41   O24   A    
Cr10  O47   S    
Cr1   O36   S    
Cr8   O22   S    
C23   O16   A    
Cr2   O2    S    
C42   C82   S    
C5    H18   S    
C40   C80   S    
C41   O28   A    
C44   C70   S    
C7    H20   S    
C47   C51   A    
C45   C89   A    
C49   H44   S    
H40   O50   S    
C40   O27   A    
C46   C50   A    
C56   C90   A    
Cr8   O9    S    
C29   H33   S    
C96   O55   D    
C55   C60   A    
Cr11  O21   S    
C25   C29   A    
Cr6   O23   S    
Cr8   O44   S    
C2    C6    A    
C17   C92   A    
Cr7   O39   S    
C21   H30   S    
C93   O50   S    
Cr6   O38   S    
H41   O52   S    
C22   C72   S    
Cr2   O6    S    
Cr5   O37   S    
C58   C75   S    
C12   O15   A    
Cr3   O11   S    
C54   C59   A    
C42   O25   A    
Cr6   O16   S    
Cr10  O58   S    
C1    O18   A    
Cr11  O26   S    
C68   O46   A    
C95   O53   D    
C56   H15   S    
C65   O35   A    
C19   C22   A    
C94   O52   S    
C84   C85   S    
Cr4   O8    S    
C86   C95   S    
C60   C77   S    
Cr3   O33   S    
C64   O23   A    
C86   C87   S    
Cr7   O43   S    
C23   O20   A    
C43   O30   A    
C78   C92   A    
C19   H28   S    
C27   H31   S    
Cr1   O14   S    
C68   O41   A    
Cr1   O1    S    
C20   H29   S    
Cr5   O12   S    
C35   C39   A    
C77   O38   A    
Cr10  O25   S    
C5    C9    A    
C80   C85   D    
C83   H7    S    
C85   C94   S    
Cr4   O4    S    
C66   O40   A    
C39   H34   S    
C41   C81   S    
C87   C96   S    
C45   C88   A    
C67   C91   A    
C62   O1    A    
C18   H27   S    
C35   C61   A    
Cr7   O34   S    
C35   H39   S    
C32   C37   A    
C65   O34   A    
Cr10  O11   S    
C38   C47   A    
Cr2   O10   S    
C53   H48   S    
C12   O19   A    
Cr3   O7    S    
C42   O29   A    
C63   O12   A    
C80   H6    S    
C69   O47   A    
C33   C60   A    
C22   C27   A    
Cr9   O19   S    
C69   O42   A    
C91   H11   S    
C73   O58   A    
C36   C44   A    
Cr4   O35   S    
Cr9   O24   S    
C52   C57   A    
C90   H10   S    
C47   C68   S    
Cr3   O29   S    
C81   C84   D    
C31   C58   A    
Cr11  O13   S    
C71   O45   A    
C21   C25   A    
Cr10  O20   S    
Cr12  O27   S    
C55   H3    S    
Cr4   O13   S    
C95   O54   S    
C3    C67   A    
C94   O51   D    
C24   C28   A    
C36   H1    S    
C5    C89   A    
C6    C10   A    
Cr8   O18   S    
C53   C58   A    
C57   C61   A    
C32   H37   S    
C74   O4    A    
C45   H14   S    
C4    C78   A    
Cr12  O5    S    
C73   O3    A    
C43   O26   A    
C17   C65   S    
C33   C38   A    
C13   C17   A    
Cr4   O30   S    
C75   O5    A    
C1    C4    S    
Cr8   O45   S    
Cr6   O42   S    
C75   O36   A    
C37   C46   A    
C34   C89   S    
C14   C88   A    
Cr11  O48   S    
C50   C54   A    
C34   O17   A    
C2    C56   A    
C92   H13   S    
C38   H23   S    
C15   C90   A    
Cr9   O46   S    
C40   O22   A    
C37   H12   S    
C20   C26   A    
C61   C79   S    
C49   C53   A    
C9    C14   A    
Cr5   O15   S    
C51   C55   A    
C84   C93   S    
Cr2   O28   S    
Cr5   O10   S    
C10   H24   S    
C8    H21   S    
C33   H38   S    
C96   O57   S    
C82   H8    S    
C8    C13   A    
C16   C91   A    
C48   C52   A    
C83   C86   D    
Cr11  O59   S    
C20   C21   A    
C30   H35   S    
C70   O48   A    
C63   O32   A    
H43   O57   S    
C81   H5    S    
C2    C23   S    
Cr7   O13   S    
C70   O43   A    
C15   C63   S    
C31   C36   A    
C39   C48   A    
C34   O21   A    
C16   C64   S    
C32   C59   A    
C48   C66   S    
C88   H9    S    
C78   H17   S    
C59   C76   S    
C66   O44   A    
C82   C87   D    
C24   C71   S    
C62   O31   A    
C27   C28   A    
C26   C30   A    
