data_mof_unit_49123.cif
_audit_creation_date              2012-12-10T19:11:23-0500
_audit_creation_method            fapswitch 2.2
_symmetry_space_group_name_H-M    P1
_symmetry_Int_Tables_number       1
_space_group_crystal_system       triclinic
_cell_length_a                    10.682364
_cell_length_b                    9.899694
_cell_length_c                    10.528883
_cell_angle_alpha                 90.875392
_cell_angle_beta                  89.684971
_cell_angle_gamma                 88.467652
_cell_volume                      1112.90432677

loop_
_atom_site_label
_atom_site_type_symbol
_atom_type_description
_atom_site_fract_x
_atom_site_fract_y
_atom_site_fract_z
_atom_type_partial_charge
C1    C     C_R   0.258476 0.501076 0.496377 0.930566
C2    C     C_3   0.496269 0.497737 0.123920 -0.034593
C3    C     C_3   0.071607 0.489559 0.635001 0.036511
C4    C     C_3   0.076791 0.376220 0.415828 0.046351
C5    C     C_3   0.928219 0.514475 0.637343 -0.096579
C6    C     C_3   0.935800 0.358643 0.438357 -0.102691
C7    C     C_3   0.067003 0.631174 0.435376 -0.387170
C8    C     C_3   0.122052 0.501138 0.495401 -0.006771
C9    C     C_3   0.879281 0.494095 0.499271 0.055737
C10   C     C_3   0.925880 0.615465 0.418869 -0.470251
C11   C     C_3   0.389571 0.081526 0.429881 -0.314752
C12   C     C_3   0.386054 0.922046 0.436013 -0.334211
C13   C     C_3   0.613851 0.076320 0.433378 -0.056186
C14   C     C_3   0.610436 0.914475 0.426660 -0.038882
C15   C     C_3   0.497725 0.083951 0.630602 0.443955
C16   C     C_3   0.502977 0.919880 0.630304 0.436452
C17   C     C_R   0.497563 0.499133 0.258298 0.900723
C18   C     C_R   0.742138 0.498058 0.497486 0.842961
C19   C     C_R   0.501630 0.501090 0.741974 0.976578
C20   C     C_3   0.408379 0.582390 0.041878 0.082102
C21   C     C_3   0.478958 0.376479 0.035403 0.135263
C22   C     C_3   0.387031 0.459547 0.953939 -0.157598
C23   C     C_3   0.501683 0.503454 0.876860 -0.072970
C24   C     C_3   0.519624 0.629517 0.962491 -0.088409
C25   C     C_3   0.593039 0.416456 0.956223 -0.211515
C26   C     C_3   0.606725 0.540776 0.043761 0.033996
H1    H     H_    0.296864 0.423966 0.915932 0.215156
H2    H     H_    0.879791 0.713235 0.447999 0.207567
H3    H     H_    0.904127 0.598198 0.316792 0.215291
H4    H     H_    0.388244 0.113355 0.329387 0.184325
H5    H     H_    0.373308 0.878152 0.339542 0.187516
H6    H     H_    0.300886 0.124851 0.469635 0.207969
H7    H     H_    0.299933 0.893059 0.487001 0.210796
H8    H     H_    0.696215 0.099164 0.491852 0.156874
H9    H     H_    0.697158 0.877259 0.473471 0.171843
H10   H     H_    0.535818 0.735272 0.935725 0.220762
H11   H     H_    0.672570 0.350451 0.923894 0.200936
H12   H     H_    0.094799 0.385857 0.668857 0.192427
H13   H     H_    0.126852 0.282502 0.446617 0.175847
H14   H     H_    0.906508 0.621317 0.666994 0.211532
H15   H     H_    0.888106 0.338526 0.346343 0.178132
H16   H     H_    0.084518 0.720090 0.498194 0.228585
H17   H     H_    0.111326 0.651433 0.342025 0.206375
N1    N     N_3   0.499750 0.138610 0.497240 -0.091830
N2    N     N_3   0.499750 0.861390 0.497240 -0.095400
O1    O     O_R   0.314910 0.616040 0.499970 -0.590131
O2    O     O_R   0.314910 0.383960 0.499970 -0.620995
O3    O     O_R   0.500080 0.616020 0.313900 -0.592935
O4    O     O_R   0.500080 0.383980 0.313900 -0.599518
O5    O     O_R   0.685320 0.616040 0.499930 -0.606497
O6    O     O_R   0.685320 0.383960 0.499930 -0.613657
O7    O     O_R   0.500150 0.616060 0.686000 -0.553721
O8    O     O_R   0.500150 0.383940 0.686000 -0.556846
Zn1   Zn    Zn3+2 0.500150 0.654960 0.499940 1.010278
Zn2   Zn    Zn3+2 0.500150 0.345040 0.499940 0.996651
N3    N     N_3   0.639293 0.140904 0.311833 -0.386156
H18   H     H_    0.576847 0.110689 0.242353 0.211623
H19   H     H_    0.729495 0.112367 0.280855 0.165783
N4    N     N_3   0.619093 0.856466 0.297413 -0.379547
H20   H     H_    0.550326 0.896179 0.237728 0.197545
H21   H     H_    0.706537 0.876993 0.258139 0.176876
Br1   Br    Br    0.638662 0.153345 0.731620 -0.503143
Br2   Br    Br    0.652704 0.843132 0.717831 -0.501893
Br3   Br    Br    0.347679 0.162135 0.720616 -0.459727
Br4   Br    Br    0.363391 0.852478 0.732430 -0.397581
N5    N     N_3   0.310719 0.674144 0.091919 -0.442184
H22   H     H_    0.266205 0.718726 0.014398 0.261171
H23   H     H_    0.244383 0.615942 0.137128 0.219550
N6    N     N_3   0.455701 0.239636 0.076032 -0.445006
H24   H     H_    0.452611 0.178281 0.994597 0.256723
H25   H     H_    0.366347 0.240047 0.116886 0.221381
N7    N     N_3   0.724982 0.584846 0.096173 -0.440549
H26   H     H_    0.784006 0.604707 0.019605 0.215920
H27   H     H_    0.765341 0.502826 0.143763 0.185026
Br5   Br    Br    0.145625 0.611565 0.758210 -0.526733
Br6   Br    Br    0.116240 0.383947 0.234440 -0.642917
N8    N     N_3   0.869010 0.425967 0.729306 -0.423765
H28   H     H_    0.911936 0.439476 0.817482 0.229521
H29   H     H_    0.776303 0.459598 0.742880 0.182839
N9    N     N_3   0.923435 0.240147 0.520089 -0.435721
H30   H     H_    0.929738 0.152776 0.463016 0.181964
H31   H     H_    0.838464 0.238514 0.567634 0.273050

loop_
_geom_bond_atom_site_label_1
_geom_bond_atom_site_label_2
_ccdc_geom_bond_type
C7    C10   S    
N5    H23   S    
N7    H27   S    
C1    C8    S    
C26   N7    S    
N1    Zn2   S    
C17   O3    A    
C4    C8    S    
C6    C9    S    
C7    C8    S    
N8    H28   S    
O3    Zn1   S    
C14   N4    S    
C24   H10   S    
C20   N5    S    
C24   C26   S    
C15   N1    S    
C1    O1    A    
C15   C16   S    
N3    H18   S    
C7    H16   S    
N6    H25   S    
C25   H11   S    
C19   O7    A    
C20   C24   S    
C3    H12   S    
C6    H15   S    
C15   Br3   S    
C16   Br2   S    
C7    H17   S    
C3    Br5   S    
C9    C10   S    
N7    H26   S    
C13   N3    S    
C19   O8    A    
N8    H29   S    
N5    H22   S    
N4    H20   S    
C21   C22   S    
C2    C17   S    
O7    Zn1   S    
C18   O6    A    
C14   N2    S    
O8    Zn2   S    
N4    H21   S    
C2    C20   S    
C11   H4    S    
N9    H31   S    
C3    C8    S    
C17   O4    A    
C14   H9    S    
N9    H30   S    
C25   C26   S    
O4    Zn2   S    
C21   N6    S    
C19   C23   S    
C5    C9    S    
C6    N9    S    
C4    H13   S    
C23   C24   S    
O1    Zn1   S    
C2    C21   S    
C11   N1    S    
C2    C26   S    
O5    Zn1   S    
C4    C6    S    
C20   C22   S    
N2    Zn1   S    
C22   H1    S    
C12   H5    S    
C5    N8    S    
C18   O5    A    
O2    Zn2   S    
C10   H2    S    
C21   C25   S    
C1    O2    A    
C12   N2    S    
C3    C5    S    
C16   N2    S    
C11   H6    S    
C11   C12   S    
C13   H8    S    
C10   H3    S    
C15   Br1   S    
N3    H19   S    
O6    Zn2   S    
C23   C25   S    
N6    H24   S    
C4    Br6   S    
C9    C18   S    
C5    H14   S    
C22   C23   S    
C16   Br4   S    
C12   H7    S    
C13   C14   S    
C13   N1    S    
