data_mof_unit_46704.cif
_audit_creation_date              2012-12-10T19:05:22-0500
_audit_creation_method            fapswitch 2.2
_symmetry_space_group_name_H-M    P1
_symmetry_Int_Tables_number       1
_space_group_crystal_system       triclinic
_cell_length_a                    9.532979
_cell_length_b                    10.818067
_cell_length_c                    17.185801
_cell_angle_alpha                 90.406079
_cell_angle_beta                  85.335096
_cell_angle_gamma                 89.993687
_cell_volume                      1766.42838532

loop_
_atom_site_label
_atom_site_type_symbol
_atom_type_description
_atom_site_fract_x
_atom_site_fract_y
_atom_site_fract_z
_atom_type_partial_charge
C1    C     C_R   0.500024 0.737722 0.500901 0.836167
C2    C     C_R   0.360163 0.529051 0.785949 0.447136
C3    C     C_R   0.656680 0.451744 0.140022 -0.068923
C4    C     C_R   0.650976 0.456667 0.221257 -0.197722
C5    C     C_R   0.415308 0.542662 0.225022 -0.187177
C6    C     C_R   0.421469 0.538273 0.144036 -0.052893
C7    C     C_R   0.540498 0.489562 0.101594 0.179366
C8    C     C_2   0.454122 0.411300 0.979000 0.477615
C9    C     C_2   0.544646 0.480504 0.016703 -0.315532
C10   C     C_R   0.529418 0.500605 0.264265 -0.036425
C11   C     C_R   0.380366 0.936567 0.533187 0.089731
C12   C     C_R   0.480841 0.498510 0.650374 0.917635
C13   C     C_R   0.501551 0.870910 0.507534 -0.087841
C14   C     C_R   0.628820 0.935786 0.493941 -0.177925
C15   C     C_R   0.628605 0.064442 0.494540 -0.158659
C16   C     C_R   0.501489 0.129446 0.509909 -0.159947
C17   C     C_R   0.380687 0.063793 0.536148 0.112075
C18   C     C_3   0.231979 0.071603 0.514886 0.275422
C19   C     C_3   0.233391 0.930785 0.509163 -0.529725
C20   C     C_R   0.931444 0.405895 0.464873 0.298772
C21   C     C_R   0.919558 0.586491 0.540695 -0.049786
C22   C     C_R   0.068492 0.586689 0.540468 0.007613
C23   C     C_R   0.499880 0.262370 0.502057 0.807565
C24   C     C_R   0.078956 0.406011 0.464753 0.337963
C25   C     C_3   0.097077 0.370028 0.380649 -0.502749
C26   C     C_3   0.938053 0.370294 0.380766 -0.516925
C27   C     C_R   0.518944 0.500358 0.349657 0.785410
C28   C     C_R   0.470125 0.479140 0.735004 -0.225051
C29   C     C_R   0.571524 0.402234 0.764775 -0.263759
C30   C     C_R   0.565924 0.373875 0.843885 0.449456
C31   C     C_R   0.456616 0.424101 0.894320 -0.129704
C32   C     C_R   0.354150 0.499350 0.865084 -0.219483
Cu1   Cu    Cu3+1 0.359330 0.500020 0.500000 1.020532
Cu2   Cu    Cu3+1 0.640670 0.499980 0.500000 0.969231
H1    H     H_    0.654972 0.362837 0.725736 0.221152
H2    H     H_    0.333273 0.572169 0.114425 0.165988
H3    H     H_    0.726970 0.887906 0.478205 0.172131
H4    H     H_    0.726259 0.112295 0.478273 0.194006
H5    H     H_    0.160476 0.883486 0.552998 0.227440
H6    H     H_    0.859069 0.657837 0.572502 0.164685
H7    H     H_    0.119690 0.658246 0.571904 0.167899
H8    H     H_    0.899076 0.444698 0.343969 0.213896
H9    H     H_    0.623927 0.535232 0.983473 0.174235
H10   H     H_    0.749887 0.415656 0.107283 0.184132
N1    N     N_R   0.852130 0.499070 0.499500 -0.209030
N2    N     N_R   0.148040 0.499110 0.499500 -0.200329
O1    O     O_R   0.381190 0.680360 0.500000 -0.584747
O2    O     O_R   0.618770 0.680320 0.499990 -0.596286
O3    O     O_R   0.367430 0.500040 0.613600 -0.495198
O4    O     O_R   0.605020 0.500000 0.613590 -0.588898
O5    O     O_R   0.381230 0.319680 0.500010 -0.563530
O6    O     O_R   0.618810 0.319640 0.500000 -0.586046
O7    O     O_R   0.394980 0.500000 0.386410 -0.598905
O8    O     O_R   0.632570 0.499960 0.386400 -0.590375
S1    S     S_3+6 0.116001 0.129316 0.594417 0.025494
O9    O     O_2   0.126561 0.051012 0.665651 -0.241907
O10   O     O_2   0.154754 0.260178 0.613153 -0.252605
O11   O     O_3   0.950018 0.125457 0.568201 -0.562655
H11   H     H_    0.893585 0.170338 0.610351 0.389545
H12   H     H_    0.220930 0.118415 0.458413 0.071434
H13   H     H_    0.229161 0.895946 0.448368 0.169529
H14   H     H_    0.147678 0.443346 0.343146 0.218524
H15   H     H_    0.739680 0.423043 0.250245 0.150486
H16   H     H_    0.144014 0.276561 0.371607 0.203992
H17   H     H_    0.892842 0.277083 0.371699 0.207576
H18   H     H_    0.321487 0.579172 0.256890 0.146210
H19   H     H_    0.271808 0.538285 0.905093 0.215267
S2    S     S_3+6 0.233200 0.633278 0.754790 0.043007
O12   O     O_2   0.120621 0.560781 0.718534 -0.252759
O13   O     O_2   0.167356 0.705844 0.823249 -0.252104
O14   O     O_3   0.309314 0.731901 0.688941 -0.551569
H20   H     H_    0.234654 0.792212 0.679286 0.383013
S3    S     S_3+6 0.326940 0.311685 0.026113 0.055787
O15   O     O_2   0.386005 0.249237 0.094178 -0.258694
O16   O     O_2   0.198961 0.385382 0.054405 -0.308435
O17   O     O_3   0.280645 0.204102 0.961907 -0.455046
H21   H     H_    0.206612 0.154538 0.990941 0.389826
S4    S     S_3+6 0.696959 0.276222 0.877533 0.052571
O18   O     O_2   0.802974 0.354020 0.915641 -0.274908
O19   O     O_2   0.631294 0.186341 0.936013 -0.219291
O20   O     O_3   0.778913 0.197385 0.802261 -0.502755
H22   H     H_    0.855439 0.151511 0.825066 0.406783

loop_
_geom_bond_atom_site_label_1
_geom_bond_atom_site_label_2
_ccdc_geom_bond_type
C10   C27   S    
S1    O9    D    
S3    O15   D    
C12   O3    A    
C27   O8    A    
C4    H15   S    
C11   C19   S    
C12   C28   S    
C28   C29   A    
C8    C31   S    
C2    S2    S    
C5    C6    A    
S4    O19   D    
C22   H7    S    
C16   C17   A    
Cu1   O3    S    
C15   C16   A    
C2    C32   A    
C18   C19   S    
C20   C24   A    
C8    C9    D    
C20   N1    A    
C13   C14   A    
Cu1   N2    S    
S3    O16   D    
Cu1   Cu2   S    
C21   N1    A    
Cu1   O7    S    
C3    H10   S    
Cu2   O4    S    
C9    H9    S    
O17   H21   S    
S4    O18   D    
S2    O12   D    
C25   C26   S    
O20   H22   S    
C25   H16   S    
C15   H4    S    
C29   C30   A    
C23   O5    A    
C31   C32   A    
C17   C18   S    
Cu2   N1    S    
C24   C25   S    
C19   H5    S    
C18   S1    S    
C32   H19   S    
C18   H12   S    
C22   N2    A    
Cu2   O8    S    
C16   C23   S    
S1    O10   D    
Cu1   O1    S    
S3    O17   S    
C1    C13   S    
C4    C10   A    
C3    C4    A    
C26   H8    S    
C7    C9    S    
C11   C17   A    
C26   H17   S    
Cu2   O6    S    
C1    O1    A    
C5    H18   S    
C12   O4    A    
C27   O7    A    
C1    O2    A    
C6    C7    A    
Cu1   O5    S    
C29   H1    S    
C3    C7    A    
C24   N2    A    
O11   H11   S    
C5    C10   A    
C14   H3    S    
C11   C13   A    
S4    O20   S    
C23   O6    A    
C30   C31   A    
C21   H6    S    
C20   C26   S    
C19   H13   S    
S2    O14   S    
C8    S3    S    
C6    H2    S    
C25   H14   S    
C30   S4    S    
O14   H20   S    
Cu2   O2    S    
S2    O13   D    
S1    O11   S    
C14   C15   A    
C2    C28   A    
C21   C22   A    
