data_mof_unit_62294.cif
_audit_creation_date              2012-12-10T17:20:31-0500
_audit_creation_method            fapswitch 2.2
_symmetry_space_group_name_H-M    P1
_symmetry_Int_Tables_number       1
_space_group_crystal_system       triclinic
_cell_length_a                    18.716836
_cell_length_b                    18.666359
_cell_length_c                    18.82759
_cell_angle_alpha                 109.224628
_cell_angle_beta                  109.949334
_cell_angle_gamma                 109.073575
_cell_volume                      5073.76438134

loop_
_atom_site_label
_atom_site_type_symbol
_atom_type_description
_atom_site_fract_x
_atom_site_fract_y
_atom_site_fract_z
_atom_type_partial_charge
C1    C     C_R   0.618903 0.619025 0.500071 0.777413
C2    C     C_3   0.181534 0.476835 0.259022 0.472833
C3    C     C_3   0.270280 0.557358 0.331334 -0.186073
C4    C     C_3   0.312457 0.500219 0.313104 -0.061834
C5    C     C_R   0.756620 0.758759 0.579150 -0.159991
C6    C     C_R   0.821550 0.822075 0.579156 -0.159158
C7    C     C_R   0.814131 0.814329 0.500088 -0.010396
C8    C     C_R   0.742364 0.742575 0.421054 -0.161698
C9    C     C_R   0.678968 0.677794 0.421098 -0.171448
C10   C     C_R   0.685700 0.686145 0.500130 -0.014611
C11   C     C_R   0.680699 0.501672 0.759614 -0.165036
C12   C     C_R   0.380495 0.500042 0.380628 0.804278
C13   C     C_R   0.744543 0.500222 0.823458 -0.112421
C14   C     C_R   0.816682 0.500107 0.816584 -0.002346
C15   C     C_R   0.824109 0.499985 0.745016 -0.172829
C16   C     C_R   0.758730 0.498371 0.679667 -0.164907
C17   C     C_R   0.687300 0.499942 0.687234 -0.019575
C18   C     C_R   0.241871 0.321578 0.498993 -0.173103
C19   C     C_R   0.177076 0.256764 0.497617 -0.170876
C20   C     C_R   0.185791 0.185695 0.499787 -0.012998
C21   C     C_R   0.258629 0.178752 0.501753 -0.165964
C22   C     C_R   0.321934 0.242051 0.500127 -0.169359
C23   C     C_R   0.381013 0.380992 0.499837 0.772555
C24   C     C_R   0.313993 0.313910 0.499548 -0.011085
C25   C     C_R   0.003157 0.618727 0.121540 0.932798
C26   C     C_R   0.123358 0.500317 0.123606 0.841870
C27   C     C_R   0.004097 0.380734 0.885035 0.783556
C28   C     C_R   0.884063 0.500023 0.883948 0.808637
C29   C     C_R   0.000997 0.880845 0.381725 0.832595
C30   C     C_R   0.881081 0.881084 0.499991 0.767838
C31   C     C_R   0.998573 0.118098 0.617748 0.763499
C32   C     C_R   0.118918 0.118834 0.499907 0.778003
C33   C     C_R   0.958729 0.729089 0.164157 0.318892
C34   C     C_R   0.619844 0.499965 0.619819 0.779077
C35   C     C_R   0.958029 0.792740 0.227849 -0.191330
C36   C     C_R   0.001744 0.813704 0.315009 -0.165535
C37   C     C_R   0.046194 0.770189 0.338042 -0.195605
C38   C     C_R   0.046701 0.705970 0.274694 0.323231
C39   C     C_R   0.002943 0.685501 0.187643 -0.173664
C40   C     C_R   0.074264 0.330590 0.804355 -0.176518
C41   C     C_R   0.072049 0.265738 0.739201 -0.220657
C42   C     C_R   0.996999 0.183331 0.684311 -0.104709
C43   C     C_R   0.923153 0.164832 0.695400 0.409265
C44   C     C_R   0.926725 0.230337 0.761614 -0.152208
C45   C     C_3   0.324439 0.524524 0.245927 -0.142663
C46   C     C_R   0.001834 0.313036 0.816172 -0.108311
C47   C     C_3   0.280935 0.581272 0.262746 -0.179872
C48   C     C_3   0.191307 0.500482 0.191593 -0.002696
C49   C     C_3   0.233756 0.443711 0.173891 -0.212694
C50   C     C_3   0.222952 0.419095 0.242156 -0.234619
Cu1   Cu    Cu3+1 0.500500 0.438200 0.438680 0.965384
Cu2   Cu    Cu3+1 0.499500 0.561800 0.561320 0.972018
Cu3   Cu    Cu3+1 0.942090 0.438180 0.003770 1.026008
Cu4   Cu    Cu3+1 0.065710 0.561750 0.003750 0.995606
Cu5   Cu    Cu3+1 0.062280 0.999890 0.562170 0.970417
Cu6   Cu    Cu3+1 0.937720 0.999930 0.437650 0.978420
H1    H     H_    0.303588 0.647395 0.269807 0.170698
H2    H     H_    0.624069 0.622002 0.359696 0.139559
H3    H     H_    0.625515 0.502613 0.765832 0.145872
H4    H     H_    0.738545 0.500718 0.878836 0.163262
H5    H     H_    0.879578 0.499582 0.739093 0.142900
H6    H     H_    0.764535 0.497434 0.624088 0.145738
H7    H     H_    0.235147 0.376843 0.498193 0.140062
H8    H     H_    0.121059 0.262733 0.496409 0.143916
H9    H     H_    0.265618 0.123751 0.503060 0.145819
H10   H     H_    0.377751 0.235894 0.500909 0.143903
H11   H     H_    0.385127 0.544302 0.242033 0.141031
H12   H     H_    0.923655 0.825974 0.209100 0.196887
H13   H     H_    0.080135 0.785571 0.405063 0.195739
H14   H     H_    0.132909 0.394012 0.846135 0.162639
H15   H     H_    0.128800 0.279948 0.731093 0.150117
H16   H     H_    0.870268 0.216393 0.770178 0.174710
H17   H     H_    0.217867 0.397715 0.108379 0.147343
H18   H     H_    0.199709 0.353135 0.235521 0.150269
H19   H     H_    0.284786 0.602947 0.396347 0.176561
H20   H     H_    0.762413 0.765507 0.640557 0.148336
H21   H     H_    0.876680 0.877682 0.640537 0.147210
H22   H     H_    0.736339 0.736060 0.359639 0.143978
O1    O     O_R   0.590610 0.537990 0.448230 -0.586224
O2    O     O_R   0.055400 0.642330 0.093210 -0.564726
O3    O     O_R   0.042570 0.447790 0.094640 -0.537233
O4    O     O_R   0.146970 0.552140 0.094620 -0.604905
O5    O     O_R   0.952400 0.357600 0.914310 -0.595217
O6    O     O_R   0.056800 0.461950 0.914290 -0.595592
O7    O     O_R   0.860830 0.447790 0.912900 -0.596392
O8    O     O_R   0.965230 0.552140 0.912880 -0.571000
O9    O     O_R   0.053290 0.909730 0.462990 -0.587071
O10   O     O_R   0.948100 0.909770 0.357840 -0.586951
O11   O     O_R   0.962410 0.909720 0.552480 -0.582215
O12   O     O_R   0.589770 0.642360 0.551790 -0.578508
O13   O     O_R   0.857220 0.909750 0.447330 -0.583786
O14   O     O_R   0.051900 0.090060 0.641980 -0.578131
O15   O     O_R   0.946710 0.090090 0.536830 -0.576902
O16   O     O_R   0.142780 0.090070 0.552500 -0.585265
O17   O     O_R   0.037590 0.090110 0.447350 -0.580668
O18   O     O_R   0.409550 0.447810 0.357350 -0.581082
O19   O     O_R   0.408710 0.552190 0.460910 -0.590240
O20   O     O_R   0.410230 0.357640 0.448210 -0.582383
O21   O     O_R   0.409390 0.462010 0.551770 -0.585950
O22   O     O_R   0.591290 0.447810 0.539090 -0.584984
O23   O     O_R   0.590450 0.552190 0.642650 -0.578099
O24   O     O_R   0.951000 0.537980 0.093230 -0.559428
Cl1   Cl    Cl    0.902560 0.704422 0.055334 -0.636251
Cl2   Cl    Cl    0.103725 0.653169 0.306467 -0.612360
O25   O     O_3   0.847590 0.084463 0.645229 -0.727827
H23   H     H_    0.855549 0.041381 0.605978 0.319518
O26   O     O_3   0.105251 0.452047 0.264167 -0.670801
H24   H     H_    0.118805 0.441495 0.314203 0.316721

loop_
_geom_bond_atom_site_label_1
_geom_bond_atom_site_label_2
_ccdc_geom_bond_type
Cu6   O17   S    
C32   O16   A    
Cu5   Cu6   S    
C1    O12   A    
C31   C42   S    
C37   H13   S    
C25   O2    A    
C41   C42   A    
Cu2   O19   S    
C23   O21   A    
C19   C20   A    
Cu4   O6    S    
C7    C8    A    
C13   H4    S    
Cu3   Cu4   S    
C40   C46   A    
C29   C36   S    
C33   C39   A    
C40   H14   S    
C18   C24   A    
C36   C37   A    
C37   C38   A    
C18   C19   A    
C50   H18   S    
C5    C6    A    
C25   O24   A    
Cu6   O10   S    
C15   C16   A    
C2    O26   S    
Cu3   O3    S    
C9    H2    S    
C43   O25   S    
C22   H10   S    
C29   O10   A    
C38   Cl2   S    
C2    C50   S    
Cu2   O12   S    
Cu6   O13   S    
C11   C17   A    
C35   C36   A    
C8    C9    A    
Cu5   O16   S    
C45   H11   S    
C34   O22   A    
C23   C24   S    
C4    C12   S    
C3    H19   S    
C9    C10   A    
C19   H8    S    
C26   C48   S    
Cu1   O18   S    
C41   H15   S    
Cu1   O20   S    
C26   O4    A    
C7    C30   S    
C21   C22   A    
C8    H22   S    
C16   H6    S    
C30   O11   A    
C11   H3    S    
C44   C46   A    
Cu4   O2    S    
C4    C45   S    
C45   C47   S    
Cu6   O15   S    
Cu2   O23   S    
C34   O23   A    
Cu1   Cu2   S    
Cu4   O8    S    
C16   C17   A    
C6    H21   S    
C2    C48   S    
C31   O15   A    
C4    C50   S    
C43   C44   A    
Cu5   O14   S    
C47   H1    S    
C47   C48   S    
C45   C49   S    
Cu3   O24   S    
O26   H24   S    
C32   O17   A    
C15   H5    S    
C12   O19   A    
C27   C46   S    
C48   C49   S    
C31   O14   A    
C26   O3    A    
C28   O8    A    
C1    O1    A    
C49   H17   S    
C42   C43   A    
C3    C4    S    
Cu4   O4    S    
C20   C32   S    
Cu1   O22   S    
C27   O6    A    
C40   C41   A    
C21   H9    S    
C33   Cl1   S    
C1    C10   S    
C30   O13   A    
C6    C7    A    
O25   H23   S    
Cu2   O21   S    
Cu3   O5    S    
C5    H20   S    
C27   O5    A    
C2    C3    S    
C5    C10   A    
Cu5   O11   S    
C25   C39   S    
C11   C13   A    
C38   C39   A    
C35   H12   S    
C3    C47   S    
C33   C35   A    
C44   H16   S    
C22   C24   A    
Cu5   O9    S    
C18   H7    S    
Cu1   O1    S    
C29   O9    A    
C23   O20   A    
C20   C21   A    
C49   C50   S    
C17   C34   S    
C28   O7    A    
C14   C15   A    
C12   O18   A    
Cu3   O7    S    
C14   C28   S    
C13   C14   A    
