data_mof_unit_42839.cif
_audit_creation_date              2012-12-10T16:56:34-0500
_audit_creation_method            fapswitch 2.2
_symmetry_space_group_name_H-M    P1
_symmetry_Int_Tables_number       1
_space_group_crystal_system       triclinic
_cell_length_a                    7.91553
_cell_length_b                    8.732114
_cell_length_c                    15.629033
_cell_angle_alpha                 95.17515
_cell_angle_beta                  85.125037
_cell_angle_gamma                 92.636979
_cell_volume                      1071.17196797

loop_
_atom_site_label
_atom_site_type_symbol
_atom_type_description
_atom_site_fract_x
_atom_site_fract_y
_atom_site_fract_z
_atom_type_partial_charge
C1    C     C_R   0.543460 0.793597 0.499443 0.899305
C2    C     C_3   0.417421 0.364554 0.010879 0.176716
C3    C     C_1   0.505177 0.525620 0.751625 -0.188406
C4    C     C_1   0.494823 0.474380 0.248375 -0.188406
C5    C     C_3   0.340695 0.503493 0.975844 -0.241094
C6    C     C_3   0.659305 0.496508 0.024156 -0.241095
C7    C     C_3   0.506697 0.526648 0.918543 0.019392
C8    C     C_3   0.493303 0.473352 0.081457 0.019392
C9    C     C_1   0.507275 0.535384 0.827586 -0.069874
C10   C     C_1   0.492725 0.464616 0.172414 -0.069874
C11   C     C_3   0.686687 0.783643 0.975531 -0.409467
C12   C     C_R   0.456540 0.206403 0.500557 0.899305
C13   C     C_3   0.758346 0.852293 0.059204 -0.898328
C14   C     C_3   0.313313 0.216357 0.024469 -0.409467
C15   C     C_3   0.241654 0.147707 0.940796 -0.898328
C16   C     C_3   0.314431 0.729845 0.105463 -0.383634
C17   C     C_3   0.219889 0.829181 0.052347 -0.926392
C18   C     C_3   0.685569 0.270155 0.894537 -0.383633
C19   C     C_3   0.780111 0.170819 0.947653 -0.926392
C20   C     C_1   0.695343 0.016425 0.565604 0.192184
C21   C     C_1   0.304657 0.983575 0.434396 0.192184
C22   C     C_3   0.022908 0.375298 0.398963 -0.138344
C23   C     C_R   0.501526 0.507305 0.661953 0.886391
C24   C     C_3   0.919992 0.228429 0.374448 -0.840232
C25   C     C_3   0.977092 0.624702 0.601037 -0.138344
C26   C     C_3   0.080008 0.771571 0.625552 -0.840232
C27   C     C_R   0.498473 0.492694 0.338047 0.886391
C28   C     C_2   0.560989 0.956427 0.512267 -0.234262
C29   C     C_2   0.439011 0.043573 0.487733 -0.234262
C30   C     C_3   0.417752 0.612060 0.047263 0.190879
C31   C     C_3   0.582248 0.387940 0.952737 0.190879
C32   C     C_3   0.582579 0.635446 0.989120 0.176716
H1    H     H_    0.789081 0.491153 0.045424 0.152636
H2    H     H_    0.138216 0.061800 0.955380 0.258149
H3    H     H_    0.393789 0.132775 0.049579 0.212801
H4    H     H_    0.206304 0.242881 0.073511 0.204210
H5    H     H_    0.309222 0.875464 0.001783 0.280073
H6    H     H_    0.117575 0.760107 0.020833 0.264944
H7    H     H_    0.162426 0.925188 0.094727 0.263714
H8    H     H_    0.220498 0.668489 0.148456 0.211543
H9    H     H_    0.399310 0.802743 0.146501 0.212951
H10   H     H_    0.882425 0.239893 0.979167 0.264944
H11   H     H_    0.690778 0.124536 0.998216 0.280073
H12   H     H_    0.210919 0.508847 0.954576 0.152636
H13   H     H_    0.837574 0.074812 0.905273 0.263715
H14   H     H_    0.600690 0.197257 0.853499 0.212951
H15   H     H_    0.779503 0.331511 0.851544 0.211543
H16   H     H_    0.903890 0.155387 0.429314 0.276309
H17   H     H_    0.795075 0.252804 0.353463 0.278867
H18   H     H_    0.989239 0.162165 0.319414 0.217841
H19   H     H_    0.031622 0.451084 0.345226 0.172492
H20   H     H_    0.147401 0.333941 0.407494 0.227194
H21   H     H_    0.204925 0.747196 0.646537 0.278867
H22   H     H_    0.096110 0.844612 0.570686 0.276309
H23   H     H_    0.658135 0.910608 0.102370 0.257632
H24   H     H_    0.010761 0.837835 0.680586 0.217841
H25   H     H_    0.852599 0.666058 0.592506 0.227194
H26   H     H_    0.968378 0.548916 0.654774 0.172492
H27   H     H_    0.812685 0.762842 0.093641 0.267932
H28   H     H_    0.861784 0.938200 0.044620 0.258150
H29   H     H_    0.793697 0.757119 0.926489 0.204210
H30   H     H_    0.606211 0.867225 0.950421 0.212801
H31   H     H_    0.187314 0.237158 0.906359 0.267932
H32   H     H_    0.341865 0.089393 0.897629 0.257632
N1    N     N_2   0.950320 0.457950 0.477300 -0.028212
N2    N     N_2   0.049680 0.542050 0.522700 -0.028212
N3    N     N_1   0.801936 0.064108 0.608119 -0.210088
N4    N     N_1   0.198064 0.935892 0.391881 -0.210088
O1    O     O_R   0.389250 0.738570 0.505570 -0.605122
O2    O     O_R   0.610750 0.261430 0.494430 -0.605121
O3    O     O_R   0.678390 0.711630 0.491020 -0.635512
O4    O     O_R   0.321610 0.288370 0.508980 -0.635512
O5    O     O_R   0.355460 0.513480 0.630490 -0.614044
O6    O     O_R   0.644540 0.486520 0.369510 -0.614043
O7    O     O_R   0.644600 0.486540 0.615950 -0.646256
O8    O     O_R   0.355400 0.513460 0.384050 -0.646255
Zn1   Zn    Zn3+2 0.306940 0.517990 0.509710 0.945111
Zn2   Zn    Zn3+2 0.693060 0.482010 0.490290 0.945111

loop_
_geom_bond_atom_site_label_1
_geom_bond_atom_site_label_2
_ccdc_geom_bond_type
C6    C32   S    
C12   C29   S    
O2    Zn2   S    
C20   N3    T    
O1    Zn1   S    
C11   H30   S    
C18   H15   S    
C13   H28   S    
C1    O3    A    
C28   C29   D    
C14   H4    S    
C16   C30   S    
C26   H22   S    
C18   C19   S    
C17   H7    S    
C3    C23   S    
C16   C17   S    
C1    C28   S    
C15   H32   S    
N1    Zn2   S    
C27   O6    A    
C15   H2    S    
C19   H10   S    
C6    C31   S    
C12   O4    A    
C25   H25   S    
C23   O5    A    
C18   H14   S    
C19   H11   S    
C24   H18   S    
C7    C31   S    
C24   H16   S    
O8    Zn1   S    
C14   H3    S    
C5    C7    S    
C6    C8    S    
C20   C28   S    
C25   C26   S    
C21   C29   S    
C1    O1    A    
C2    C31   S    
C22   N1    S    
O4    Zn1   S    
C3    C9    T    
C17   H5    S    
C16   H8    S    
C5    H12   S    
C11   C32   S    
C21   N4    T    
C22   C24   S    
C2    C5    S    
C25   H26   S    
C4    C10   T    
C27   O8    A    
C26   H21   S    
C4    C27   S    
C22   H20   S    
C5    C30   S    
C24   H17   S    
C7    C9    S    
N2    Zn1   S    
C12   O2    A    
O5    Zn1   S    
C7    C32   S    
C2    C8    S    
C25   N2    S    
C23   O7    A    
C11   H29   S    
C26   H24   S    
C19   H13   S    
C13   H27   S    
C6    H1    S    
C8    C30   S    
C30   C32   S    
C11   C13   S    
C17   H6    S    
C2    C14   S    
O7    Zn2   S    
C8    C10   S    
N1    N2    D    
O6    Zn2   S    
C15   H31   S    
C14   C15   S    
C18   C31   S    
C16   H9    S    
O3    Zn2   S    
C22   H19   S    
C13   H23   S    
