data_mof_unit_22572.cif
_audit_creation_date              2013-03-05T15:51:27-0500
_audit_creation_method            fapswitch 2.2
_symmetry_space_group_name_H-M    P1
_symmetry_Int_Tables_number       1
_space_group_crystal_system       triclinic
_cell_length_a                    19.161129
_cell_length_b                    10.949864
_cell_length_c                    18.727089
_cell_angle_alpha                 89.932519
_cell_angle_beta                  90.190398
_cell_angle_gamma                 89.708041
_cell_volume                      3929.08793003

loop_
_atom_site_label
_atom_site_type_symbol
_atom_site_description
_atom_site_fract_x
_atom_site_fract_y
_atom_site_fract_z
_atom_type_partial_charge
O1    O     O_R   0.957020 0.451640 0.669920 -0.523364
O2    O     O_R   0.042980 0.451640 0.330080 -0.522070
O3    O     O_R   0.457020 0.951640 0.669920 -0.527077
O4    O     O_R   0.542980 0.951640 0.330080 -0.517537
O5    O     O_R   0.821450 0.543440 0.674610 -0.493826
O6    O     O_R   0.178550 0.543440 0.325390 -0.500109
O7    O     O_R   0.321450 0.043440 0.674610 -0.498541
O8    O     O_R   0.678550 0.043440 0.325390 -0.494248
C1    C     C_R   0.761769 0.528799 0.644605 0.531279
C2    C     C_R   0.239878 0.535491 0.353354 0.523917
C3    C     C_R   0.261456 0.032385 0.646043 0.540331
C4    C     C_R   0.739483 0.035092 0.353270 0.541735
O9    O     O_R   0.715320 0.458650 0.668100 -0.541042
O10   O     O_R   0.284680 0.458650 0.331900 -0.538280
O11   O     O_R   0.215320 0.958650 0.668100 -0.517930
O12   O     O_R   0.784680 0.958650 0.331900 -0.525225
O13   O     O_R   0.737170 0.209590 0.674530 -0.508334
O14   O     O_R   0.262830 0.209590 0.325470 -0.518763
O15   O     O_R   0.237170 0.709590 0.674530 -0.498468
O16   O     O_R   0.762830 0.709590 0.325470 -0.505759
C5    C     C_R   0.791087 0.170946 0.638833 0.552924
C6    C     C_R   0.226538 0.124844 0.353459 0.525253
C7    C     C_R   0.291779 0.672676 0.639010 0.556270
C8    C     C_R   0.726773 0.626009 0.353656 0.546050
O17   O     O_R   0.832710 0.092740 0.669580 -0.519405
O18   O     O_R   0.167290 0.092740 0.330420 -0.511288
O19   O     O_R   0.332710 0.592740 0.669580 -0.513201
O20   O     O_R   0.667290 0.592740 0.330420 -0.515786
O21   O     O_R   0.946290 0.250060 0.676040 -0.515868
O22   O     O_R   0.053710 0.250060 0.323960 -0.503134
O23   O     O_R   0.446290 0.750060 0.676040 -0.517384
O24   O     O_R   0.553710 0.750060 0.323960 -0.505321
C9    C     C_R   0.971634 0.347417 0.646521 0.523183
C10   C     C_R   0.026737 0.344462 0.351946 0.523068
C11   C     C_R   0.470262 0.847806 0.645586 0.520048
C12   C     C_R   0.526318 0.844271 0.351404 0.527138
O25   O     O_R   0.956270 0.452200 0.830470 -0.514774
O26   O     O_R   0.043730 0.452200 0.169530 -0.525410
O27   O     O_R   0.456270 0.952200 0.830470 -0.522812
O28   O     O_R   0.543730 0.952200 0.169530 -0.528005
O29   O     O_R   0.820760 0.543950 0.823440 -0.505212
O30   O     O_R   0.179240 0.543950 0.176560 -0.515406
O31   O     O_R   0.320760 0.043950 0.823440 -0.495049
O32   O     O_R   0.679240 0.043950 0.176560 -0.496566
C13   C     C_R   0.761178 0.530429 0.852988 0.538394
C14   C     C_R   0.240109 0.533785 0.148317 0.560634
C15   C     C_R   0.274050 0.979985 0.859351 0.550182
C16   C     C_R   0.725525 0.978545 0.140656 0.549851
O33   O     O_R   0.714570 0.459210 0.828640 -0.470350
O34   O     O_R   0.285430 0.459210 0.171360 -0.453760
O35   O     O_R   0.214570 0.959210 0.828640 -0.477701
O36   O     O_R   0.785430 0.959210 0.171360 -0.471651
O37   O     O_R   0.736470 0.210100 0.823360 -0.449696
O38   O     O_R   0.263530 0.210100 0.176640 -0.415069
O39   O     O_R   0.236470 0.710100 0.823360 -0.506852
O40   O     O_R   0.763530 0.710100 0.176640 -0.514022
C17   C     C_R   0.771331 0.119778 0.850923 0.553269
C18   C     C_R   0.228647 0.119834 0.148950 0.567394
C19   C     C_R   0.274265 0.630622 0.854857 0.545538
C20   C     C_R   0.727482 0.626467 0.146980 0.539176
O41   O     O_R   0.831960 0.093290 0.830130 -0.515269
O42   O     O_R   0.168040 0.093290 0.169870 -0.530467
O43   O     O_R   0.331960 0.593290 0.830130 -0.509355
O44   O     O_R   0.668040 0.593290 0.169870 -0.521121
O45   O     O_R   0.945600 0.250580 0.824860 -0.493474
O46   O     O_R   0.054400 0.250580 0.175140 -0.490617
O47   O     O_R   0.445600 0.750580 0.824860 -0.503491
O48   O     O_R   0.554400 0.750580 0.175140 -0.513937
C21   C     C_R   0.969411 0.347514 0.854281 0.546857
C22   C     C_R   0.028580 0.347380 0.147293 0.553292
C23   C     C_R   0.470459 0.846991 0.853317 0.537659
C24   C     C_R   0.528585 0.847566 0.147461 0.530811
Cr1   Cr    Cr6+3 0.885860 0.491680 0.749630 1.026559
Cr2   Cr    Cr6+3 0.114140 0.491680 0.250370 1.022983
Cr3   Cr    Cr6+3 0.385860 0.991680 0.749630 1.017926
Cr4   Cr    Cr6+3 0.614140 0.991680 0.250370 1.016035
Cr5   Cr    Cr6+3 0.730490 0.332970 0.748720 1.065937
Cr6   Cr    Cr6+3 0.269510 0.332970 0.251280 1.068213
Cr7   Cr    Cr6+3 0.230490 0.832970 0.748720 1.050786
Cr8   Cr    Cr6+3 0.769510 0.832970 0.251280 1.046631
Cr9   Cr    Cr6+3 0.887570 0.179310 0.750150 1.038402
Cr10  Cr    Cr6+3 0.112430 0.179310 0.249850 1.047549
Cr11  Cr    Cr6+3 0.387570 0.679310 0.750150 1.015904
Cr12  Cr    Cr6+3 0.612430 0.679310 0.249850 0.998410
O49   O     O_3   0.834640 0.334650 0.749500 -0.281171
O50   O     O_3   0.165360 0.334650 0.250500 -0.257201
O51   O     O_3   0.334640 0.834650 0.749500 -0.300618
O52   O     O_3   0.665360 0.834650 0.250500 -0.274407
C25   C     C_R   0.755613 0.103913 0.417566 0.012239
C26   C     C_R   0.256726 0.063526 0.572381 0.034479
C27   C     C_R   0.259096 0.606510 0.416702 0.004526
C28   C     C_R   0.754698 0.556220 0.570157 0.025958
C29   C     C_R   0.702236 0.149001 0.460562 -0.003001
C30   C     C_R   0.209822 0.151752 0.549062 0.003055
C31   C     C_R   0.210176 0.673508 0.455540 0.010706
C32   C     C_R   0.794051 0.646894 0.538612 0.029465
C33   C     C_R   0.714250 0.172867 0.531737 0.006690
C34   C     C_R   0.201820 0.171083 0.476835 0.051680
C35   C     C_R   0.221958 0.699888 0.526931 0.026206
C36   C     C_R   0.788893 0.664207 0.465856 0.020911
C37   C     C_R   0.836091 0.128224 0.517328 -0.160387
C38   C     C_R   0.276774 0.999172 0.450107 -0.158433
C39   C     C_R   0.337552 0.615981 0.519424 -0.168193
C40   C     C_R   0.716931 0.485056 0.453635 -0.148466
C41   C     C_R   0.824238 0.104545 0.444861 -0.157689
C42   C     C_R   0.287618 0.982832 0.523074 -0.114538
C43   C     C_R   0.325995 0.589939 0.447280 -0.162169
C44   C     C_R   0.718199 0.472496 0.526917 -0.142608
C45   C     C_3   0.631174 0.099987 0.475192 -0.252453
C46   C     C_3   0.209151 0.285553 0.564752 -0.289686
C47   C     C_3   0.134581 0.651219 0.467473 -0.252432
C48   C     C_3   0.791101 0.780594 0.553747 -0.278197
C49   C     C_3   0.644457 0.127105 0.553554 -0.269375
C50   C     C_3   0.200335 0.306463 0.485217 -0.259274
C51   C     C_3   0.147744 0.677979 0.545858 -0.259045
C52   C     C_3   0.784689 0.799897 0.474066 -0.240587
C53   C     C_R   0.779848 0.154291 0.562570 0.016802
C54   C     C_R   0.238166 0.100008 0.427221 0.036278
C55   C     C_R   0.282935 0.661005 0.561661 -0.002949
C56   C     C_R   0.748730 0.586151 0.422978 0.017225
H1    H     H_    0.888022 0.117731 0.538979 0.150753
H2    H     H_    0.300326 0.936932 0.412160 0.109562
H3    H     H_    0.387144 0.591573 0.543285 0.156806
H4    H     H_    0.685443 0.423101 0.422145 0.138771
H5    H     H_    0.867396 0.073768 0.412361 0.133577
H6    H     H_    0.320183 0.907791 0.541219 0.118255
H7    H     H_    0.367014 0.543746 0.418181 0.138958
H8    H     H_    0.688237 0.399435 0.549942 0.146038
H9    H     H_    0.119098 0.555303 0.457197 0.158556
H10   H     H_    0.840967 0.815135 0.576290 0.153141
H11   H     H_    0.626731 0.000695 0.463673 0.151865
H12   H     H_    0.259904 0.318866 0.586009 0.154184
H13   H     H_    0.589730 0.158349 0.451113 0.154850
H14   H     H_    0.162606 0.313535 0.596160 0.138988
H15   H     H_    0.101655 0.721338 0.440579 0.145494
H16   H     H_    0.743515 0.808307 0.583647 0.134513
H17   H     H_    0.610984 0.201793 0.574756 0.126946
H18   H     H_    0.148772 0.345954 0.470509 0.136343
H19   H     H_    0.121465 0.762150 0.564866 0.138011
H20   H     H_    0.733035 0.837710 0.457879 0.142564
H21   H     H_    0.647612 0.043649 0.587359 0.145010
H22   H     H_    0.246283 0.350953 0.460543 0.156261
H23   H     H_    0.141563 0.596566 0.580800 0.141096
H24   H     H_    0.830625 0.846607 0.450981 0.152615
C57   C     C_R   0.992214 0.331072 0.422281 -0.043090
C58   C     C_R   0.999452 0.346679 0.572554 -0.044722
C59   C     C_R   0.489623 0.829609 0.420267 -0.043667
C60   C     C_R   0.494681 0.847860 0.570342 -0.041333
C61   C     C_R   0.009635 0.106401 0.432803 -0.079680
C62   C     C_R   0.034962 0.130950 0.578465 -0.087079
C63   C     C_R   0.508573 0.605793 0.431876 -0.077258
C64   C     C_R   0.534563 0.633484 0.577155 -0.090024
C65   C     C_R   0.028482 0.004772 0.473504 -0.129349
C66   C     C_R   0.042554 0.017628 0.545903 -0.116977
C67   C     C_R   0.528272 0.505115 0.473016 -0.135107
C68   C     C_R   0.542851 0.519548 0.545194 -0.125167
C69   C     C_R   0.013072 0.234147 0.538803 -0.016247
C70   C     C_R   0.005109 0.224085 0.463818 0.003321
C71   C     C_R   0.510688 0.735352 0.537212 -0.011623
C72   C     C_R   0.503014 0.723758 0.462391 0.010551
H25   H     H_    0.032157 0.915862 0.448655 0.105003
H26   H     H_    0.058247 0.939520 0.577444 0.112921
H27   H     H_    0.532613 0.415750 0.448699 0.104280
H28   H     H_    0.559689 0.441886 0.576771 0.111453
H29   H     H_    0.995741 0.090381 0.377651 0.141181
H30   H     H_    0.047672 0.137624 0.634659 0.140232
H31   H     H_    0.494901 0.589027 0.376720 0.130783
H32   H     H_    0.547701 0.641323 0.633177 0.135723
C73   C     C_R   0.988641 0.453651 0.529660 0.013828
C74   C     C_R   0.973465 0.440280 0.456725 0.006021
C75   C     C_R   0.479441 0.953308 0.526661 0.012076
C76   C     C_R   0.467004 0.937417 0.453295 0.000840
C77   C     C_R   0.992244 0.574712 0.556847 -0.072943
C78   C     C_R   0.946773 0.541159 0.417806 -0.067816
C79   C     C_R   0.476370 0.075524 0.552805 -0.072955
C80   C     C_R   0.437310 0.033831 0.412671 -0.083486
C81   C     C_R   0.971300 0.674917 0.516029 -0.137094
C82   C     C_R   0.947711 0.657898 0.446736 -0.117949
C83   C     C_R   0.449425 0.170936 0.511543 -0.140579
C84   C     C_R   0.427616 0.149105 0.442148 -0.119814
H33   H     H_    0.928257 0.530528 0.363449 0.130558
H34   H     H_    0.014894 0.594947 0.608354 0.140949
H35   H     H_    0.421998 0.019965 0.357534 0.122862
H36   H     H_    0.498301 0.101962 0.603550 0.146339
H37   H     H_    0.974010 0.765966 0.538142 0.101912
H38   H     H_    0.931433 0.735347 0.414769 0.110671
H39   H     H_    0.446308 0.262348 0.533322 0.110722
H40   H     H_    0.405669 0.222471 0.410284 0.125329
C85   C     C_R   0.732168 0.995670 0.062957 -0.015242
C86   C     C_R   0.267932 0.995565 0.937211 -0.016574
C87   C     C_R   0.255137 0.591431 0.079889 0.019036
C88   C     C_R   0.754321 0.563292 0.927600 -0.022529
C89   C     C_R   0.798342 0.994582 0.033198 0.049594
C90   C     C_R   0.204206 0.974182 0.970394 0.039845
C91   C     C_R   0.317857 0.566278 0.043672 0.012448
C92   C     C_R   0.707636 0.494781 0.967491 0.075985
C93   C     C_R   0.808155 0.025214 0.963199 -0.008921
C94   C     C_R   0.195165 0.003602 0.041468 -0.011977
C95   C     C_R   0.321028 0.576259 0.970898 -0.011582
C96   C     C_R   0.704583 0.503287 0.040445 0.001059
C97   C     C_R   0.686608 0.023523 0.940975 -0.096483
C98   C     C_R   0.316162 0.046199 0.055024 -0.088435
C99   C     C_R   0.205851 0.661179 0.966876 -0.148887
C100  C     C_R   0.801745 0.642370 0.038682 -0.157375
C101  C     C_R   0.676237 0.991198 0.013989 -0.148108
C102  C     C_R   0.325161 0.018451 0.981772 -0.142205
C103  C     C_R   0.201972 0.652400 0.041614 -0.150406
C104  C     C_R   0.804710 0.632336 0.964055 -0.157176
C105  C     C_3   0.864434 0.054218 0.056028 0.096605
C106  C     C_3   0.133905 0.023601 0.950571 0.093217
C107  C     C_3   0.370376 0.462739 0.041159 0.103327
C108  C     C_3   0.630374 0.487079 0.959493 0.096842
C109  C     C_3   0.874763 0.087023 0.978006 -0.235309
C110  C     C_3   0.124565 0.054455 0.028555 -0.235020
C111  C     C_3   0.370522 0.472808 0.960594 -0.215830
C112  C     C_3   0.626472 0.495962 0.039869 -0.242637
C113  C     C_R   0.753188 0.059166 0.918641 0.034060
C114  C     C_R   0.248672 0.054298 0.082838 0.041903
C115  C     C_R   0.263700 0.612527 0.930594 0.014196
C116  C     C_R   0.748383 0.583135 0.077028 -0.002646
H41   H     H_    0.644737 0.020962 0.902538 0.122777
H42   H     H_    0.360078 0.066815 0.088574 0.156818
H43   H     H_    0.163294 0.701767 0.937280 0.192533
H44   H     H_    0.837160 0.704025 0.065335 0.188068
H45   H     H_    0.626714 0.960824 0.032286 0.127129
H46   H     H_    0.375101 0.018324 0.958384 0.138869
H47   H     H_    0.155634 0.684734 0.068419 0.152809
H48   H     H_    0.844182 0.681706 0.934900 0.154291
H49   H     H_    0.856424 0.134174 0.091814 0.125330
H50   H     H_    0.136489 0.104843 0.914854 0.127404
H51   H     H_    0.421111 0.485733 0.066423 0.097854
H52   H     H_    0.606958 0.565461 0.930043 0.096647
H53   H     H_    0.869801 0.186536 0.967217 0.125078
H54   H     H_    0.124735 0.154369 0.038501 0.135325
H55   H     H_    0.421421 0.498868 0.938408 0.129688
H56   H     H_    0.602400 0.582491 0.057434 0.128121
H57   H     H_    0.917977 0.037575 0.951112 0.207492
H58   H     H_    0.084681 0.000287 0.057369 0.213156
H59   H     H_    0.345937 0.395070 0.931924 0.182469
H60   H     H_    0.606908 0.412656 0.067150 0.172690
C117  C     C_R   0.994036 0.341336 0.078517 0.015629
C118  C     C_R   0.988995 0.346073 0.928874 0.014297
C119  C     C_R   0.499057 0.843933 0.076772 0.018923
C120  C     C_R   0.494422 0.842144 0.926124 0.014173
C121  C     C_R   0.974499 0.448001 0.042341 -0.003023
C122  C     C_R   0.971340 0.449216 0.969093 0.019272
C123  C     C_R   0.495334 0.951401 0.036805 -0.009423
C124  C     C_R   0.498607 0.949798 0.965141 -0.018827
C125  C     C_R   0.001751 0.236839 0.964722 -0.193024
C126  C     C_R   0.998768 0.233319 0.039339 -0.176969
C127  C     C_R   0.492993 0.732080 0.964712 -0.167295
C128  C     C_R   0.493860 0.732885 0.039686 -0.170750
C129  C     C_3   0.003025 0.575025 0.044486 -0.219849
C130  C     C_3   0.000089 0.575140 0.963890 -0.207309
C131  C     C_3   0.506392 0.087249 0.040170 -0.252749
C132  C     C_3   0.504973 0.085581 0.958400 -0.236244
H61   H     H_    0.010824 0.154062 0.934919 0.164542
H62   H     H_    0.006163 0.148029 0.066730 0.181222
H63   H     H_    0.491446 0.646656 0.936693 0.133307
H64   H     H_    0.494278 0.647524 0.068457 0.114203
H65   H     H_    0.057182 0.579362 0.064725 0.170115
H66   H     H_    0.962043 0.641816 0.941733 0.187522
H67   H     H_    0.557516 0.114956 0.062723 0.182548
H68   H     H_    0.459428 0.133646 0.934694 0.169358
H69   H     H_    0.965974 0.640230 0.069521 0.191279
H70   H     H_    0.052407 0.576811 0.938415 0.155674
H71   H     H_    0.462283 0.138061 0.063183 0.184179
H72   H     H_    0.553692 0.114559 0.933638 0.212753
N1    N     N_R   0.915597 0.965638 0.083043 0.078473
O53   O     O_R   0.942775 0.980435 0.146158 -0.353345
O54   O     O_R   0.933300 0.870584 0.045476 -0.360321
N2    N     N_R   0.085964 0.929468 0.924896 0.079677
O55   O     O_R   0.058324 0.939968 0.861653 -0.345890
O56   O     O_R   0.066065 0.840721 0.966229 -0.365707
N3    N     N_R   0.343634 0.345722 0.064100 0.095301
O57   O     O_R   0.377847 0.284921 0.112597 -0.387896
O58   O     O_R   0.284045 0.306122 0.040130 -0.370724
N4    N     N_R   0.608655 0.368219 0.932998 0.092577
O59   O     O_R   0.560778 0.360660 0.883842 -0.375460
O60   O     O_R   0.639098 0.269669 0.956376 -0.383204

loop_
_geom_bond_atom_site_label_1
_geom_bond_atom_site_label_2
_geom_bond_distance
_ccdc_geom_bond_type
C18   O42   1.262050 A    
C80   H35   1.083579 S    
C107  C111  1.512660 S    
C75   C76   1.404838 A    
O4    C12   1.283423 A    
O47   Cr11  1.950371 S    
C69   C70   1.416497 A    
C62   C69   1.412663 A    
O39   C19   1.272508 A    
O20   Cr12  2.063028 S    
C45   H13   1.110903 S    
C73   C74   1.403513 A    
C98   H42   1.073583 S    
Cr11  O51   1.975924 S    
N3    O57   1.299253 A    
C36   C52   1.495686 S    
C97   H41   1.076580 S    
C14   C87   1.458051 S    
C92   C96   1.370932 A    
C39   H3    1.080916 S    
Cr7   O51   1.995817 S    
O1    C9    1.253625 A    
C127  C128  1.404123 A    
C123  C131  1.504959 S    
C58   C69   1.409116 A    
C94   C114  1.400387 A    
O7    C3    1.272708 A    
C80   C84   1.390107 A    
C32   C48   1.492339 S    
C130  H66   1.108384 S    
C125  C126  1.399208 A    
C118  C122  1.398956 A    
C107  H51   1.109962 S    
C32   C36   1.378565 A    
C100  C116  1.411525 A    
C107  N3    1.447673 S    
C88   C92   1.389587 A    
C120  C127  1.404925 A    
C23   C120  1.438092 S    
C109  H57   1.109637 S    
C20   C116  1.450736 S    
C22   C117  1.447894 S    
C35   C51   1.487258 S    
C129  C130  1.510198 S    
C108  H52   1.111500 S    
C10   C57   1.483348 S    
C89   C93   1.366573 A    
C21   C118  1.445280 S    
C34   C50   1.490999 S    
C48   C52   1.511350 S    
C83   H39   1.082747 S    
C30   C34   1.376762 A    
C81   H37   1.081428 S    
C62   H30   1.082013 S    
O21   C9    1.297513 A    
O8    Cr4   1.953366 S    
C60   C75   1.442358 A    
O23   Cr11  1.951668 S    
C93   C113  1.390422 A    
C17   C113  1.474070 S    
O30   C14   1.286605 A    
O32   Cr4   1.952189 S    
C1    O9    1.258768 A    
O44   Cr12  2.066317 S    
C5    C53   1.455445 S    
C84   H40   1.082607 S    
C127  H63   1.073534 S    
C52   H24   1.108989 S    
C3    O11   1.270002 A    
C28   C44   1.410597 A    
C106  N2    1.464701 S    
O11   Cr7   2.060558 S    
C64   C68   1.392939 A    
C85   C101  1.409247 A    
N2    O55   1.300504 A    
C129  H69   1.109702 S    
C102  H46   1.053703 S    
C98   C102  1.416298 A    
C9    C58   1.485860 S    
C101  H45   1.064703 S    
C95   C111  1.486811 S    
O27   Cr3   2.068303 S    
O8    C4    1.280191 A    
O3    Cr3   2.070894 S    
C61   C70   1.416469 A    
C46   C50   1.515457 S    
O47   C23   1.276765 A    
O2    Cr2   2.073093 S    
C85   C89   1.386726 A    
O14   Cr6   1.941758 S    
O2    C10   1.282690 A    
C105  N1    1.464124 S    
O42   Cr10  2.066317 S    
C64   C71   1.415484 A    
Cr5   O49   1.995817 S    
O18   Cr10  2.063028 S    
C33   C53   1.395337 A    
O14   C6    1.275646 A    
N1    O53   1.300665 A    
C100  H44   1.081019 S    
C25   C29   1.392628 A    
C88   C104  1.405048 A    
C24   C119  1.438573 S    
C38   C54   1.392311 A    
C110  H54   1.110023 S    
C48   H16   1.112628 S    
C109  H53   1.111539 S    
C59   C72   1.423038 A    
O34   Cr6   2.060656 S    
C1    C28   1.431659 S    
O13   Cr5   1.943127 S    
C64   H32   1.081714 S    
C86   C102  1.399586 A    
Cr9   O49   1.975924 S    
O6    Cr2   1.953366 S    
C91   C95   1.368669 A    
C63   H31   1.080918 S    
C28   C32   1.382945 A    
C37   C41   1.399953 A    
O24   Cr12  1.948411 S    
C121  C129  1.497559 S    
C51   H23   1.112274 S    
O30   Cr2   1.952189 S    
C26   C30   1.385364 A    
C8    C56   1.430379 S    
O16   Cr8   1.941758 S    
C99   H43   1.078131 S    
O48   Cr12  1.944509 S    
C4    O12   1.267466 A    
C4    C25   1.454390 S    
C95   C115  1.386837 A    
C26   C42   1.408530 A    
C5    O17   1.299913 A    
C2    O10   1.265718 A    
C46   H12   1.112938 S    
C125  H61   1.078668 S    
O22   C10   1.268042 A    
C15   O35   1.296169 A    
C122  C130  1.490618 S    
C87   C91   1.408058 A    
C67   H27   1.082735 S    
C106  C110  1.510381 S    
C42   H6    1.082922 S    
C75   C79   1.426541 A    
C30   C46   1.494614 S    
C13   C88   1.449497 S    
C105  C109  1.518061 S    
Cr4   O52   1.975479 S    
O28   Cr4   2.071920 S    
C97   C113  1.401070 A    
O43   Cr11  2.069657 S    
O12   Cr8   2.064908 S    
C60   C71   1.412771 A    
C112  H60   1.112332 S    
O41   Cr9   2.069657 S    
O22   Cr10  1.948411 S    
O15   C7    1.304479 A    
C41   H5    1.081136 S    
O5    C1    1.283348 A    
C45   H11   1.112303 S    
C82   H38   1.081539 S    
C27   C43   1.412965 A    
O10   Cr6   2.064908 S    
C90   C106  1.494626 S    
O39   Cr7   1.941650 S    
C91   C107  1.512974 S    
C12   C59   1.479846 S    
C89   C105  1.489448 S    
C71   C72   1.414306 A    
O3    C11   1.250512 A    
C124  C132  1.497634 S    
O48   C24   1.277818 A    
N3    O58   1.302027 A    
C120  C124  1.390134 A    
O16   C8    1.265413 A    
O25   C21   1.253525 A    
C13   O33   1.272337 A    
C106  H50   1.113767 S    
C61   H29   1.080496 S    
N4    O59   1.300450 A    
O36   Cr8   2.060656 S    
C105  H49   1.113497 S    
O29   C13   1.279542 A    
C44   H8    1.077522 S    
O15   Cr7   1.943127 S    
O35   Cr7   2.060936 S    
Cr1   O49   1.984172 S    
C16   C85   1.472908 S    
C6    O18   1.264793 A    
C38   H2    1.083163 S    
C99   C103  1.405054 A    
C31   C47   1.487692 S    
C103  H47   1.079765 S    
O26   C22   1.256488 A    
C48   H10   1.111591 S    
C51   H19   1.107680 S    
O21   Cr9   1.951668 S    
C7    O19   1.303005 A    
C132  H68   1.108081 S    
O9    Cr5   2.060558 S    
C79   C83   1.394672 A    
O37   Cr5   1.941650 S    
C96   C116  1.393985 A    
N4    O60   1.298923 A    
C46   H14   1.111926 S    
C111  H59   1.112777 S    
C2    C27   1.466250 S    
C34   C54   1.398015 A    
C33   C49   1.488768 S    
C131  C132  1.531599 S    
C94   C110  1.479314 S    
C108  N4    1.455670 S    
C50   H22   1.110188 S    
C40   C44   1.379200 A    
C93   C109  1.473338 S    
C59   C76   1.400792 A    
C128  H64   1.078299 S    
O31   Cr3   1.949415 S    
C47   H9    1.109671 S    
O26   Cr2   2.071920 S    
O25   Cr1   2.068303 S    
C129  H65   1.104839 S    
C6    C54   1.424144 S    
C111  H55   1.100209 S    
C78   C82   1.389110 A    
C57   C74   1.405023 A    
C130  H70   1.111854 S    
O27   C23   1.256586 A    
C119  C128  1.404850 A    
O28   C24   1.253563 A    
C110  H58   1.110687 S    
C112  H56   1.102715 S    
C87   C103  1.408650 A    
C118  C125  1.391086 A    
C19   O43   1.266068 A    
C66   H26   1.079718 S    
C39   C55   1.401806 A    
C117  C126  1.395290 A    
C8    O20   1.273737 A    
C131  H67   1.109329 S    
C19   C115  1.446916 S    
O17   Cr9   2.069573 S    
O37   C17   1.296361 A    
C77   H34   1.080086 S    
O7    Cr3   1.948752 S    
C123  C124  1.343875 A    
O24   C12   1.265441 A    
C17   O41   1.259036 A    
C100  C104  1.403296 A    
C40   H4    1.083850 S    
C74   C78   1.415216 A    
C45   C49   1.518498 S    
Cr2   O50   1.975479 S    
C35   C55   1.399514 A    
C78   H33   1.083493 S    
C14   O34   1.263559 A    
C119  C123  1.395267 A    
C63   C67   1.393988 A    
O40   Cr8   1.944738 S    
C99   C115  1.404981 A    
C20   O44   1.272821 A    
C49   H17   1.111292 S    
O1    Cr1   2.070894 S    
C63   C72   1.416727 A    
C98   C114  1.398172 A    
C15   C86   1.473223 S    
N1    O54   1.301167 A    
O38   Cr6   1.944738 S    
C65   C66   1.388959 A    
C37   C53   1.401498 A    
C73   C77   1.422490 A    
Cr8   O52   1.995629 S    
O32   C16   1.322941 A    
Cr10  O50   1.984825 S    
O33   Cr5   2.060936 S    
C132  H72   1.092129 S    
O46   Cr10  1.944509 S    
C47   C51   1.517751 S    
C57   C70   1.425535 A    
C18   C114  1.482393 S    
C3    C26   1.423101 S    
Cr6   O50   1.995629 S    
C90   C94   1.381082 A    
Cr12  O52   1.984825 S    
C131  H71   1.099014 S    
O45   C21   1.281785 A    
C61   C65   1.393496 A    
C108  C112  1.510534 S    
O23   C11   1.298890 A    
O19   Cr11  2.069573 S    
C96   C112  1.499253 S    
C29   C33   1.377414 A    
C49   H21   1.112344 S    
C38   C42   1.392681 A    
C31   C35   1.386151 A    
C11   C60   1.486224 S    
C50   H18   1.110206 S    
O40   C20   1.276459 A    
O5    Cr1   1.948752 S    
C36   C56   1.404184 A    
C47   H15   1.110520 S    
C37   H1    1.078782 S    
O4    Cr4   2.073093 S    
O6    C2    1.287433 A    
C86   C90   1.392696 A    
O29   Cr1   1.949415 S    
C83   C84   1.385196 A    
C92   C108  1.490317 S    
C76   C80   1.416376 A    
C16   O36   1.298393 A    
O38   C18   1.303158 A    
O46   C22   1.277434 A    
C68   H28   1.082441 S    
C27   C31   1.394502 A    
N2    O56   1.301089 A    
C81   C82   1.385821 A    
C62   C66   1.390423 A    
C58   C73   1.433312 A    
C25   C41   1.409253 A    
C67   C68   1.388705 A    
C97   C101  1.426803 A    
O45   Cr9   1.950371 S    
C7    C55   1.463669 S    
C39   C43   1.398300 A    
C43   H7    1.081661 S    
C52   H20   1.111965 S    
C77   C81   1.393118 A    
C121  C122  1.372918 A    
O31   C15   1.324077 A    
C126  H62   1.073521 S    
C65   H25   1.081610 S    
C104  H48   1.081006 S    
Cr3   O51   1.984172 S    
C117  C121  1.398290 A    
C29   C45   1.492213 S    
C79   H36   1.078290 S    
C40   C56   1.390673 A    
O13   C5    1.301563 A    
