data_mof_unit_58832.cif
_audit_creation_date              2013-03-05T16:04:19-0500
_audit_creation_method            fapswitch 2.2
_symmetry_space_group_name_H-M    P1
_symmetry_Int_Tables_number       1
_space_group_crystal_system       triclinic
_cell_length_a                    14.968417
_cell_length_b                    14.306741
_cell_length_c                    27.673743
_cell_angle_alpha                 92.045256
_cell_angle_beta                  86.117848
_cell_angle_gamma                 91.170831
_cell_volume                      5907.98182342

loop_
_atom_site_label
_atom_site_type_symbol
_atom_site_description
_atom_site_fract_x
_atom_site_fract_y
_atom_site_fract_z
_atom_type_partial_charge
O1    O     O_R   0.367850 0.580280 0.500010 -0.607699
O2    O     O_R   0.632150 0.419720 0.499990 -0.640736
O3    O     O_R   0.632150 0.580280 0.499990 -0.632818
O4    O     O_R   0.367850 0.419720 0.500010 -0.633310
C1    C     C_R   0.327082 0.499238 0.499888 0.873379
C2    C     C_R   0.672849 0.500637 0.499726 0.876211
O5    O     O_R   0.500010 0.580260 0.428760 -0.640109
O6    O     O_R   0.499990 0.419740 0.571240 -0.605858
O7    O     O_R   0.499990 0.580260 0.571240 -0.629193
O8    O     O_R   0.500010 0.419740 0.428760 -0.627387
C3    C     C_R   0.500270 0.498636 0.406304 0.866074
C4    C     C_R   0.501347 0.501565 0.593702 0.861484
Zn1   Zn    Zn3+2 0.500000 0.607200 0.500000 0.934045
Zn2   Zn    Zn3+2 0.500000 0.392800 0.500000 0.934835
C5    C     C_R   0.436185 0.526447 0.180434 0.493642
C6    C     C_R   0.592937 0.479635 0.817991 0.489124
O9    O     O_2   0.364888 0.557770 0.208429 -0.561166
O10   O     O_2   0.659626 0.440066 0.789524 -0.564672
N1    N     N_R   0.507742 0.491489 0.201414 -0.357331
N2    N     N_R   0.523248 0.519459 0.797500 -0.357310
C7    C     C_R   0.580618 0.457788 0.174535 0.488558
C8    C     C_R   0.455820 0.562736 0.824792 0.493113
C9    C     C_R   0.547754 0.570170 0.277597 0.206241
C10   C     C_R   0.480400 0.432182 0.724153 0.205143
C11   C     C_R   0.544785 0.570073 0.328323 -0.202896
C12   C     C_R   0.475998 0.429429 0.673647 -0.206004
C13   C     C_R   0.462277 0.422234 0.328499 -0.234756
C14   C     C_R   0.545206 0.583940 0.668904 -0.223733
C15   C     C_R   0.465259 0.420791 0.278295 -0.118186
C16   C     C_R   0.550958 0.587409 0.718690 -0.118647
C17   C     C_R   0.507737 0.493841 0.252933 0.264477
C18   C     C_R   0.518671 0.512535 0.746228 0.265922
C19   C     C_R   0.512698 0.499096 0.101375 -0.051409
C20   C     C_R   0.524054 0.519836 0.897567 -0.051509
C21   C     C_R   0.437316 0.531016 0.130018 -0.021557
C22   C     C_R   0.594445 0.478621 0.868455 -0.020144
C23   C     C_R   0.365169 0.567223 0.107943 -0.140525
C24   C     C_R   0.663404 0.435468 0.890136 -0.141704
C25   C     C_R   0.584715 0.461403 0.123987 -0.018947
C26   C     C_R   0.454903 0.563734 0.875353 -0.020539
C27   C     C_R   0.502641 0.496410 0.353609 -0.070551
C28   C     C_R   0.506956 0.505354 0.646189 -0.076506
H1    H     H_    0.426928 0.366604 0.347684 0.156183
H2    H     H_    0.572350 0.641873 0.648184 0.147621
H3    H     H_    0.433713 0.363373 0.258902 0.146595
H4    H     H_    0.580504 0.648432 0.736099 0.144182
H5    H     H_    0.305829 0.590629 0.129189 0.189746
H6    H     H_    0.717877 0.402686 0.868451 0.189483
C29   C     C_R   0.449030 0.555300 0.977374 0.045007
C30   C     C_R   0.591765 0.470576 0.021838 0.045095
C31   C     C_R   0.593221 0.472937 0.970599 0.045032
C32   C     C_R   0.443920 0.545745 0.028256 0.044983
C33   C     C_R   0.522267 0.516277 0.948737 0.069555
C34   C     C_R   0.516143 0.505131 0.050271 0.069570
C35   C     C_R   0.383241 0.603014 0.953915 -0.215633
C36   C     C_R   0.663484 0.434597 0.045891 -0.214805
C37   C     C_R   0.386017 0.606574 0.903870 -0.141186
C38   C     C_R   0.659690 0.429893 0.095935 -0.141972
O11   O     O_2   0.389259 0.603152 0.802940 -0.565858
O12   O     O_2   0.649095 0.421998 0.196813 -0.568631
C39   C     C_R   0.368053 0.574161 0.058054 -0.215290
C40   C     C_R   0.662898 0.432381 0.940164 -0.214393
H7    H     H_    0.448103 0.369105 0.655306 0.169370
H8    H     H_    0.575523 0.626435 0.348639 0.153905
H9    H     H_    0.333280 0.642685 0.887600 0.189071
H10   H     H_    0.716385 0.401806 0.112590 0.189279
H11   H     H_    0.328885 0.639659 0.973129 0.143109
H12   H     H_    0.724703 0.410688 0.027322 0.142621
H13   H     H_    0.308547 0.600594 0.044018 0.143177
H14   H     H_    0.717491 0.395490 0.953593 0.142695
C41   C     C_R   0.815200 0.425695 0.477980 -0.234195
C42   C     C_R   0.184333 0.574759 0.519655 -0.236897
C43   C     C_R   0.768628 0.501275 0.499442 -0.059262
C44   C     C_R   0.231142 0.498138 0.499708 -0.065729
C45   C     C_R   0.812854 0.575969 0.521564 -0.266694
C46   C     C_R   0.186824 0.421778 0.478977 -0.260260
C47   C     C_R   0.905866 0.577435 0.521863 0.096142
C48   C     C_R   0.093758 0.420738 0.478027 0.098088
C49   C     C_R   0.953265 0.500180 0.499820 0.017039
C50   C     C_R   0.046312 0.498534 0.499404 0.018413
C51   C     C_R   0.907387 0.424295 0.478195 0.100598
C52   C     C_R   0.092176 0.575136 0.520297 0.099962
C53   C     C_R   0.952814 0.653499 0.543347 0.171537
C54   C     C_R   0.046791 0.344653 0.456547 0.168830
C55   C     C_R   0.046023 0.651328 0.541808 -0.259398
C56   C     C_R   0.953630 0.347885 0.456935 -0.259725
H15   H     H_    0.779571 0.368045 0.460905 0.139851
H16   H     H_    0.219562 0.634102 0.535089 0.154792
H17   H     H_    0.773467 0.631344 0.539118 0.166497
H18   H     H_    0.226086 0.364995 0.462762 0.156660
H19   H     H_    0.082999 0.709044 0.558010 0.144214
H20   H     H_    0.916761 0.290512 0.440364 0.143834
C57   C     C_R   0.557588 0.797878 0.467317 0.193955
C58   C     C_R   0.434671 0.199378 0.526838 0.203109
C59   C     C_R   0.452343 0.802494 0.536058 0.196048
C60   C     C_R   0.559072 0.200244 0.468129 0.188516
N3    N     N_R   0.500000 0.750030 0.500000 -0.135171
N4    N     N_R   0.500000 0.249970 0.500000 -0.134370
C61   C     C_R   0.444125 0.901144 0.532375 -0.013960
C62   C     C_R   0.560546 0.099762 0.467667 0.022343
C63   C     C_R   0.557708 0.898267 0.466193 0.021839
C64   C     C_R   0.441917 0.100793 0.531204 -0.016728
C65   C     C_R   0.500395 0.949680 0.498924 0.040821
C66   C     C_R   0.501705 0.050278 0.499597 0.040765
C67   C     C_R   0.385253 0.953405 0.564212 -0.205821
C68   C     C_R   0.618493 0.046768 0.435530 -0.204386
C69   C     C_R   0.615126 0.949310 0.433775 -0.203342
C70   C     C_R   0.385517 0.050582 0.564335 -0.206317
H21   H     H_    0.337789 0.919655 0.589493 0.158863
H22   H     H_    0.667591 0.078843 0.410721 0.154796
H23   H     H_    0.659459 0.915648 0.406466 0.156203
H24   H     H_    0.340865 0.086004 0.591057 0.160347
C71   C     C_3   0.906855 0.737753 0.568001 -0.426958
C72   C     C_3   0.868253 0.715571 0.618921 -0.840653
H25   H     H_    0.834775 0.778315 0.635858 0.247591
H26   H     H_    0.818391 0.657182 0.617988 0.258226
H27   H     H_    0.922852 0.696054 0.641687 0.267338
H28   H     H_    0.955213 0.797320 0.571378 0.206566
H29   H     H_    0.853984 0.763318 0.545807 0.198681
C73   C     C_3   0.092791 0.259550 0.432832 -0.426618
C74   C     C_3   0.133244 0.280354 0.382087 -0.838884
H30   H     H_    0.079698 0.299971 0.358649 0.267058
H31   H     H_    0.183615 0.338249 0.383191 0.257644
H32   H     H_    0.166569 0.216966 0.365803 0.247604
H33   H     H_    0.144678 0.234101 0.455756 0.192468
H34   H     H_    0.044080 0.200324 0.429346 0.206241
C75   C     C_3   0.630939 0.746597 0.436981 -0.361504
C76   C     C_3   0.722436 0.762473 0.457898 -0.881423
H35   H     H_    0.716606 0.752599 0.497548 0.263104
H36   H     H_    0.771027 0.711657 0.440707 0.254090
H37   H     H_    0.749742 0.833793 0.451462 0.250388
H38   H     H_    0.619717 0.671739 0.434957 0.266147
H39   H     H_    0.633009 0.766702 0.398579 0.162541
C77   C     C_3   0.340956 0.237501 0.538060 -0.330213
C78   C     C_3   0.327241 0.289177 0.587109 -0.827178
H40   H     H_    0.362598 0.253471 0.614997 0.236160
H41   H     H_    0.349765 0.362817 0.585155 0.280182
H42   H     H_    0.254694 0.289742 0.598586 0.231355
H43   H     H_    0.318908 0.275137 0.507432 0.214291
H44   H     H_    0.289975 0.180042 0.537749 0.160326
C79   C     C_3   0.435709 0.766204 0.586951 -0.331093
C80   C     C_3   0.345580 0.716213 0.596379 -0.821667
H45   H     H_    0.291447 0.755103 0.580903 0.228746
H46   H     H_    0.346925 0.643870 0.581442 0.280523
H47   H     H_    0.329985 0.712199 0.636068 0.242174
H48   H     H_    0.493429 0.727319 0.596922 0.216379
H49   H     H_    0.438718 0.824209 0.614576 0.168292
C81   C     C_3   0.614830 0.250020 0.428598 -0.373878
C82   C     C_3   0.574837 0.235833 0.379292 -0.847594
H50   H     H_    0.501826 0.248587 0.382948 0.263812
H51   H     H_    0.607216 0.285483 0.353255 0.259442
H52   H     H_    0.584947 0.164051 0.363882 0.249810
H53   H     H_    0.619656 0.324755 0.435616 0.266455
H54   H     H_    0.685518 0.227572 0.426752 0.160456
C83   C     C_3   0.445075 0.352523 0.755624 -0.391212
C84   C     C_3   0.400365 0.270400 0.729085 -0.894965
H55   H     H_    0.341929 0.294558 0.710531 0.261862
H56   H     H_    0.449084 0.235925 0.702461 0.262707
H57   H     H_    0.376037 0.217851 0.755718 0.261775
H58   H     H_    0.501413 0.324706 0.774598 0.227930
H59   H     H_    0.395168 0.380948 0.783617 0.216716
C85   C     C_3   0.591682 0.649349 0.248632 -0.389356
C86   C     C_3   0.630043 0.731058 0.278376 -0.896517
H60   H     H_    0.576497 0.764061 0.302581 0.261825
H61   H     H_    0.684438 0.706944 0.300047 0.259300
H62   H     H_    0.658775 0.784764 0.253510 0.261701
H63   H     H_    0.647009 0.620395 0.224168 0.226128
H64   H     H_    0.541370 0.677996 0.225667 0.218315

loop_
_geom_bond_atom_site_label_1
_geom_bond_atom_site_label_2
_geom_bond_distance
_ccdc_geom_bond_type
C63   C69   1.411909 A    
C78   H42   1.110686 S    
C61   C65   1.401752 A    
C13   C15   1.386466 A    
C53   C71   1.517680 S    
C86   H60   1.110952 S    
O3    C2    1.302555 A    
N1    C17   1.424907 S    
C76   H35   1.108684 S    
C10   C18   1.411841 A    
C72   H25   1.110475 S    
C55   H19   1.085222 S    
C78   H40   1.109594 S    
C83   H59   1.111377 S    
O5    C3    1.303061 A    
C19   C25   1.408406 A    
C44   C46   1.392784 A    
O1    C1    1.299150 A    
C84   H55   1.110868 S    
C21   C23   1.393763 A    
C54   C56   1.395489 A    
C85   C86   1.530251 S    
C32   C39   1.415284 A    
C82   H51   1.110765 S    
C77   H44   1.110378 S    
C73   H34   1.112361 S    
C68   C69   1.393417 A    
C58   N4    1.393867 A    
C62   C66   1.404107 A    
C40   H14   1.075724 S    
C78   H41   1.101650 S    
C14   C28   1.399641 A    
C1    C44   1.436185 S    
O7    Zn1   2.022244 S    
C75   H38   1.080726 S    
C74   H32   1.110492 S    
C4    C28   1.459601 S    
C58   C77   1.523752 S    
C71   H29   1.109484 S    
C38   H10   1.083599 S    
C60   N4    1.393266 A    
C64   C70   1.409534 A    
C23   H5    1.083598 S    
C24   H6    1.083604 S    
C51   C56   1.396481 A    
O3    Zn1   2.022911 S    
C10   C83   1.523403 S    
O6    C4    1.306152 A    
C9    C85   1.523504 S    
C70   H24   1.081923 S    
C9    C11   1.401537 A    
C63   C65   1.403734 A    
Zn1   N3    2.043432 S    
C43   C45   1.390773 A    
C80   H47   1.110577 S    
O2    C2    1.297121 A    
C31   C40   1.415872 A    
C81   H54   1.109368 S    
N2    C18   1.424986 S    
C60   C81   1.519243 S    
C5    C21   1.397996 A    
C42   H16   1.080555 S    
C32   C34   1.420434 A    
Zn2   N4    2.043433 S    
C47   C49   1.422123 A    
C61   C67   1.409471 A    
C67   C70   1.390102 A    
C83   C84   1.529883 S    
C86   H62   1.110429 S    
C81   C82   1.532095 S    
C7    O12   1.349964 S    
C42   C44   1.390361 A    
O8    Zn2   2.022246 S    
C82   H52   1.107134 S    
C57   C63   1.437656 A    
C8    O11   1.350084 S    
C49   C51   1.409689 A    
C45   H17   1.078912 S    
C73   H33   1.110397 S    
C36   H12   1.075771 S    
C25   C38   1.393935 A    
C14   H2    1.081408 S    
C30   C36   1.415737 A    
C71   H28   1.112298 S    
C15   H3    1.082954 S    
C31   C33   1.420979 A    
C11   H8    1.079581 S    
C9    C17   1.411590 A    
C5    N1    1.364289 A    
C12   H7    1.076807 S    
C57   C75   1.520741 S    
C13   H1    1.081754 S    
C13   C27   1.397180 A    
C72   H26   1.109560 S    
C7    C25   1.398815 A    
C54   C73   1.517643 S    
C29   C32   1.416341 A    
C8    C26   1.397929 A    
C30   C31   1.418267 A    
C48   C50   1.421816 A    
C6    O10   1.349935 S    
C6    N2    1.364465 A    
C64   C66   1.401283 A    
C45   C47   1.392549 A    
C74   H30   1.111070 S    
C79   H48   1.093131 S    
C85   H64   1.111325 S    
C50   C52   1.408704 A    
C53   C55   1.393912 A    
N2    C8    1.364316 A    
C59   C79   1.521366 S    
C35   C37   1.385471 A    
C41   H15   1.084577 S    
C49   C50   1.392702 A    
O1    Zn1   2.007467 S    
C81   H53   1.081706 S    
C11   C27   1.401420 A    
C75   C76   1.532188 S    
C76   H37   1.107240 S    
C57   N3    1.394343 A    
C77   H43   1.093155 S    
C80   H46   1.100761 S    
C73   C74   1.527952 S    
C12   C28   1.400973 A    
C2    C43   1.433006 S    
C41   C43   1.391699 A    
C71   C72   1.527901 S    
C68   H22   1.078157 S    
C39   H13   1.076274 S    
C19   C34   1.417312 A    
C5    O9    1.350082 S    
C67   H21   1.081725 S    
O6    Zn2   1.995244 S    
C26   C37   1.393818 A    
C86   H61   1.110850 S    
C83   H58   1.110781 S    
C69   H23   1.078238 S    
C16   H4    1.083023 S    
C84   H57   1.110429 S    
C75   H39   1.109106 S    
C46   C48   1.394832 A    
O4    C1    1.302136 A    
C76   H36   1.110842 S    
C35   H11   1.076343 S    
C59   N3    1.392843 A    
C77   C78   1.525786 S    
C41   C51   1.380862 A    
C52   C55   1.395924 A    
C62   C68   1.411524 A    
C84   H56   1.110823 S    
C23   C39   1.385395 A    
C14   C16   1.385319 A    
C30   C34   1.421035 A    
C29   C35   1.415220 A    
C82   H50   1.108945 S    
C6    C22   1.398826 A    
C16   C18   1.396089 A    
C10   C12   1.402795 A    
C29   C33   1.420313 A    
C60   C62   1.437782 A    
C22   C24   1.393889 A    
C19   C21   1.408597 A    
C20   C22   1.408336 A    
C36   C38   1.386206 A    
C3    C27   1.455507 S    
C59   C61   1.427079 A    
C37   H9    1.083589 S    
O4    Zn2   2.022912 S    
O2    Zn2   2.007465 S    
O7    C4    1.306519 A    
C74   H31   1.109629 S    
C72   H27   1.111049 S    
O8    C3    1.307597 A    
C79   H49   1.110413 S    
C85   H63   1.110804 S    
C48   C54   1.418308 A    
O5    Zn1   1.995247 S    
C58   C64   1.426830 A    
C20   C33   1.417213 A    
C15   C17   1.397822 A    
C65   C66   1.438441 A    
C47   C53   1.417980 A    
C80   H45   1.109946 S    
C20   C26   1.408563 A    
C56   H20   1.085123 S    
C24   C40   1.386251 A    
C79   C80   1.525086 S    
C42   C52   1.378481 A    
C46   H18   1.079112 S    
N1    C7    1.364455 A    
