data_mof_unit_7103.cif
_audit_creation_date              2012-12-11T15:29:37-0500
_audit_creation_method            fapswitch 2.2
_symmetry_space_group_name_H-M    P1
_symmetry_Int_Tables_number       1
_space_group_crystal_system       triclinic
_cell_length_a                    21.471522
_cell_length_b                    7.240486
_cell_length_c                    14.698637
_cell_angle_alpha                 90.599826
_cell_angle_beta                  74.542339
_cell_angle_gamma                 89.943188
_cell_volume                      2202.31714088

loop_
_atom_site_label
_atom_site_type_symbol
_atom_type_description
_atom_site_fract_x
_atom_site_fract_y
_atom_site_fract_z
_atom_type_partial_charge
O1    O     O_R   0.464160 0.506670 0.130070 -0.519030
O2    O     O_R   0.535840 0.006670 0.869930 -0.543037
O3    O     O_R   0.589710 0.179080 0.006710 -0.519489
O4    O     O_R   0.410290 0.679080 0.993290 -0.530211
C1    C     C_R   0.616258 0.344399 0.001867 0.733322
C2    C     C_R   0.383532 0.843963 0.999414 0.735586
O5    O     O_R   0.467940 0.177220 0.138010 -0.529059
O6    O     O_R   0.532060 0.677220 0.861990 -0.545057
O7    O     O_R   0.413200 0.002810 0.002170 -0.549001
O8    O     O_R   0.586800 0.502810 0.997830 -0.551507
C3    C     C_R   0.456094 0.346663 0.174605 0.745603
C4    C     C_R   0.543925 0.844252 0.825301 0.663088
O9    O     O_3   0.482180 0.337850 0.955280 -0.388526
O10   O     O_3   0.517820 0.837850 0.044720 -0.364890
V1    V     V_3+5 0.503310 0.064600 0.008300 1.491993
V2    V     V_3+5 0.496690 0.564600 0.991700 1.469867
C5    C     C_R   0.572497 0.845879 0.723208 -0.026436
C6    C     C_R   0.427797 0.360649 0.276568 -0.041502
C7    C     C_R   0.931125 0.871665 0.279016 -0.094579
C8    C     C_R   0.070887 0.359348 0.722162 -0.100741
C9    C     C_R   0.562976 0.791084 0.565232 -0.148604
C10   C     C_R   0.438394 0.431985 0.432499 -0.156339
C11   C     C_R   0.534387 0.808774 0.661767 -0.170958
C12   C     C_R   0.466503 0.403918 0.336401 -0.148223
C13   C     C_R   0.639437 0.863812 0.688182 -0.202826
C14   C     C_R   0.360790 0.347550 0.312624 -0.155457
C15   C     C_R   0.670105 0.841781 0.590535 0.087027
C16   C     C_R   0.330627 0.383133 0.409304 0.085280
C17   C     C_R   0.630271 0.805954 0.529266 0.123843
C18   C     C_R   0.371026 0.422132 0.469347 0.129112
C19   C     C_R   0.738650 0.853002 0.551967 0.040740
C20   C     C_R   0.262044 0.380021 0.448218 0.055080
C21   C     C_R   0.766096 0.830500 0.452289 0.057670
C22   C     C_R   0.235224 0.403452 0.547879 0.061226
C23   C     C_R   0.724037 0.795883 0.394684 -0.127096
C24   C     C_R   0.277746 0.440629 0.604499 -0.141299
C25   C     C_R   0.657699 0.783648 0.432632 -0.162475
C26   C     C_R   0.344069 0.451501 0.565640 -0.186987
C27   C     C_R   0.780640 0.886725 0.609711 -0.151258
C28   C     C_R   0.219372 0.356435 0.390630 -0.143149
C29   C     C_R   0.846559 0.905938 0.571501 -0.104295
C30   C     C_R   0.153267 0.343129 0.429226 -0.168952
C31   C     C_R   0.873658 0.891587 0.474489 0.096476
C32   C     C_R   0.126889 0.350092 0.526565 0.118520
C33   C     C_R   0.834521 0.848545 0.413474 0.094940
C34   C     C_R   0.166892 0.385604 0.587442 0.084779
C35   C     C_R   0.939809 0.924627 0.438370 -0.178195
C36   C     C_R   0.060754 0.315951 0.563239 -0.171490
C37   C     C_R   0.968792 0.922657 0.341074 -0.033244
C38   C     C_R   0.032917 0.311379 0.660693 -0.021774
C39   C     C_R   0.865473 0.830168 0.315838 -0.152106
C40   C     C_R   0.136799 0.397178 0.685578 -0.175570
H1    H     H_    0.627453 0.756607 0.385539 0.144689
H2    H     H_    0.374701 0.481547 0.611832 0.124055
H3    H     H_    0.839614 0.788990 0.265698 0.089021
H4    H     H_    0.163354 0.430180 0.736264 0.132848
H5    H     H_    0.876597 0.935319 0.618604 0.158521
H6    H     H_    0.122528 0.323326 0.382198 0.146247
H7    H     H_    0.532504 0.762696 0.518659 0.118450
H8    H     H_    0.469324 0.463559 0.478018 0.117771
H9    H     H_    0.482630 0.791509 0.688739 0.104701
H10   H     H_    0.518370 0.416669 0.308589 0.144734
H11   H     H_    0.665889 0.889894 0.739746 0.094931
H12   H     H_    0.333874 0.310051 0.263026 0.132536
H13   H     H_    0.740602 0.778715 0.319277 0.132614
H14   H     H_    0.261464 0.463372 0.679595 0.143239
H15   H     H_    0.764327 0.901451 0.685254 0.139142
H16   H     H_    0.235343 0.348301 0.314825 0.172011
H17   H     H_    0.968390 0.960868 0.486643 0.158237
H18   H     H_    0.031422 0.282137 0.515622 0.148290
C41   C     C_3   0.205063 0.666611 0.038900 -0.243709
C42   C     C_3   0.769656 0.335608 0.100901 -0.229261
H19   H     H_    0.201315 0.564409 0.983234 0.100901
H20   H     H_    0.778841 0.456069 0.143420 0.060337
C43   C     C_3   0.277691 0.663597 0.041094 0.214755
C44   C     C_3   0.695750 0.342993 0.104117 0.200356
H21   H     H_    0.301643 0.548874 0.993398 0.098157
H22   H     H_    0.675451 0.473323 0.141291 0.093578
H23   H     H_    0.174991 0.998911 0.143248 0.214526
H24   H     H_    0.819038 0.072222 0.945915 0.198749
H25   H     H_    0.282006 0.997407 0.139025 0.191886
H26   H     H_    0.708472 0.055332 0.976068 0.211043
C45   C     C_3   0.203887 0.014011 0.069372 -0.251961
C46   C     C_3   0.799058 0.207106 0.931892 -0.294416
C47   C     C_3   0.231439 0.887778 0.902644 0.262694
C48   C     C_3   0.790201 0.548953 0.960964 0.254482
C49   C     C_3   0.186797 0.860206 0.004925 -0.099617
C50   C     C_3   0.812862 0.363756 0.997176 -0.091674
H27   H     H_    0.221641 0.775395 0.856129 0.091317
H28   H     H_    0.793844 0.662573 0.010746 0.121851
C51   C     C_3   0.311997 0.848805 0.002612 -0.014120
C52   C     C_3   0.687242 0.351932 0.001994 -0.025081
C53   C     C_3   0.276507 0.010081 0.066220 -0.309625
C54   C     C_3   0.725638 0.189367 0.942281 -0.300868
C55   C     C_3   0.304132 0.878023 0.901823 -0.434668
C56   C     C_3   0.718717 0.535272 0.957519 -0.421579
H29   H     H_    0.327885 0.762289 0.854809 0.110570
H30   H     H_    0.691870 0.656661 0.995992 0.152314
H31   H     H_    0.329721 0.006325 0.871987 0.200842
H32   H     H_    0.715104 0.542782 0.883496 0.200610
H33   H     H_    0.191875 0.152472 0.046791 0.221879
H34   H     H_    0.823417 0.239273 0.857303 0.201977
H35   H     H_    0.298521 0.144299 0.038598 0.169454
H36   H     H_    0.716940 0.186322 0.870927 0.130740
O11   O     O_R   0.913210 0.208550 0.002110 -0.541553
O12   O     O_R   0.086790 0.708550 0.997890 -0.552847
O13   O     O_R   0.032060 0.539960 0.861980 -0.538887
O14   O     O_R   0.967940 0.039960 0.138020 -0.513037
C57   C     C_R   0.043492 0.371281 0.824977 0.753471
C58   C     C_R   0.957011 0.873747 0.175390 0.724670
O15   O     O_R   0.910290 0.538020 0.993280 -0.531396
O16   O     O_R   0.089710 0.038020 0.006720 -0.498363
O17   O     O_R   0.964160 0.712340 0.130090 -0.551587
O18   O     O_R   0.035840 0.212340 0.869910 -0.507822
C59   C     C_R   0.884353 0.370052 0.996078 0.704082
C60   C     C_R   0.115657 0.869464 0.004056 0.731823
O19   O     O_3   0.017820 0.379210 0.044690 -0.358314
O20   O     O_3   0.982180 0.879210 0.955310 -0.366555
V3    V     V_3+5 0.996690 0.652500 0.991710 1.549181
V4    V     V_3+5 0.003310 0.152500 0.008290 1.636843
C61   C     C_2   0.158499 0.598865 0.129529 0.863425
O21   O     O_2   0.128374 0.456090 0.128134 -0.552988
O22   O     O_R   0.150647 0.695547 0.214540 -0.640088
H37   H     H_    0.119756 0.631714 0.269449 0.304728
C62   C     C_2   0.788536 0.164695 0.146691 0.888233
O23   O     O_2   0.810793 0.181634 0.214725 -0.571383
O24   O     O_R   0.780116 0.988606 0.111984 -0.655458
H38   H     H_    0.794796 0.886408 0.147980 0.259430
Cl1   Cl    Cl    0.290270 0.608693 0.154424 -0.701765
Cl2   Cl    Cl    0.647598 0.164395 0.173953 -0.669443
Cl3   Cl    Cl    0.215260 0.099991 0.850515 -0.716676
Cl4   Cl    Cl    0.840011 0.616252 0.847223 -0.673054
C63   C     C_2   0.037981 0.975485 0.308506 0.724632
O25   O     O_2   0.060030 0.040843 0.230377 -0.559784
O26   O     O_R   0.077882 0.955308 0.369111 -0.666186
H39   H     H_    0.124123 0.993604 0.338950 0.314003
C64   C     C_2   0.965760 0.244155 0.695343 0.751621
O27   O     O_2   0.924508 0.293959 0.657257 -0.542803
O28   O     O_R   0.950837 0.113038 0.766894 -0.651806
H40   H     H_    0.906304 0.058199 0.775629 0.296386

loop_
_geom_bond_atom_site_label_1
_geom_bond_atom_site_label_2
_ccdc_geom_bond_type
C45   C49   S    
C3    C6    S    
H26   C54   S    
O12   V3    S    
C15   C17   A    
C21   C33   A    
O14   V4    S    
O1    C3    A    
C42   C44   S    
O2    C4    A    
C53   H35   S    
C2    O7    A    
C38   C64   S    
O22   H37   S    
C27   C29   A    
O5    C3    A    
C64   O28   S    
C5    C11   A    
C6    C12   A    
C23   C25   A    
C44   H22   S    
C9    H7    S    
C10   H8    S    
C24   H14   S    
C23   H13   S    
C55   H31   S    
C2    C51   S    
C45   C53   S    
C34   C40   A    
C52   C56   S    
C46   H34   S    
C18   C26   A    
O15   V3    S    
C13   H11   S    
C14   H12   S    
O20   V3    S    
C35   H17   S    
C8    C38   A    
C43   Cl1   S    
O17   V3    S    
C44   Cl2   S    
C56   H30   S    
C16   C18   A    
C6    C14   A    
C4    C5    S    
C19   C21   A    
O11   V4    S    
C22   C34   A    
C45   H33   S    
C29   C31   A    
C22   C24   A    
H24   C46   S    
C25   H1    S    
C36   C38   A    
C54   H36   S    
O6    V2    S    
C63   O26   S    
O13   C57   A    
C30   H6    S    
C30   C32   A    
O13   V3    S    
C42   C50   S    
C32   C34   A    
C47   C49   S    
C41   C43   S    
C48   C50   S    
C15   C19   A    
O26   H39   S    
C42   H20   S    
C48   H28   S    
O19   V4    S    
C41   H19   S    
C47   H27   S    
C9    C17   A    
O12   C60   A    
C20   C22   A    
O4    V2    S    
C51   C53   S    
H25   C53   S    
C7    C37   A    
C26   H2    S    
C16   C20   A    
O6    C4    A    
C52   C54   S    
C61   O21   D    
O1    V2    S    
C46   C54   S    
O2    V1    S    
C43   H21   S    
C58   O17   A    
C49   C60   S    
C48   C56   S    
C57   O18   A    
C44   C52   S    
C41   C49   S    
O4    C2    A    
C9    C11   A    
C63   O25   D    
C10   C12   A    
C13   C15   A    
O24   H38   S    
O16   C60   A    
O3    V1    S    
O16   V4    S    
C7    C58   S    
C37   C63   S    
C12   H10   S    
C10   C18   A    
C27   H15   S    
C41   C61   S    
C46   C50   S    
C36   H18   S    
C28   C30   A    
O3    C1    A    
O28   H40   S    
C55   H29   S    
C43   C51   S    
C35   C37   A    
C64   O27   D    
C14   C16   A    
O11   C59   A    
C42   C62   S    
C5    C13   A    
C50   C59   S    
C24   C26   A    
O7    V1    S    
C29   H5    S    
C1    O8    A    
C8    C40   A    
C32   C36   A    
O8    V2    S    
C47   Cl3   S    
H23   C45   S    
C47   C55   S    
C48   Cl4   S    
C62   O23   D    
C19   C27   A    
C56   H32   S    
O5    V1    S    
C21   C23   A    
O14   C58   A    
C39   H3    S    
C20   C28   A    
C61   O22   S    
C1    C52   S    
C51   C55   S    
C8    C57   S    
C7    C39   A    
C11   H9    S    
C28   H16   S    
O9    V2    S    
C17   C25   A    
C62   O24   S    
C33   C39   A    
O10   V1    S    
O15   C59   A    
C31   C35   A    
C31   C33   A    
O18   V4    S    
C40   H4    S    
