data_mof_unit_66583.cif
_audit_creation_date              2012-12-11T16:32:22-0500
_audit_creation_method            fapswitch 2.2
_symmetry_space_group_name_H-M    P1
_symmetry_Int_Tables_number       1
_space_group_crystal_system       triclinic
_cell_length_a                    6.959944
_cell_length_b                    14.224114
_cell_length_c                    16.350804
_cell_angle_alpha                 90.369161
_cell_angle_beta                  89.964311
_cell_angle_gamma                 89.117571
_cell_volume                      1618.48785587

loop_
_atom_site_label
_atom_site_type_symbol
_atom_type_description
_atom_site_fract_x
_atom_site_fract_y
_atom_site_fract_z
_atom_type_partial_charge
O1    O     O_R   0.361630 0.167340 0.164570 -0.531652
O2    O     O_R   0.638370 0.832660 0.835430 -0.528808
O3    O     O_R   0.690860 0.157560 0.338690 -0.546197
O4    O     O_R   0.309140 0.842440 0.661310 -0.542981
O5    O     O_R   0.861260 0.336420 0.339380 -0.535597
O6    O     O_R   0.138740 0.663580 0.660620 -0.533832
C1    C     C_R   0.523033 0.136956 0.369686 0.658456
C2    C     C_R   0.477566 0.865382 0.631985 0.659423
O7    O     O_R   0.691330 0.156310 0.165190 -0.525177
O8    O     O_R   0.308670 0.843690 0.834810 -0.526599
O9    O     O_R   0.861730 0.335160 0.164640 -0.530379
O10   O     O_R   0.138270 0.664840 0.835360 -0.538276
C3    C     C_R   0.523159 0.133536 0.136751 0.695114
C4    C     C_R   0.476968 0.865411 0.863961 0.695945
O11   O     O_R   0.361150 0.168600 0.339320 -0.543973
O12   O     O_R   0.638850 0.831400 0.660680 -0.544934
O13   O     O_3   0.527950 0.310560 0.252000 -0.352480
O14   O     O_3   0.472050 0.689440 0.748000 -0.353289
V1    V     V_3+5 0.802770 0.240990 0.251980 1.505658
V2    V     V_3+5 0.197230 0.759010 0.748020 1.487601
O15   O     O_R   0.191450 0.346190 0.165260 -0.538257
O16   O     O_R   0.808550 0.653810 0.834740 -0.531051
C5    C     C_R   0.021368 0.373873 0.141439 0.709419
C6    C     C_R   0.981159 0.624419 0.858001 0.696188
O17   O     O_R   0.190980 0.347440 0.338770 -0.536404
O18   O     O_R   0.809020 0.652560 0.661230 -0.537921
C7    C     C_R   0.019683 0.373415 0.363840 0.722438
C8    C     C_R   0.977979 0.628441 0.633451 0.690553
V3    V     V_3+5 0.302780 0.262760 0.251980 1.501963
V4    V     V_3+5 0.697220 0.737240 0.748020 1.490507
O19   O     O_3   0.027730 0.193200 0.251960 -0.365980
O20   O     O_3   0.972270 0.806800 0.748040 -0.361977
C9    C     C_3   0.918642 0.419307 0.513880 -0.145263
C10   C     C_3   0.063262 0.586643 0.477318 -0.141096
C11   C     C_3   0.093589 0.463740 0.555676 -0.061647
C12   C     C_3   0.889206 0.539639 0.435778 -0.057401
H1    H     H_    0.859236 0.349448 0.526055 0.164234
H2    H     H_    0.116580 0.657311 0.464134 0.180098
C13   C     C_3   0.984496 0.558716 0.562223 -0.069431
C14   C     C_3   0.002112 0.445894 0.430805 -0.056579
C15   C     C_3   0.808066 0.514192 0.520261 -0.175098
C16   C     C_3   0.176563 0.491207 0.472017 -0.167090
H3    H     H_    0.656348 0.524162 0.539668 0.128405
H4    H     H_    0.327874 0.484460 0.451002 0.137821
C17   C     C_R   0.915712 0.694270 0.026799 -0.091364
C18   C     C_R   0.080555 0.301138 0.976102 -0.092242
C19   C     C_R   0.880381 0.725811 0.105848 -0.201847
C20   C     C_R   0.158726 0.268925 0.903644 -0.225452
C21   C     C_R   0.946140 0.674599 0.172200 0.002925
C22   C     C_R   0.222460 0.330671 0.846051 0.005337
C23   C     C_R   0.016554 0.581790 0.158811 -0.107830
C24   C     C_R   0.176582 0.427574 0.853521 -0.104629
C25   C     C_R   0.994696 0.537811 0.080600 0.009818
C26   C     C_R   0.073189 0.463854 0.923187 0.004543
C27   C     C_R   0.965600 0.597343 0.011144 0.038381
C28   C     C_R   0.050007 0.400360 0.990368 0.032844
C29   C     C_R   0.015145 0.438167 0.069730 -0.163124
C30   C     C_R   0.002373 0.560125 0.930829 -0.172185
H5    H     H_    0.833706 0.798356 0.114971 0.175340
H6    H     H_    0.187069 0.194048 0.895098 0.159546
C31   C     C_3   0.326986 0.017645 0.468697 -0.152781
C32   C     C_3   0.675747 0.987821 0.535617 -0.162170
C33   C     C_3   0.438516 0.923181 0.471664 0.004051
C34   C     C_3   0.565119 0.082787 0.532732 0.009674
H7    H     H_    0.181657 0.027794 0.441849 0.116852
H8    H     H_    0.821020 0.977009 0.562353 0.120155
C35   C     C_3   0.488851 0.938300 0.562415 -0.064430
C36   C     C_3   0.513865 0.067223 0.441713 -0.053682
C37   C     C_3   0.379041 0.033967 0.560544 -0.174578
C38   C     C_3   0.623904 0.971844 0.444016 -0.164281
H9    H     H_    0.276778 0.060645 0.607662 0.134673
H10   H     H_    0.724650 0.945380 0.396476 0.116883
H11   H     H_    0.358730 0.820189 0.237816 0.169349
H12   H     H_    0.743292 0.163703 0.770829 0.170838
C39   C     C_R   0.619647 0.184823 0.970741 -0.165172
C40   C     C_R   0.402374 0.810289 0.031415 -0.146448
C41   C     C_R   0.686494 0.209590 0.893753 -0.108820
C42   C     C_R   0.372353 0.780408 0.111269 -0.118001
C43   C     C_R   0.690331 0.144010 0.830440 -0.085622
C44   C     C_R   0.382307 0.843932 0.175995 -0.076209
C45   C     C_R   0.619326 0.054271 0.842654 -0.137803
C46   C     C_R   0.424921 0.937769 0.161604 -0.120657
C47   C     C_R   0.555280 0.026115 0.920745 0.073560
C48   C     C_R   0.460497 0.969913 0.081430 0.066007
C49   C     C_R   0.562154 0.092005 0.986908 0.070672
C50   C     C_R   0.447503 0.904823 0.014736 0.066476
C51   C     C_R   0.488208 0.933756 0.933731 -0.157619
C52   C     C_R   0.513953 0.064351 0.067421 -0.155757
H13   H     H_    0.618869 0.238594 0.017860 0.113268
H14   H     H_    0.393866 0.758006 0.983230 0.110143
H15   H     H_    0.734913 0.280383 0.883072 0.164899
H16   H     H_    0.342502 0.707326 0.122955 0.134655
H17   H     H_    0.618188 0.007132 0.790489 0.102307
H18   H     H_    0.433611 0.984209 0.214125 0.095498
C53   C     C_2   0.184637 0.401250 0.616993 0.802742
O21   O     O_2   0.083422 0.368640 0.670322 -0.535035
O22   O     O_R   0.376504 0.372310 0.610269 -0.615760
H19   H     H_    0.444621 0.399148 0.561330 0.254777
C54   C     C_2   0.759104 0.579631 0.371535 0.833281
O23   O     O_2   0.726318 0.534646 0.309465 -0.537477
O24   O     O_R   0.672560 0.667789 0.382476 -0.622713
H20   H     H_    0.711770 0.699025 0.435672 0.251439
C55   C     C_2   0.346065 0.289412 0.780894 0.869750
O25   O     O_2   0.494767 0.327783 0.760917 -0.532287
O26   O     O_R   0.295557 0.203702 0.745155 -0.658202
H21   H     H_    0.392560 0.180750 0.703276 0.297000
C56   C     C_2   0.963313 0.726473 0.251319 0.791557
O27   O     O_2   0.057039 0.693643 0.307432 -0.563163
O28   O     O_R   0.875078 0.814809 0.261379 -0.665760
H22   H     H_    0.904931 0.844058 0.316460 0.285534
C57   C     C_1   0.937130 0.770753 0.970179 0.297382
N1    N     N_1   0.958323 0.834442 0.927706 -0.295353
C58   C     C_1   0.042518 0.225549 0.031960 0.298521
N2    N     N_1   0.015538 0.162226 0.074168 -0.294892
C59   C     C_1   0.155516 0.543997 0.216106 0.324541
N3    N     N_1   0.270567 0.516458 0.261407 -0.267500
C60   C     C_1   0.262060 0.485883 0.793292 0.346630
N4    N     N_1   0.337715 0.526967 0.742452 -0.281680
C61   C     C_1   0.376485 0.836840 0.432773 0.246901
N5    N     N_1   0.330243 0.768561 0.400656 -0.285015
C62   C     C_1   0.639649 0.166523 0.573120 0.235212
N6    N     N_1   0.698849 0.231340 0.607133 -0.290877

loop_
_geom_bond_atom_site_label_1
_geom_bond_atom_site_label_2
_ccdc_geom_bond_type
C47   C51   A    
O24   H20   S    
C46   H18   S    
O11   V3    S    
O13   V3    S    
C25   C27   A    
C57   N1    T    
C10   C16   S    
O4    C2    A    
V1    O19   S    
O22   H19   S    
C19   C21   A    
O9    V1    S    
C32   C35   S    
C34   C36   S    
C40   C42   A    
C4    C51   S    
O3    C1    A    
V2    O20   S    
C42   C44   A    
O12   V4    S    
C59   N3    T    
C33   C61   S    
C28   C29   A    
C32   C38   S    
C37   H9    S    
O7    V1    S    
C17   C19   A    
C31   C33   S    
C11   C16   S    
O7    C3    A    
C32   C34   S    
C9    C11   S    
C1    C36   S    
O5    C7    A    
C39   C49   A    
O6    C8    A    
C53   O21   D    
O8    V2    S    
C21   C23   A    
C22   C24   A    
C56   O27   D    
O3    V1    S    
O14   V4    S    
C21   C56   S    
C10   C12   S    
C24   C60   S    
C14   C16   S    
C22   C55   S    
C2    O12   A    
C15   H3    S    
C12   C15   S    
C16   H4    S    
C45   C47   A    
C24   C26   A    
C20   H6    S    
C18   C20   A    
C41   C43   A    
O17   V3    S    
C33   C35   S    
C9    C14   S    
C32   H8    S    
C10   C13   S    
C12   C14   S    
C13   C15   S    
O8    C4    A    
C43   C45   A    
C25   C29   A    
C50   C51   A    
C1    O11   A    
C8    C13   S    
C42   H16   S    
O15   V3    S    
C23   C59   S    
C23   C25   A    
C11   C13   S    
C45   H17   S    
C54   O23   D    
C33   C38   S    
C7    C14   S    
O10   V2    S    
O1    V3    S    
C55   O26   S    
C34   C37   S    
C20   C22   A    
C39   C41   A    
C62   N6    T    
C44   C46   A    
C54   O24   S    
O18   V4    S    
C46   C48   A    
H12   C43   S    
O15   C5    A    
O16   C6    A    
O1    C3    A    
C40   C50   A    
C58   N2    T    
C26   C30   A    
C49   C52   A    
C31   C37   S    
C5    C29   S    
C41   H15   S    
O16   V4    S    
C18   C58   S    
C47   C49   A    
C10   H2    S    
C48   C52   A    
C48   C50   A    
C61   N5    T    
C53   O22   S    
C26   C28   A    
O5    V1    S    
C11   C53   S    
O17   C7    A    
O6    V2    S    
O26   H21   S    
O10   C6    A    
O18   C8    A    
O2    V4    S    
C9    C15   S    
V3    O19   S    
O28   H22   S    
V4    O20   S    
C31   C36   S    
C56   O28   S    
C3    C52   S    
O9    C5    A    
O13   V1    S    
H11   C44   S    
C12   C54   S    
O14   V2    S    
O2    C4    A    
C9    H1    S    
C39   H13   S    
C19   H5    S    
O4    V2    S    
C31   H7    S    
C17   C27   A    
C2    C35   S    
C6    C30   S    
C27   C30   A    
C18   C28   A    
C55   O25   D    
C36   C38   S    
C38   H10   S    
C35   C37   S    
C60   N4    T    
C34   C62   S    
C40   H14   S    
C17   C57   S    
