data_mof_unit_42679.cif
_audit_creation_date              2013-03-05T17:00:58-0500
_audit_creation_method            fapswitch 2.2
_symmetry_space_group_name_H-M    P1
_symmetry_Int_Tables_number       1
_space_group_crystal_system       triclinic
_cell_length_a                    15.586494
_cell_length_b                    16.185476
_cell_length_c                    16.760268
_cell_angle_alpha                 90.301553
_cell_angle_beta                  89.744462
_cell_angle_gamma                 110.407332
_cell_volume                      3962.75071367

loop_
_atom_site_label
_atom_site_type_symbol
_atom_site_description
_atom_site_fract_x
_atom_site_fract_y
_atom_site_fract_z
_atom_type_partial_charge
O1    O     O_R   0.503890 0.423710 0.387290 -0.603290
O2    O     O_R   0.496110 0.576290 0.612710 -0.636873
O3    O     O_R   0.496910 0.560910 0.381140 -0.568341
O4    O     O_R   0.503090 0.439090 0.618860 -0.539208
C1    C     C_R   0.501358 0.491119 0.347101 0.974353
C2    C     C_R   0.498540 0.508785 0.652692 0.940779
O5    O     O_R   0.373240 0.392210 0.504830 -0.535891
O6    O     O_R   0.626760 0.607790 0.495170 -0.533271
O7    O     O_R   0.366260 0.529410 0.498680 -0.601276
O8    O     O_R   0.633740 0.470590 0.501320 -0.632526
C3    C     C_R   0.326484 0.444302 0.502637 0.909836
C4    C     C_R   0.673657 0.555375 0.495852 0.892925
Zn1   Zn    Zn3+2 0.504660 0.408390 0.504100 1.055138
Zn2   Zn    Zn3+2 0.495340 0.591610 0.495900 1.036306
C5    C     C_R   0.226042 0.407506 0.502210 -0.190954
C6    C     C_R   0.774375 0.589942 0.492093 -0.179772
C7    C     C_R   0.082300 0.295139 0.467654 -0.229255
C8    C     C_R   0.921875 0.702132 0.515859 -0.216645
C9    C     C_R   0.175862 0.318261 0.485915 0.463270
C10   C     C_R   0.828514 0.679894 0.497965 0.459045
C11   C     C_R   0.180270 0.466469 0.514330 -0.190890
C12   C     C_R   0.817589 0.527805 0.485708 -0.160748
C13   C     C_R   0.085886 0.442131 0.504477 0.061321
C14   C     C_R   0.911792 0.550667 0.491665 0.092514
C15   C     C_R   0.038181 0.357732 0.472602 -0.052409
C16   C     C_R   0.962365 0.636884 0.518259 -0.111969
C17   C     C_R   0.041481 0.504129 0.515847 -0.149737
C18   C     C_R   0.953890 0.486352 0.481657 -0.083822
C19   C     C_R   0.911650 0.406466 0.437240 0.388420
C20   C     C_R   0.082618 0.584649 0.559272 0.422077
C21   C     C_R   0.951710 0.340264 0.438072 0.229084
C22   C     C_R   0.048829 0.653773 0.552176 0.260490
H1    H     H_    0.776607 0.459318 0.483944 0.217246
H2    H     H_    0.221050 0.534257 0.524739 0.261321
H3    H     H_    0.045735 0.229395 0.445658 0.193932
H4    H     H_    0.961179 0.770024 0.530294 0.193837
C23   C     C_R   0.495405 0.487282 0.260855 -0.211440
C24   C     C_R   0.499227 0.508661 0.738835 -0.248258
C25   C     C_R   0.544503 0.561419 0.214981 0.352753
C26   C     C_R   0.440262 0.434008 0.778945 0.385654
C27   C     C_R   0.533971 0.557694 0.131906 0.156314
C28   C     C_R   0.459238 0.418492 0.857804 0.194170
C29   C     C_R   0.469387 0.482128 0.096628 0.076484
C30   C     C_R   0.531844 0.482828 0.898069 0.066377
C31   C     C_R   0.414117 0.411997 0.143789 0.289102
C32   C     C_R   0.591382 0.556382 0.857285 0.317271
C33   C     C_R   0.429923 0.414232 0.225615 -0.364227
C34   C     C_R   0.573524 0.569225 0.777882 -0.353363
N1    N     N_2   0.462585 0.474899 0.013268 -0.074216
N2    N     N_2   0.537317 0.482018 0.981704 -0.050311
H5    H     H_    0.387422 0.361244 0.262821 0.223447
H6    H     H_    0.621250 0.622938 0.744916 0.194908
N3    N     N_R   0.489120 0.713640 0.490430 -0.182074
N4    N     N_R   0.510880 0.286360 0.509570 -0.181148
C35   C     C_R   0.556758 0.781217 0.527354 0.508095
C36   C     C_R   0.460046 0.223286 0.457077 0.580180
C37   C     C_R   0.557132 0.869060 0.523091 -0.393850
C38   C     C_R   0.465285 0.136919 0.460357 -0.426949
C39   C     C_R   0.484390 0.886689 0.486611 0.238394
C40   C     C_R   0.524132 0.117426 0.514980 0.250136
C41   C     C_R   0.415020 0.816336 0.452708 -0.294336
C42   C     C_R   0.575240 0.184409 0.566167 -0.329936
C43   C     C_R   0.417676 0.730516 0.453961 0.343231
C44   C     C_R   0.567159 0.267940 0.563834 0.345147
N5    N     N_2   0.477768 0.972698 0.480555 -0.134116
N6    N     N_2   0.533512 0.032317 0.521259 -0.125266
H7    H     H_    0.425094 0.084856 0.421370 0.181165
H8    H     H_    0.614549 0.922887 0.546566 0.187050
H9    H     H_    0.358675 0.828670 0.423702 0.209996
H10   H     H_    0.620361 0.171257 0.609341 0.202328
N7    N     N_R   0.912269 0.260974 0.392629 0.178720
O9    O     O_R   0.867957 0.187341 0.428711 -0.434554
O10   O     O_R   0.929638 0.260426 0.316676 -0.327461
N8    N     N_R   0.097933 0.737039 0.589318 0.221278
O11   O     O_R   0.185172 0.775045 0.575912 -0.319653
O12   O     O_R   0.059759 0.767066 0.646282 -0.379113
O13   O     O_3   0.403298 0.247982 0.405293 -0.564689
C45   C     C_3   0.368582 0.191242 0.339328 0.113470
H11   H     H_    0.317850 0.214445 0.309392 0.217331
H12   H     H_    0.328288 0.122745 0.357135 0.125977
C46   C     C_3   0.443051 0.195615 0.277903 -0.823144
H13   H     H_    0.490988 0.164438 0.300839 0.234850
H14   H     H_    0.410901 0.160073 0.222805 0.273675
H15   H     H_    0.482516 0.265190 0.262620 0.271924
O14   O     O_3   0.630112 0.764328 0.560158 -0.545610
C47   C     C_3   0.638625 0.786234 0.642178 0.091529
H16   H     H_    0.581979 0.737941 0.676256 0.161806
H17   H     H_    0.638114 0.853541 0.654818 0.133088
C48   C     C_3   0.729687 0.783537 0.671912 -0.664039
H18   H     H_    0.786965 0.834706 0.641159 0.261434
H19   H     H_    0.735805 0.796778 0.737041 0.240784
H20   H     H_    0.734846 0.717925 0.659726 0.258524
N9    N     N_R   0.343204 0.662124 0.417171 0.223849
O15   O     O_R   0.260384 0.662966 0.424953 -0.384582
O16   O     O_R   0.359038 0.613638 0.361133 -0.389933
N10   N     N_R   0.616886 0.332653 0.620645 0.240066
O17   O     O_R   0.581472 0.332109 0.691133 -0.338400
O18   O     O_R   0.704938 0.369878 0.612013 -0.428680
O19   O     O_3   0.789233 0.744454 0.497166 -0.568577
C49   C     C_3   0.823759 0.801103 0.431453 0.106645
H21   H     H_    0.791649 0.767420 0.375515 0.173297
H22   H     H_    0.899441 0.821821 0.424742 0.131548
C50   C     C_3   0.801694 0.884949 0.442396 -0.736714
H23   H     H_    0.832526 0.918656 0.498652 0.255112
H24   H     H_    0.829959 0.930136 0.391574 0.224921
H25   H     H_    0.726742 0.869492 0.444669 0.264985
O20   O     O_3   0.221251 0.258112 0.479121 -0.573739
C51   C     C_3   0.169802 0.175614 0.513191 0.057482
H26   H     H_    0.124611 0.132493 0.467127 0.165581
H27   H     H_    0.127141 0.181914 0.564926 0.135189
C52   C     C_3   0.234491 0.130845 0.543271 -0.706508
H28   H     H_    0.285865 0.175513 0.584358 0.267922
H29   H     H_    0.195058 0.069631 0.575714 0.225782
H30   H     H_    0.270187 0.112942 0.492391 0.242202
O21   O     O_3   0.846433 0.404236 0.379533 -0.583486
C53   C     C_3   0.764281 0.330709 0.388067 0.110831
H31   H     H_    0.745938 0.313655 0.451759 0.137791
H32   H     H_    0.768836 0.272250 0.356401 0.226058
C54   C     C_3   0.686577 0.351075 0.347768 -0.760043
H33   H     H_    0.698527 0.357358 0.282343 0.272309
H34   H     H_    0.620898 0.296862 0.359199 0.205172
H35   H     H_    0.681687 0.413589 0.370560 0.262099
O22   O     O_3   0.153271 0.596424 0.612862 -0.590108
C55   C     C_3   0.117236 0.550425 0.683745 0.093066
H36   H     H_    0.097154 0.478120 0.673968 0.137441
H37   H     H_    0.056749 0.565694 0.705825 0.170627
C56   C     C_3   0.190384 0.578063 0.748040 -0.722776
H38   H     H_    0.206984 0.648904 0.762801 0.285013
H39   H     H_    0.165302 0.538295 0.802671 0.214796
H40   H     H_    0.253495 0.567924 0.726732 0.229223
O23   O     O_3   0.370386 0.370707 0.738547 -0.547169
C57   C     C_3   0.296886 0.401766 0.728866 0.117051
H41   H     H_    0.313890 0.454258 0.682809 0.100226
H42   H     H_    0.278919 0.427690 0.785959 0.157285
C58   C     C_3   0.213212 0.326067 0.701089 -0.737655
H43   H     H_    0.156578 0.350476 0.687582 0.188896
H44   H     H_    0.230638 0.296344 0.646547 0.256810
H45   H     H_    0.190513 0.274937 0.748166 0.288339
O24   O     O_3   0.604340 0.636153 0.251778 -0.582113
C59   C     C_3   0.565461 0.703296 0.251923 0.178699
H46   H     H_    0.492106 0.677931 0.269678 0.177456
H47   H     H_    0.571025 0.734130 0.192235 0.190156
C60   C     C_3   0.616673 0.774761 0.310862 -0.799707
H48   H     H_    0.687627 0.809058 0.289315 0.262563
H49   H     H_    0.581704 0.823641 0.317154 0.209802
H50   H     H_    0.618743 0.744921 0.369914 0.273191
N11   N     N_R   0.407358 0.336941 0.896594 0.271457
O25   O     O_R   0.447259 0.300762 0.946539 -0.306926
O26   O     O_R   0.321413 0.296229 0.879884 -0.289652
N12   N     N_R   0.587453 0.630811 0.083543 0.231950
O27   O     O_R   0.548431 0.661094 0.028026 -0.362088
O28   O     O_R   0.673908 0.671342 0.098516 -0.271582
N13   N     N_R   0.342378 0.338509 0.109250 0.262253
O29   O     O_R   0.296774 0.349958 0.048035 -0.293449
O30   O     O_R   0.314852 0.262194 0.144431 -0.369827
N14   N     N_R   0.670542 0.617554 0.895876 0.265751
O31   O     O_R   0.714059 0.590358 0.949960 -0.287892
O32   O     O_R   0.704986 0.698763 0.871611 -0.353145

loop_
_geom_bond_atom_site_label_1
_geom_bond_atom_site_label_2
_geom_bond_distance
_ccdc_geom_bond_type
C15   C21   1.403880 A    
C58   H45   1.110303 S    
C24   C26   1.408954 A    
C16   C22   1.400854 A    
N9    O15   1.301654 A    
C1    C23   1.448500 S    
C60   H50   1.109073 S    
C52   H28   1.110868 S    
C8    C16   1.407355 A    
C59   C60   1.517239 S    
C46   H13   1.108259 S    
C58   H43   1.110168 S    
C25   C27   1.401255 A    
O13   C45   1.416543 S    
C51   H26   1.111593 S    
O5    C3    1.293204 A    
N8    O12   1.301329 A    
O1    C1    1.297561 A    
C12   C14   1.387373 A    
N14   O31   1.301301 A    
N11   O26   1.301128 A    
C59   H47   1.109797 S    
C22   N8    1.437239 S    
C48   H19   1.109406 S    
C47   H17   1.111460 S    
C37   C39   1.405107 A    
C38   C40   1.411133 A    
C60   H48   1.109993 S    
C53   H31   1.114824 S    
C42   H10   1.083558 S    
C8    C10   1.405173 A    
C40   C42   1.392828 A    
C31   C33   1.392516 A    
O4    Zn1   1.986203 S    
C41   C43   1.404271 A    
C42   C44   1.401657 A    
N11   O25   1.301607 A    
C3    C5    1.468150 S    
N14   O32   1.301091 A    
C4    C6    1.472530 S    
C53   H32   1.105994 S    
C57   H41   1.111754 S    
N10   O18   1.299986 A    
C6    C12   1.395439 A    
O20   C51   1.417492 S    
C2    C24   1.443884 S    
C13   C17   1.415437 A    
N13   O30   1.301264 A    
C24   C34   1.392328 A    
C6    C10   1.408498 A    
C54   H34   1.108241 S    
C19   O21   1.397441 S    
C40   N6    1.439487 S    
N9    O16   1.297737 A    
C58   H44   1.106862 S    
C17   C20   1.432042 A    
C19   C21   1.415991 A    
C27   C29   1.413465 A    
O2    C2    1.296555 A    
C28   C30   1.413522 A    
C28   N11   1.441795 S    
C46   H14   1.110094 S    
C30   C32   1.406465 A    
C32   C34   1.392238 A    
N3    C35   1.373050 A    
C25   O24   1.387031 S    
C39   C41   1.388752 A    
N8    O11   1.301237 A    
O22   C55   1.411694 S    
C59   H46   1.111411 S    
C44   N10   1.426306 S    
C50   H24   1.110438 S    
C54   H33   1.110668 S    
N7    O10   1.300919 A    
C45   H11   1.109347 S    
C29   N1    1.402796 S    
C33   H5    1.081187 S    
C27   N12   1.438237 S    
O14   C47   1.413051 S    
C47   C48   1.521354 S    
C49   C50   1.521810 S    
C36   O13   1.397300 S    
C50   H25   1.106675 S    
C35   O14   1.381799 S    
O1    Zn1   1.975316 S    
C5    C9    1.408091 A    
O7    Zn2   1.910650 S    
C56   H39   1.110417 S    
O7    C3    1.300514 A    
O19   C49   1.415817 S    
O5    Zn1   1.972382 S    
O6    C4    1.298767 A    
N10   O17   1.300532 A    
C49   H22   1.113519 S    
C52   H29   1.110446 S    
C48   H20   1.110437 S    
C29   C31   1.405998 A    
C51   H27   1.116067 S    
O3    Zn2   1.986203 S    
O8    C4    1.297713 A    
C55   C56   1.520339 S    
O4    C2    1.283648 A    
C26   O23   1.383992 S    
N5    N6    1.251052 D    
C35   C37   1.421930 A    
N12   O28   1.301525 A    
C5    C11   1.390144 A    
C23   C33   1.394615 A    
C37   H8    1.081918 S    
O23   C57   1.412656 S    
C17   C18   1.416441 A    
C46   H15   1.109347 S    
C55   H37   1.115927 S    
Zn1   N4    2.013554 S    
C54   H35   1.106790 S    
C41   H9    1.083785 S    
C60   H49   1.110595 S    
C12   H1    1.069432 S    
C18   C19   1.435277 A    
O6    Zn2   1.972381 S    
C47   H16   1.111587 S    
C14   C18   1.419795 A    
C14   C16   1.413097 A    
C26   C28   1.398657 A    
O3    C1    1.285984 A    
O8    Zn1   1.910649 S    
O24   C59   1.416857 S    
C53   C54   1.523066 S    
N4    C36   1.369925 A    
C11   H2    1.072792 S    
C32   N14   1.438547 S    
C43   N9    1.433895 S    
C51   C52   1.521106 S    
C7    C15   1.410877 A    
C11   C13   1.394258 A    
C48   H18   1.110565 S    
C56   H40   1.109465 S    
N7    O9    1.301127 A    
C23   C25   1.407386 A    
C39   N5    1.435507 S    
C20   C22   1.398618 A    
N3    C43   1.381369 A    
C45   C46   1.531324 S    
O21   C53   1.419068 S    
C10   O19   1.383231 S    
N4    C44   1.370351 A    
C57   C58   1.517850 S    
C21   N7    1.431313 S    
C49   H21   1.111394 S    
C7    C9    1.408039 A    
C36   C38   1.429768 A    
C52   H30   1.107402 S    
C45   H12   1.108535 S    
C13   C15   1.411333 A    
O2    Zn2   1.975316 S    
C38   H7    1.076675 S    
C34   H6    1.079275 S    
Zn2   N3    2.013555 S    
C31   N13   1.439157 S    
C20   O22   1.384337 S    
C30   N2    1.405124 S    
C57   H42   1.115994 S    
N1    N2    1.245579 D    
C50   H23   1.110564 S    
N12   O27   1.301432 A    
C7    H3    1.080660 S    
N13   O29   1.300984 A    
C8    H4    1.081838 S    
C56   H38   1.110643 S    
C55   H36   1.112381 S    
C9    O20   1.392711 S    
