data_mof_unit_41496.cif
_audit_creation_date              2012-10-26T19:41:54-0400
_audit_creation_method            fapswitch 2.2
_symmetry_space_group_name_H-M    P1
_symmetry_Int_Tables_number       1
_space_group_crystal_system       triclinic
_cell_length_a                    10.641238
_cell_length_b                    10.79097
_cell_length_c                    9.614834
_cell_angle_alpha                 90.073189
_cell_angle_beta                  90.111031
_cell_angle_gamma                 92.593389
_cell_volume                      1102.93057928

loop_
_atom_site_label
_atom_site_type_symbol
_atom_type_description
_atom_site_fract_x
_atom_site_fract_y
_atom_site_fract_z
_atom_type_partial_charge
C1    C     C_R   0.493983 0.262582 0.500060 0.545280
C2    C     C_R   0.396800 0.060836 0.585564 0.005270
C3    C     C_R   0.484109 0.128285 0.500093 0.002525
C4    C     C_R   0.259700 0.500673 0.499700 0.537588
C5    C     C_R   0.565464 0.066958 0.412613 -0.141219
C6    C     C_R   0.566071 0.939225 0.412813 -0.153964
C7    C     C_R   0.485346 0.870425 0.500508 0.010186
C8    C     C_R   0.667815 0.664404 0.144207 -0.075610
C9    C     C_R   0.750057 0.744520 0.072298 -0.159858
C10   C     C_R   0.750195 0.744353 0.928968 -0.174032
C11   C     C_R   0.667856 0.664304 0.856608 -0.085751
C12   C     C_3   0.963617 0.605335 0.447722 0.082743
C13   C     C_R   0.582514 0.580725 0.925469 0.156725
C14   C     C_R   0.582501 0.580706 0.074943 0.152149
C15   C     C_R   0.421333 0.423356 0.073565 -0.002562
C16   C     C_R   0.495351 0.737039 0.500155 0.526421
C17   C     C_R   0.421330 0.423440 0.925802 0.000287
C18   C     C_R   0.740228 0.499876 0.500278 0.572810
C19   C     C_3   0.038546 0.393061 0.553838 -0.108023
C20   C     C_3   0.955651 0.407592 0.424506 0.093451
C21   C     C_3   0.876760 0.499983 0.501292 0.091329
C22   C     C_3   0.959457 0.488520 0.632244 -0.149311
C23   C     C_3   0.041832 0.513305 0.366414 -0.080135
C24   C     C_3   0.046866 0.597092 0.577834 -0.136462
C25   C     C_3   0.123149 0.501598 0.498699 0.003630
C26   C     C_R   0.306683 0.120093 0.667562 -0.107140
C27   C     C_R   0.222797 0.051060 0.752471 0.107673
C28   C     C_R   0.223742 0.922238 0.751633 -0.074352
C29   C     C_R   0.308369 0.861902 0.667865 -0.140881
C30   C     C_R   0.397608 0.929732 0.585811 0.021121
Cu1   Cu    Cu3+1 0.499990 0.499990 0.640660 0.913479
Cu2   Cu    Cu3+1 0.500010 0.500010 0.359340 0.929704
H1    H     H_    0.157433 0.868255 0.814961 0.127787
H2    H     H_    0.072559 0.304380 0.593887 0.103919
H3    H     H_    0.924021 0.478404 0.740361 0.127922
H4    H     H_    0.085323 0.676790 0.639878 0.103968
H5    H     H_    0.075935 0.523573 0.257800 0.122124
H6    H     H_    0.631499 0.118524 0.346418 0.148531
H7    H     H_    0.298703 0.219501 0.665876 0.122573
H8    H     H_    0.978792 0.256585 0.302922 0.224326
H9    H     H_    0.856207 0.340467 0.258137 0.243512
H10   H     H_    0.999262 0.777692 0.368985 0.235539
H11   H     H_    0.870261 0.764283 0.469027 0.217395
H12   H     H_    0.301264 0.761882 0.667404 0.145943
H13   H     H_    0.186267 0.173181 0.904554 0.219749
H14   H     H_    0.077140 0.162486 0.776693 0.224432
H15   H     H_    0.632479 0.893881 0.346716 0.120455
H16   H     H_    0.356759 0.360457 0.128339 0.114538
H17   H     H_    0.675249 0.672494 0.253837 0.196867
H18   H     H_    0.814031 0.807487 0.128483 0.144967
H19   H     H_    0.814414 0.807006 0.873088 0.125652
H20   H     H_    0.675293 0.672382 0.746973 0.183684
H21   H     H_    0.356686 0.360708 0.870587 0.105493
N1    N     N_R   0.501210 0.501210 0.147910 -0.245909
N2    N     N_R   0.501250 0.501290 0.852040 -0.243285
N3    N     N_3   0.903224 0.303698 0.343089 -0.628954
N4    N     N_3   0.919795 0.720581 0.390573 -0.658852
N5    N     N_3   0.135430 0.111152 0.839784 -0.640667
O1    O     O_R   0.499990 0.319640 0.618810 -0.499755
O2    O     O_R   0.500000 0.319660 0.381240 -0.499039
O3    O     O_R   0.316850 0.499960 0.618770 -0.516312
O4    O     O_R   0.316860 0.499980 0.381190 -0.504619
O5    O     O_R   0.500000 0.680340 0.618760 -0.529437
O6    O     O_R   0.500010 0.680360 0.381190 -0.519179
O7    O     O_R   0.683140 0.500020 0.618810 -0.528560
O8    O     O_R   0.683150 0.500040 0.381230 -0.507876

loop_
_geom_bond_atom_site_label_1
_geom_bond_atom_site_label_2
_ccdc_geom_bond_type
C8    C14   A    
H9    N3    S    
C6    C7    A    
C16   O5    A    
Cu1   O5    S    
C18   O8    A    
C18   C21   S    
H8    N3    S    
C9    C10   A    
C17   N2    A    
Cu1   Cu2   S    
C20   C23   S    
C2    C30   A    
C20   N3    S    
C4    O4    A    
C10   H19   S    
C20   C21   S    
C23   C25   S    
C2    C3    A    
Cu2   O4    S    
Cu1   O3    S    
C2    C26   A    
C7    C30   A    
C23   H5    S    
C21   C22   S    
H14   N5    S    
C18   O7    A    
C22   H3    S    
C11   C13   A    
C12   C23   S    
C26   C27   A    
C24   H4    S    
C15   H16   S    
C12   N4    S    
C8    H17   S    
H10   N4    S    
Cu2   N1    S    
C7    C16   S    
C14   N1    A    
C28   H1    S    
C4    C25   S    
C1    C3    S    
C1    O1    A    
C29   H12   S    
C5    C6    A    
C19   C25   S    
C22   C24   S    
C26   H7    S    
C10   C11   A    
Cu2   O2    S    
C29   C30   A    
H13   N5    S    
C12   C21   S    
C15   N1    A    
C17   H21   S    
C19   C22   S    
C24   C25   S    
Cu2   O6    S    
Cu2   O8    S    
C12   C24   S    
C6    H15   S    
C1    O2    A    
Cu1   O1    S    
C27   C28   A    
C15   C17   A    
H11   N4    S    
C28   C29   A    
Cu1   O7    S    
C11   H20   S    
C16   O6    A    
C13   C14   A    
Cu1   N2    S    
C5    H6    S    
C4    O3    A    
C27   N5    S    
C9    H18   S    
C19   C20   S    
C13   N2    A    
C8    C9    A    
C3    C5    A    
C19   H2    S    
