data_mof_unit_8246.cif
_audit_creation_date              2012-12-10T17:45:28-0500
_audit_creation_method            fapswitch 2.2
_symmetry_space_group_name_H-M    P1
_symmetry_Int_Tables_number       1
_space_group_crystal_system       triclinic
_cell_length_a                    11.539985
_cell_length_b                    10.71773
_cell_length_c                    9.914093
_cell_angle_alpha                 90.013983
_cell_angle_beta                  90.170758
_cell_angle_gamma                 91.830131
_cell_volume                      1225.56825355

loop_
_atom_site_label
_atom_site_type_symbol
_atom_type_description
_atom_site_fract_x
_atom_site_fract_y
_atom_site_fract_z
_atom_type_partial_charge
C1    C     C_R   0.509819 0.260554 0.501070 0.850736
C2    C     C_R   0.481340 0.872765 0.503208 -0.107294
C3    C     C_R   0.349228 0.334638 0.139443 -0.106782
C4    C     C_R   0.282020 0.499506 0.499847 0.879571
C5    C     C_R   0.275819 0.252220 0.068989 -0.122610
C6    C     C_R   0.275631 0.252341 0.929406 -0.162996
C7    C     C_R   0.348919 0.334802 0.859416 -0.114519
C8    C     C_R   0.425471 0.418710 0.927367 0.079459
C9    C     C_R   0.425600 0.418658 0.071964 0.141294
C10   C     C_R   0.571089 0.577743 0.072371 -0.125464
C11   C     C_R   0.571400 0.577916 0.929523 0.429650
C12   C     C_R   0.517310 0.055866 0.878635 0.504917
C13   C     C_R   0.490583 0.739436 0.500580 0.896682
C14   C     C_R   0.717979 0.500269 0.500167 0.919771
C15   C     C_1   0.161533 0.499162 0.499623 -0.172433
C16   C     C_1   0.059328 0.499070 0.499848 0.012581
C17   C     C_1   0.940644 0.499310 0.500278 0.015165
C18   C     C_1   0.838453 0.499738 0.500450 -0.164903
C19   C     C_R   0.550118 0.114087 0.755780 -0.374143
C20   C     C_3   0.637400 0.186017 0.018389 0.070320
C21   C     C_3   0.749490 0.114051 0.001654 -0.360076
C22   C     C_3   0.856189 0.198609 0.027384 -0.921633
C23   C     C_R   0.450725 0.944634 0.871521 0.391875
C24   C     C_R   0.431719 0.885220 0.747902 -0.258408
C25   C     C_R   0.475634 0.938070 0.627118 0.045353
C26   C     C_R   0.516852 0.061403 0.629699 0.051553
C27   C     C_R   0.520485 0.127220 0.505276 -0.092327
C28   C     C_R   0.513218 0.063600 0.382599 -0.207295
C29   C     C_R   0.499024 0.936534 0.381873 -0.156638
Cl1   Cl    Cl    0.667366 0.682389 0.847154 -0.596130
Cl2   Cl    Cl    0.394788 0.874102 0.018600 -0.623404
H1    H     H_    0.518094 0.111733 0.286788 0.211212
H2    H     H_    0.637459 0.225124 0.122140 0.174220
H3    H     H_    0.634315 0.269181 0.952187 0.127280
H4    H     H_    0.749303 0.034978 0.074202 0.247846
H5    H     H_    0.755048 0.075443 0.898028 0.230625
H6    H     H_    0.858616 0.277596 0.954786 0.270835
H7    H     H_    0.935850 0.144468 0.014334 0.270257
H8    H     H_    0.854962 0.235963 0.131898 0.265058
H9    H     H_    0.218258 0.188199 0.874822 0.150044
H10   H     H_    0.343154 0.329617 0.752457 0.201131
H11   H     H_    0.603285 0.198194 0.757013 0.186002
H12   H     H_    0.379977 0.799293 0.747518 0.206164
H13   H     H_    0.502098 0.888515 0.285964 0.230096
H14   H     H_    0.628909 0.641214 0.127084 0.182316
H15   H     H_    0.343350 0.329823 0.246385 0.194943
H16   H     H_    0.218420 0.188146 0.123196 0.156235
N1    N     N_R   0.498930 0.498800 0.142780 -0.147620
N2    N     N_R   0.498900 0.498720 0.857170 -0.161813
O1    O     O_R   0.500000 0.316780 0.614690 -0.652527
O2    O     O_R   0.499990 0.316750 0.385360 -0.651014
O3    O     O_R   0.334450 0.500030 0.614670 -0.634451
O4    O     O_R   0.334440 0.500000 0.385330 -0.618833
O5    O     O_R   0.500010 0.683250 0.614640 -0.572532
O6    O     O_R   0.500000 0.683220 0.385310 -0.607922
O7    O     O_R   0.665560 0.500000 0.614670 -0.564540
O8    O     O_R   0.665550 0.499970 0.385330 -0.623529
O9    O     O_3   0.537053 0.107099 0.006639 -0.625263
Zn1   Zn    Zn3+2 0.500010 0.500020 0.653130 0.980012
Zn2   Zn    Zn3+2 0.499990 0.499980 0.346870 0.953898

loop_
_geom_bond_atom_site_label_1
_geom_bond_atom_site_label_2
_ccdc_geom_bond_type
C14   O7    A    
C23   C24   A    
O7    Zn1   S    
C6    C7    A    
C3    C9    A    
O3    Zn1   S    
C4    O4    A    
C5    H16   S    
C1    O1    A    
C14   C18   S    
C3    H15   S    
N2    Zn1   S    
C19   H11   S    
C20   H3    S    
C10   H14   S    
C17   C18   T    
C12   O9    S    
C7    C8    A    
C21   H5    S    
C21   C22   S    
C24   C25   A    
C1    O2    A    
C12   C23   A    
C26   C27   A    
C4    C15   S    
C2    C29   A    
C11   N2    A    
O1    Zn1   S    
C12   C19   A    
C28   C29   A    
O4    Zn2   S    
C4    O3    A    
N1    Zn2   S    
C2    C25   A    
O5    Zn1   S    
C7    H10   S    
C29   H13   S    
C10   N1    A    
C5    C6    A    
C24   H12   S    
C6    H9    S    
C21   H4    S    
C10   C11   A    
C22   H8    S    
C14   O8    A    
C20   O9    S    
C15   C16   T    
C22   H7    S    
C28   H1    S    
C20   C21   S    
C19   C26   A    
C9    N1    A    
C20   H2    S    
C13   O5    A    
C27   C28   A    
C1    C27   S    
C2    C13   S    
C16   C17   S    
O8    Zn2   S    
O2    Zn2   S    
C3    C5    A    
C25   C26   A    
O6    Zn2   S    
C22   H6    S    
C8    N2    A    
C11   Cl1   S    
C8    C9    A    
C13   O6    A    
C23   Cl2   S    
