data_mof_unit_37378.cif
_audit_creation_date              2012-12-10T20:00:04-0500
_audit_creation_method            fapswitch 2.2
_symmetry_space_group_name_H-M    P1
_symmetry_Int_Tables_number       1
_space_group_crystal_system       triclinic
_cell_length_a                    14.899442
_cell_length_b                    14.132701
_cell_length_c                    8.930721
_cell_angle_alpha                 90.190217
_cell_angle_beta                  90.41052
_cell_angle_gamma                 90.052422
_cell_volume                      1880.47673373

loop_
_atom_site_label
_atom_site_type_symbol
_atom_type_description
_atom_site_fract_x
_atom_site_fract_y
_atom_site_fract_z
_atom_type_partial_charge
C1    C     C_R   0.327020 0.500094 0.504147 1.009535
C2    C     C_R   0.470673 0.894957 0.374470 -0.285351
C3    C     C_R   0.499744 0.499898 0.218399 0.934385
C4    C     C_R   0.499891 0.500092 0.781602 0.925421
C5    C     C_R   0.500891 0.053198 0.500255 0.138948
C6    C     C_R   0.500826 0.946703 0.500079 0.138895
C7    C     C_1   0.499619 0.499838 0.065280 -0.207955
C8    C     C_1   0.499676 0.500116 0.934705 -0.208084
C9    C     C_R   0.086535 0.575060 0.503803 0.392027
C10   C     C_R   0.909310 0.417353 0.574652 0.365433
C11   C     C_R   0.901101 0.585648 0.636542 0.375541
C12   C     C_R   0.673143 0.500081 0.508159 0.977586
C13   C     C_R   0.105111 0.441244 0.672103 0.423404
C14   C     C_R   0.179005 0.579657 0.487891 0.302936
C15   C     C_R   0.816685 0.414496 0.557283 0.304769
C16   C     C_R   0.812747 0.586843 0.580591 0.265458
C17   C     C_R   0.191701 0.428355 0.617422 0.275331
C18   C     C_R   0.231032 0.501215 0.532116 -0.430679
C19   C     C_R   0.768985 0.500479 0.545884 -0.422153
C20   C     C_R   0.049473 0.509032 0.603550 -0.166030
C21   C     C_R   0.951743 0.502662 0.615668 -0.129292
C22   C     C_3   0.016236 0.604079 0.279266 0.122895
C23   C     C_R   0.523613 0.204087 0.373932 0.021907
C24   C     C_3   0.053964 0.673786 0.165209 -0.322082
C25   C     C_3   0.007898 0.769957 0.175304 -0.860052
C26   C     C_3   0.976227 0.327792 0.392258 0.113410
C27   C     C_3   0.948451 0.229378 0.337410 -0.313726
C28   C     C_3   0.974667 0.213722 0.174284 -0.982274
C29   C     C_3   0.900167 0.718645 0.792949 0.106367
C30   C     C_3   0.904077 0.824548 0.757770 -0.296089
C31   C     C_3   0.849244 0.883279 0.867538 -0.994749
C32   C     C_3   0.090292 0.424983 0.925146 0.068544
C33   C     C_3   0.184521 0.399441 0.983768 -0.300944
C34   C     C_R   0.530084 0.795789 0.622971 0.016821
C35   C     C_3   0.200580 0.435027 0.142971 -1.021571
C36   C     C_3   0.239516 0.726123 0.532126 0.172393
C37   C     C_3   0.164767 0.799163 0.553392 -0.360722
C38   C     C_3   0.192760 0.874981 0.666558 -1.005909
C39   C     C_3   0.744524 0.289893 0.667636 0.159317
C40   C     C_3   0.815735 0.227100 0.742170 -0.345216
C41   C     C_3   0.777053 0.173665 0.875225 -1.003595
C42   C     C_3   0.792848 0.711794 0.423507 0.126500
C43   C     C_3   0.732922 0.797379 0.393046 -0.313918
C44   C     C_3   0.761057 0.850013 0.252322 -1.019755
C45   C     C_R   0.477403 0.204437 0.626514 -0.029345
C46   C     C_3   0.232621 0.277483 0.552536 0.167639
C47   C     C_3   0.168807 0.199895 0.605406 -0.344783
C48   C     C_3   0.166405 0.117426 0.494655 -1.006232
C49   C     C_R   0.470572 0.795531 0.376898 -0.029746
C50   C     C_R   0.524116 0.104627 0.371480 -0.280796
C51   C     C_R   0.530761 0.895240 0.625531 -0.293049
C52   C     C_R   0.477562 0.104999 0.629093 -0.292712
H1    H     H_    0.542529 0.242473 0.274527 0.136633
H2    H     H_    0.043888 0.532280 0.255683 0.054173
H3    H     H_    0.127184 0.682970 0.182883 0.256176
H4    H     H_    0.044192 0.644290 0.051193 0.148507
H5    H     H_    0.934608 0.761475 0.157444 0.235661
H6    H     H_    0.034860 0.817670 0.087901 0.242675
H7    H     H_    0.019692 0.802835 0.286695 0.282177
H8    H     H_    0.049552 0.336046 0.377489 0.123268
H9    H     H_    0.942491 0.382016 0.320312 0.098708
H10   H     H_    0.981179 0.174692 0.408106 0.226334
H11   H     H_    0.874627 0.221060 0.347749 0.253664
H12   H     H_    0.554304 0.757227 0.719464 0.143415
H13   H     H_    0.938754 0.264641 0.100774 0.270964
H14   H     H_    0.956046 0.140781 0.139417 0.270212
H15   H     H_    0.048222 0.222761 0.160388 0.265630
H16   H     H_    0.936133 0.705886 0.899398 0.134749
H17   H     H_    0.829439 0.696561 0.811998 0.158686
H18   H     H_    0.975070 0.848745 0.761483 0.214533
H19   H     H_    0.877753 0.837172 0.643112 0.234153
H20   H     H_    0.778157 0.859483 0.867349 0.272356
H21   H     H_    0.851258 0.958768 0.833788 0.272458
H22   H     H_    0.877723 0.877380 0.982063 0.271787
H23   H     H_    0.458385 0.243078 0.725979 0.151550
H24   H     H_    0.039895 0.397059 0.004666 0.154059
H25   H     H_    0.081212 0.503286 0.923871 0.105149
H26   H     H_    0.193197 0.321345 0.980891 0.241510
H27   H     H_    0.236331 0.432392 0.912226 0.241307
H28   H     H_    0.195915 0.513377 0.146991 0.277007
H29   H     H_    0.268790 0.414016 0.181142 0.273830
H30   H     H_    0.150910 0.403807 0.219947 0.244024
H31   H     H_    0.300222 0.764088 0.493545 0.170687
H32   H     H_    0.257806 0.693944 0.642381 0.118886
H33   H     H_    0.149189 0.833333 0.444483 0.235634
H34   H     H_    0.446364 0.756780 0.280141 0.147985
H35   H     H_    0.103401 0.764057 0.595473 0.275054
H36   H     H_    0.209710 0.842165 0.776022 0.268520
H37   H     H_    0.136437 0.925073 0.683771 0.270450
H38   H     H_    0.251866 0.914839 0.625183 0.277550
H39   H     H_    0.685007 0.245438 0.640557 0.175404
H40   H     H_    0.720944 0.345207 0.747892 0.105231
H41   H     H_    0.841714 0.175280 0.659228 0.240794
H42   H     H_    0.872466 0.271469 0.782912 0.252963
H43   H     H_    0.751124 0.224211 0.960034 0.270526
H44   H     H_    0.830434 0.130099 0.928103 0.276850
H45   H     H_    0.543907 0.068338 0.270018 0.135062
H46   H     H_    0.721815 0.126116 0.837748 0.269007
H47   H     H_    0.782989 0.659838 0.330433 0.112416
H48   H     H_    0.864221 0.734981 0.426032 0.189592
H49   H     H_    0.662775 0.772746 0.378169 0.248241
H50   H     H_    0.735531 0.846820 0.490049 0.229083
H51   H     H_    0.829581 0.879747 0.267069 0.269625
H52   H     H_    0.713750 0.909203 0.230911 0.280210
H53   H     H_    0.759702 0.801497 0.154227 0.265880
H54   H     H_    0.300041 0.245680 0.537899 0.174524
H55   H     H_    0.211511 0.303171 0.439422 0.105980
H56   H     H_    0.555935 0.931484 0.724231 0.137288
H57   H     H_    0.191085 0.173655 0.716817 0.230135
H58   H     H_    0.100142 0.229075 0.616590 0.280203
H59   H     H_    0.148413 0.142757 0.380741 0.271325
H60   H     H_    0.115203 0.065202 0.530074 0.273027
H61   H     H_    0.232928 0.082084 0.490788 0.276414
H62   H     H_    0.458090 0.069014 0.730641 0.139794
H63   H     H_    0.445915 0.930977 0.275715 0.139165
H64   H     H_    0.942516 0.597885 0.262591 0.109362
N1    N     N_R   0.500000 0.252470 0.500000 -0.101314
N2    N     N_R   0.500000 0.747530 0.500000 -0.104261
O1    O     O_R   0.369060 0.579480 0.500010 -0.609211
O2    O     O_3   0.958211 0.336032 0.547303 -0.611104
O3    O     O_3   0.945124 0.668638 0.678135 -0.616028
O4    O     O_3   0.073071 0.382604 0.783579 -0.596327
O5    O     O_3   0.216640 0.658222 0.420466 -0.623964
O6    O     O_3   0.776107 0.327762 0.530879 -0.609907
O7    O     O_3   0.768958 0.672486 0.562928 -0.613107
O8    O     O_3   0.240360 0.349819 0.662297 -0.622197
O9    O     O_R   0.630940 0.420520 0.499990 -0.594201
O10   O     O_R   0.630940 0.579480 0.499990 -0.575926
O11   O     O_R   0.369060 0.420520 0.500010 -0.604936
O12   O     O_R   0.500000 0.579460 0.285340 -0.629305
O13   O     O_R   0.500000 0.420540 0.714660 -0.633833
O14   O     O_R   0.500000 0.579460 0.714660 -0.635471
O15   O     O_R   0.500000 0.420540 0.285340 -0.635309
O16   O     O_3   0.032797 0.638070 0.426167 -0.578804
Zn1   Zn    Zn3+2 0.500000 0.606140 0.500000 0.941168
Zn2   Zn    Zn3+2 0.500000 0.393860 0.500000 0.937159

loop_
_geom_bond_atom_site_label_1
_geom_bond_atom_site_label_2
_ccdc_geom_bond_type
C34   N2    A    
C3    O12   A    
C14   C18   A    
O12   Zn1   S    
C40   H41   S    
C43   C44   S    
C30   H19   S    
C35   H29   S    
C7    C8    T    
C22   H2    S    
C12   O9    A    
C11   O3    S    
C44   H53   S    
C24   H3    S    
C15   C19   A    
C38   H37   S    
C34   C51   A    
C29   C30   S    
C22   O16   S    
C5    C6    S    
C37   H33   S    
C36   C37   S    
C27   H10   S    
C26   H9    S    
C26   O2    S    
C3    C7    S    
C10   C15   A    
C16   C19   A    
C30   C31   S    
C33   H26   S    
C31   H21   S    
C41   H44   S    
C36   H31   S    
O11   Zn2   S    
C35   H28   S    
C1    O1    A    
C42   O7    S    
C32   H25   S    
C35   H30   S    
C49   N2    A    
C51   H56   S    
C29   O3    S    
O15   Zn2   S    
C5    C52   A    
C6    C51   A    
C16   O7    S    
C4    C8    S    
C9    O16   S    
C22   H64   S    
C2    C6    A    
C25   H5    S    
C39   H39   S    
C30   H18   S    
C44   H51   S    
C46   O8    S    
C23   H1    S    
C4    O13   A    
C29   H17   S    
C10   C21   A    
C44   H52   S    
C15   O6    S    
C32   O4    S    
C36   O5    S    
O9    Zn2   S    
C4    O14   A    
O13   Zn2   S    
O10   Zn1   S    
C39   C40   S    
C33   H27   S    
C31   H22   S    
C45   C52   A    
C47   H57   S    
C11   C21   A    
O1    Zn1   S    
C39   O6    S    
C38   H36   S    
C3    O15   A    
C28   H14   S    
C9    C14   A    
C43   H49   S    
C23   N1    A    
C37   C38   S    
C2    C49   A    
C42   H48   S    
C29   H16   S    
C2    H63   S    
C9    C20   A    
C47   C48   S    
C46   H55   S    
C28   H15   S    
C34   H12   S    
C17   C18   A    
C1    C18   S    
C24   C25   S    
C27   H11   S    
C40   C41   S    
C48   H60   S    
C26   C27   S    
C22   C24   S    
C5    C50   A    
C25   H6    S    
C39   H40   S    
C45   N1    A    
C46   C47   S    
C31   H20   S    
C50   H45   S    
C14   O5    S    
C13   C20   A    
C49   H34   S    
C37   H35   S    
C40   H42   S    
C23   C50   A    
C32   H24   S    
C12   O10   A    
C52   H62   S    
C24   H4    S    
C47   H58   S    
C38   H38   S    
C1    O11   A    
C13   C17   A    
C45   H23   S    
C32   C33   S    
C28   H13   S    
C43   H50   S    
C42   H47   S    
C13   O4    S    
C41   H43   S    
C36   H32   S    
O14   Zn1   S    
C46   H54   S    
C12   C19   S    
C33   C35   S    
C17   O8    S    
C11   C16   A    
C10   O2    S    
C48   H59   S    
C20   C21   S    
C42   C43   S    
C27   C28   S    
C41   H46   S    
C25   H7    S    
N1    Zn2   S    
C26   H8    S    
N2    Zn1   S    
C48   H61   S    
