data_mof_unit_21748.cif
_audit_creation_date              2012-12-10T18:35:25-0500
_audit_creation_method            fapswitch 2.2
_symmetry_space_group_name_H-M    P1
_symmetry_Int_Tables_number       1
_space_group_crystal_system       triclinic
_cell_length_a                    15.498641
_cell_length_b                    13.972829
_cell_length_c                    10.945509
_cell_angle_alpha                 90.515976
_cell_angle_beta                  91.843203
_cell_angle_gamma                 89.822858
_cell_volume                      2369.02608111

loop_
_atom_site_label
_atom_site_type_symbol
_atom_type_description
_atom_site_fract_x
_atom_site_fract_y
_atom_site_fract_z
_atom_type_partial_charge
C1    C     C_R   0.329186 0.500450 0.501889 0.812880
C2    C     C_R   0.670801 0.500350 0.498193 0.807128
C3    C     C_R   0.047283 0.506656 0.495086 0.056240
C4    C     C_R   0.952326 0.507273 0.490491 0.056941
C5    C     C_R   0.561862 0.106783 0.567943 -0.264896
C6    C     C_R   0.465795 0.892898 0.401585 -0.262568
C7    C     C_R   0.441476 0.105435 0.429248 -0.268720
C8    C     C_R   0.538556 0.894157 0.595095 -0.260933
C9    C     C_R   0.555983 0.207472 0.578582 0.276572
C10   C     C_R   0.456575 0.792574 0.407648 0.276784
C11   C     C_R   0.444721 0.206202 0.420905 0.281293
C12   C     C_R   0.544902 0.793351 0.591169 0.275541
C13   C     C_R   0.502248 0.054024 0.498029 0.083440
C14   C     C_R   0.502499 0.945742 0.498063 0.070586
C15   C     C_R   0.511476 0.499240 0.262473 0.861498
C16   C     C_R   0.489476 0.500518 0.737879 0.859668
C17   C     C_R   0.564861 0.668779 0.102845 0.162711
C18   C     C_R   0.437393 0.331081 0.894527 0.168435
C19   C     C_R   0.445144 0.674328 0.907751 0.158882
C20   C     C_R   0.547010 0.320351 0.098368 0.160709
C21   C     C_R   0.539371 0.756808 0.053276 -0.243102
C22   C     C_R   0.458581 0.241887 0.943041 -0.229956
C23   C     C_R   0.473513 0.759572 0.963768 -0.240049
C24   C     C_R   0.518145 0.236411 0.040007 -0.216203
C25   C     C_R   0.482387 0.586461 0.944242 0.011449
C26   C     C_R   0.517529 0.410816 0.057558 -0.001113
C27   C     C_R   0.524930 0.583855 0.060148 0.005357
C28   C     C_R   0.478389 0.414244 0.939404 0.000452
C29   C     C_R   0.475125 0.501147 0.874496 -0.132496
C30   C     C_R   0.527335 0.497175 0.126286 -0.134014
C31   C     C_R   0.093520 0.586716 0.464385 -0.187865
C32   C     C_R   0.907743 0.426116 0.453850 -0.174108
C33   C     C_R   0.906721 0.587337 0.525829 -0.184662
C34   C     C_R   0.091216 0.425583 0.532741 -0.172613
C35   C     C_R   0.182936 0.591529 0.485925 0.095804
C36   C     C_R   0.819258 0.417282 0.471006 0.094612
C37   C     C_R   0.816785 0.592059 0.510520 0.101293
C38   C     C_R   0.180494 0.416945 0.522801 0.101181
C39   C     C_R   0.231228 0.502721 0.504224 -0.087620
C40   C     C_R   0.768625 0.502933 0.493284 -0.090094
Cu1   Cu    Cu3+1 0.500000 0.596430 0.500000 0.948385
Cu2   Cu    Cu3+1 0.500000 0.403570 0.500000 0.949548
H1    H     H_    0.540127 0.167110 0.071879 0.171127
H2    H     H_    0.447439 0.827721 0.933952 0.171896
H3    H     H_    0.427821 0.177563 0.907421 0.172414
H4    H     H_    0.568050 0.822717 0.087467 0.174545
H5    H     H_    0.058379 0.648533 0.430233 0.129171
H6    H     H_    0.943928 0.365618 0.419338 0.128868
H7    H     H_    0.942530 0.648795 0.560191 0.127572
H8    H     H_    0.054290 0.365628 0.565077 0.127358
H9    H     H_    0.611639 0.068202 0.617321 0.128042
H10   H     H_    0.443733 0.930571 0.321263 0.130823
H11   H     H_    0.392129 0.065761 0.380028 0.129284
H12   H     H_    0.561892 0.933082 0.674508 0.130244
N1    N     N_R   0.500000 0.258690 0.500000 -0.194496
N2    N     N_R   0.500000 0.741310 0.500000 -0.197396
O1    O     O_R   0.371460 0.581430 0.500010 -0.599407
O2    O     O_R   0.628540 0.418570 0.499990 -0.597373
O3    O     O_R   0.628540 0.581430 0.499990 -0.600413
O4    O     O_R   0.371460 0.418570 0.500010 -0.599104
O5    O     O_R   0.499990 0.581440 0.319660 -0.589714
O6    O     O_R   0.500010 0.418560 0.680340 -0.591673
O7    O     O_R   0.500010 0.581440 0.680340 -0.587173
O8    O     O_R   0.499990 0.418560 0.319660 -0.585711
I1    I     I_    0.675756 0.665556 0.218268 -0.444893
I2    I     I_    0.318990 0.343963 0.801383 -0.466522
I3    I     I_    0.336769 0.681814 0.787114 -0.443628
I4    I     I_    0.654589 0.304688 0.215243 -0.465111
C41   C     C_3   0.217076 0.694517 0.485363 -0.406880
C42   C     C_3   0.168781 0.762559 0.572240 -0.332755
C43   C     C_3   0.210759 0.861502 0.579305 -0.827202
H13   H     H_    0.279371 0.856176 0.611062 0.276805
H14   H     H_    0.207448 0.895873 0.488196 0.240380
H15   H     H_    0.175875 0.907590 0.644642 0.245743
H16   H     H_    0.100778 0.773125 0.540353 0.198691
H17   H     H_    0.167761 0.731608 0.665171 0.259369
H18   H     H_    0.285173 0.702986 0.510973 0.265137
H19   H     H_    0.207158 0.722260 0.391834 0.194870
C44   C     C_3   0.789232 0.313610 0.458654 -0.379547
C45   C     C_3   0.833531 0.247131 0.553158 -0.387689
C46   C     C_3   0.816150 0.142038 0.521269 -0.854463
H20   H     H_    0.745837 0.128770 0.508973 0.264428
H21   H     H_    0.848177 0.122215 0.435260 0.261285
H22   H     H_    0.842376 0.095807 0.595711 0.238818
H23   H     H_    0.904569 0.256932 0.558095 0.218813
H24   H     H_    0.809442 0.264220 0.644634 0.231168
H25   H     H_    0.719942 0.301928 0.464653 0.254418
H26   H     H_    0.807596 0.287828 0.366735 0.232763
C47   C     C_3   0.781814 0.694933 0.518053 -0.403638
C48   C     C_3   0.829805 0.766357 0.436957 -0.338990
C49   C     C_3   0.782448 0.862383 0.427146 -0.821112
H27   H     H_    0.716002 0.852645 0.388048 0.276167
H28   H     H_    0.778999 0.896897 0.518581 0.239857
H29   H     H_    0.817999 0.910714 0.366591 0.245173
H30   H     H_    0.895436 0.781461 0.475750 0.198303
H31   H     H_    0.837214 0.735785 0.343963 0.258469
H32   H     H_    0.713785 0.703341 0.492057 0.266673
H33   H     H_    0.790905 0.719900 0.613448 0.192284
C50   C     C_3   0.210978 0.313711 0.540859 -0.382156
C51   C     C_3   0.171075 0.243658 0.445738 -0.389768
C52   C     C_3   0.191612 0.139959 0.479581 -0.856759
H34   H     H_    0.167424 0.091179 0.405603 0.238017
H35   H     H_    0.262227 0.129361 0.492972 0.263443
H36   H     H_    0.159608 0.121023 0.565411 0.261323
H37   H     H_    0.099785 0.250647 0.438196 0.218520
H38   H     H_    0.195975 0.259891 0.355275 0.233126
H39   H     H_    0.280894 0.302560 0.543627 0.250930
H40   H     H_    0.187976 0.290345 0.630855 0.232432
C53   C     C_3   0.606591 0.254904 0.685312 -0.363526
C54   C     C_3   0.662020 0.190676 0.771211 -0.482620
C55   C     C_3   0.708605 0.250025 0.871046 -0.777770
H41   H     H_    0.740154 0.201743 0.939104 0.258848
H42   H     H_    0.758595 0.296107 0.831888 0.237882
H43   H     H_    0.662561 0.297218 0.918027 0.279249
H44   H     H_    0.619850 0.138024 0.815923 0.232325
H45   H     H_    0.711525 0.151113 0.720416 0.238678
H46   H     H_    0.648583 0.312045 0.653765 0.230713
H47   H     H_    0.558706 0.283771 0.746675 0.242190
C56   C     C_3   0.402063 0.744727 0.305769 -0.367184
C57   C     C_3   0.331715 0.806594 0.241622 -0.473434
C58   C     C_3   0.274955 0.746506 0.153633 -0.794601
H48   H     H_    0.314103 0.717285 0.078958 0.284042
H49   H     H_    0.245226 0.685510 0.200650 0.242061
H50   H     H_    0.222844 0.791956 0.112962 0.249515
H51   H     H_    0.291085 0.842137 0.310342 0.229142
H52   H     H_    0.361583 0.862489 0.185363 0.228948
H53   H     H_    0.445030 0.722031 0.234424 0.235718
H54   H     H_    0.369887 0.681180 0.339289 0.238895
C59   C     C_3   0.390055 0.252497 0.318008 -0.364428
C60   C     C_3   0.339388 0.186278 0.227492 -0.480805
C61   C     C_3   0.291099 0.243862 0.128286 -0.774511
H55   H     H_    0.270504 0.195525 0.051802 0.257051
H56   H     H_    0.232909 0.278930 0.164235 0.238373
H57   H     H_    0.332624 0.300867 0.092711 0.279295
H58   H     H_    0.385186 0.136923 0.182326 0.231588
H59   H     H_    0.291286 0.142818 0.274648 0.237199
H60   H     H_    0.344226 0.304753 0.353797 0.226282
H61   H     H_    0.434655 0.287425 0.258558 0.248485
C62   C     C_3   0.597174 0.745870 0.694607 -0.368502
C63   C     C_3   0.666077 0.807289 0.763381 -0.471806
C64   C     C_3   0.721929 0.746780 0.851148 -0.794976
H62   H     H_    0.681661 0.714825 0.921636 0.283137
H63   H     H_    0.754493 0.687461 0.802880 0.239820
H64   H     H_    0.771772 0.792593 0.897172 0.250545
H65   H     H_    0.707872 0.843224 0.697541 0.228942
H66   H     H_    0.634571 0.862829 0.820067 0.228908
H67   H     H_    0.552031 0.724669 0.762811 0.236464
H68   H     H_    0.629854 0.681570 0.662311 0.238318

loop_
_geom_bond_atom_site_label_1
_geom_bond_atom_site_label_2
_ccdc_geom_bond_type
C52   H34   S    
Cu2   O8    S    
Cu1   Cu2   S    
C41   H18   S    
C55   H41   S    
Cu1   O5    S    
C61   H57   S    
Cu2   O2    S    
C44   H25   S    
C46   H20   S    
C53   H46   S    
C48   H30   S    
C7    C11   A    
C50   H40   S    
C62   H67   S    
C51   H37   S    
C32   C36   A    
C28   C29   A    
C59   C60   S    
C37   C40   A    
C64   H63   S    
C38   C39   A    
C57   H52   S    
C49   H28   S    
C33   H7    S    
C54   C55   S    
C58   H50   S    
C45   H24   S    
C10   C56   S    
C59   H61   S    
C20   C24   A    
C15   O8    A    
C19   I3    S    
C42   C43   S    
C9    N1    A    
C16   O7    A    
C10   N2    A    
Cu2   O6    S    
C5    C13   A    
C56   H54   S    
C52   H35   S    
C31   H5    S    
C13   C14   S    
C27   C30   A    
C9    C53   S    
C32   H6    S    
C41   H19   S    
C16   O6    A    
C11   C59   S    
C44   H26   S    
C46   H21   S    
C53   H47   S    
C25   C29   A    
C62   C63   S    
C62   H68   S    
C34   H8    S    
C17   C27   A    
C36   C40   A    
C18   C28   A    
C63   C64   S    
Cu1   O3    S    
C1    O4    A    
C63   H66   S    
C49   H27   S    
C43   H14   S    
C57   H51   S    
C45   C46   S    
C3    C34   A    
C16   C29   S    
C33   C37   A    
C23   H2    S    
C47   H32   S    
C34   C38   A    
C19   C23   A    
Cu1   N2    S    
C5    C9    A    
C45   H23   S    
C1    O1    A    
Cu2   N1    S    
C6    C14   A    
C50   C51   S    
C8    C12   A    
C15   O5    A    
C12   C62   S    
C55   H42   S    
C12   N2    A    
C3    C31   A    
C58   H48   S    
C4    C32   A    
C17   I1    S    
C60   H58   S    
C26   C30   A    
C52   H36   S    
C21   C23   A    
C42   H17   S    
C31   C35   A    
C64   H64   S    
C25   C27   A    
C7    H11   S    
Cu2   O4    S    
C3    C4    S    
C54   H45   S    
C46   H22   S    
C11   N1    A    
C57   C58   S    
C15   C30   S    
C21   H4    S    
C4    C33   A    
C8    C14   A    
C2    O3    A    
C51   H38   S    
C20   I4    S    
C60   H59   S    
C38   C50   S    
C61   H56   S    
C36   C44   S    
C63   H65   S    
C6    C10   A    
C43   H15   S    
C56   C57   S    
C2    O2    A    
C48   H31   S    
C37   C47   S    
C18   I2    S    
C50   H39   S    
C26   C28   A    
C8    H12   S    
C47   H33   S    
C18   C22   A    
C60   C61   S    
Cu1   O1    S    
C43   H13   S    
C53   C54   S    
C49   H29   S    
C48   C49   S    
C20   C26   A    
C35   C39   A    
C51   C52   S    
C55   H43   S    
C22   C24   A    
C41   C42   S    
C19   C25   A    
C17   C21   A    
C58   H49   S    
C1    C39   S    
C44   C45   S    
C2    C40   S    
C7    C13   A    
C22   H3    S    
C59   H60   S    
C35   C41   S    
C42   H16   S    
C24   H1    S    
Cu1   O7    S    
C5    H9    S    
C6    H10   S    
C47   C48   S    
C64   H62   S    
C54   H44   S    
C61   H55   S    
C56   H53   S    
