data_mof_unit_30369.cif
_audit_creation_date              2012-10-26T18:54:52-0400
_audit_creation_method            fapswitch 2.2
_symmetry_space_group_name_H-M    P1
_symmetry_Int_Tables_number       1
_space_group_crystal_system       triclinic
_cell_length_a                    10.789354
_cell_length_b                    9.513218
_cell_length_c                    10.826639
_cell_angle_alpha                 89.1409
_cell_angle_beta                  90.924488
_cell_angle_gamma                 89.77739
_cell_volume                      1110.98319191

loop_
_atom_site_label
_atom_site_type_symbol
_atom_type_description
_atom_site_fract_x
_atom_site_fract_y
_atom_site_fract_z
_atom_type_partial_charge
C1    C     C_R   0.262347 0.500204 0.499730 0.627143
C2    C     C_R   0.506536 0.620387 0.935228 -0.023420
C3    C     C_R   0.536484 0.502943 0.131404 0.034437
C4    C     C_R   0.520137 0.494841 0.872296 0.045928
C5    C     C_R   0.581251 0.382401 0.070049 -0.017716
C6    C     C_R   0.564205 0.374284 0.940230 -0.007973
C7    C     C_3   0.409529 0.733304 0.927821 0.134670
C8    C     C_3   0.418916 0.738365 0.068331 0.140120
C9    C     C_R   0.066607 0.428802 0.595170 0.234905
C10   C     C_R   0.937441 0.428765 0.595399 0.207924
C11   C     C_R   0.871368 0.499440 0.500170 -0.034941
C12   C     C_R   0.737611 0.499729 0.500483 0.623725
C13   C     C_R   0.128488 0.500600 0.500172 -0.043042
C14   C     C_R   0.933175 0.570863 0.404989 0.230795
C15   C     C_R   0.062319 0.572036 0.405377 0.206637
C16   C     C_2   0.645819 0.265769 0.138740 0.297978
C17   C     C_2   0.588971 0.238341 0.880360 0.257664
C18   C     C_R   0.415083 0.075967 0.430757 0.074089
C19   C     C_R   0.585110 0.072867 0.568979 0.081872
C20   C     C_R   0.414922 0.927115 0.430992 0.088241
C21   C     C_R   0.584893 0.924028 0.569281 0.054306
C22   C     C_R   0.510364 0.500922 0.262980 0.594929
C23   C     C_R   0.503664 0.498312 0.738236 0.609167
C24   C     C_R   0.514298 0.624692 0.061381 0.035365
Cl1   Cl    Cl    0.262008 0.671560 0.874416 -0.451512
Cl2   Cl    Cl    0.485013 0.898328 0.121769 -0.575294
Cl3   Cl    Cl    0.150438 0.343680 0.717057 -0.366478
Cl4   Cl    Cl    0.859017 0.345561 0.718422 -0.535623
Cl5   Cl    Cl    0.849216 0.653954 0.282064 -0.402170
Cl6   Cl    Cl    0.140455 0.658358 0.283881 -0.493387
Cu1   Cu    Cu3+1 0.500000 0.640660 0.500000 1.088256
Cu2   Cu    Cu3+1 0.500000 0.359340 0.500000 1.111484
H1    H     H_    0.442225 0.829618 0.879075 0.200235
H2    H     H_    0.334324 0.704940 0.117397 0.216920
H3    H     H_    0.347286 0.133269 0.374964 0.147098
H4    H     H_    0.653357 0.127685 0.624140 0.158859
H5    H     H_    0.346951 0.872245 0.375498 0.179689
H6    H     H_    0.652728 0.866711 0.625023 0.134577
H7    H     H_    0.637613 0.158186 0.108220 0.169945
H8    H     H_    0.682920 0.197976 0.876652 0.153840
N1    N     N_R   0.500000 0.852070 0.500000 -0.239265
N2    N     N_R   0.500000 0.147940 0.500000 -0.235088
O1    O     O_R   0.319640 0.618740 0.499990 -0.472976
O2    O     O_2   0.503206 0.166396 0.842882 -0.441875
O3    O     O_R   0.680360 0.618740 0.500010 -0.488517
O4    O     O_R   0.319620 0.381170 0.499990 -0.484692
O5    O     O_R   0.680380 0.381170 0.500010 -0.465431
O6    O     O_R   0.499990 0.618810 0.319660 -0.470359
O7    O     O_R   0.500010 0.618810 0.680340 -0.512367
O8    O     O_R   0.499960 0.381240 0.319650 -0.492038
O9    O     O_R   0.500040 0.381240 0.680350 -0.454483
O10   O     O_2   0.714111 0.290038 0.226841 -0.432150

loop_
_geom_bond_atom_site_label_1
_geom_bond_atom_site_label_2
_ccdc_geom_bond_type
C2    C4    A    
C11   C12   S    
Cu2   O9    S    
C8    Cl2   S    
C18   H3    S    
C23   O9    A    
Cu1   Cu2   S    
C7    Cl1   S    
C19   N2    A    
C22   O8    A    
C3    C5    A    
C13   C15   A    
C20   N1    A    
C17   O2    D    
C7    C8    S    
Cu1   N1    S    
C8    H2    S    
C20   H5    S    
C7    H1    S    
Cu2   O8    S    
C3    C24   A    
C5    C6    A    
Cu1   O1    S    
Cu1   O7    S    
C12   O5    A    
C21   N1    A    
C9    C10   A    
C19   C21   A    
C22   O6    A    
C18   C20   A    
C19   H4    S    
C18   N2    A    
C2    C24   A    
Cu1   O6    S    
Cu2   O5    S    
C1    O4    A    
C23   O7    A    
C1    C13   S    
C10   C11   A    
C14   Cl5   S    
C16   O10   D    
C9    Cl3   S    
C15   Cl6   S    
C4    C6    A    
Cu1   O3    S    
C10   Cl4   S    
C11   C14   A    
C4    C23   S    
C6    C17   S    
Cu2   N2    S    
C14   C15   A    
C5    C16   S    
C9    C13   A    
C16   H7    S    
C8    C24   S    
Cu2   O4    S    
C1    O1    A    
C21   H6    S    
C2    C7    S    
C12   O3    A    
C3    C22   S    
C17   H8    S    
