data_mof_unit_57399.cif
_audit_creation_date              2012-12-10T18:43:46-0500
_audit_creation_method            fapswitch 2.2
_symmetry_space_group_name_H-M    P1
_symmetry_Int_Tables_number       1
_space_group_crystal_system       triclinic
_cell_length_a                    10.748698
_cell_length_b                    10.658049
_cell_length_c                    9.964197
_cell_angle_alpha                 90.446595
_cell_angle_beta                  104.501481
_cell_angle_gamma                 91.563095
_cell_volume                      1104.59567193

loop_
_atom_site_label
_atom_site_type_symbol
_atom_type_description
_atom_site_fract_x
_atom_site_fract_y
_atom_site_fract_z
_atom_type_partial_charge
C1    C     C_R   0.501580 0.260621 0.499817 0.861163
C2    C     C_2   0.878782 0.478857 0.592217 -0.180071
C3    C     C_2   0.066148 0.437629 0.505788 -0.202084
C4    C     C_2   0.929181 0.438243 0.490082 -0.181792
C5    C     C_R   0.582453 0.063573 0.431802 -0.002240
C6    C     C_R   0.416872 0.936225 0.567709 -0.007193
C7    C     C_R   0.579034 0.934655 0.433404 -0.233264
C8    C     C_R   0.420624 0.065209 0.566591 -0.226752
C9    C     C_R   0.497158 0.871899 0.500879 -0.084019
C10   C     C_R   0.502486 0.128002 0.499004 -0.072184
C11   C     C_1   0.956295 0.509863 0.730441 0.186616
C12   C     C_R   0.498275 0.739331 0.500139 0.882927
C13   C     C_1   0.044995 0.511292 0.268973 0.188077
C14   C     C_1   0.671090 0.126729 0.365024 0.168481
C15   C     C_1   0.327242 0.872658 0.632930 0.176327
C16   C     C_R   0.258474 0.495737 0.441124 0.874707
C17   C     C_R   0.741282 0.496027 0.558606 0.882416
C18   C     C_R   0.574915 0.584470 0.094041 0.176552
C19   C     C_R   0.424130 0.415472 0.908406 0.178582
C20   C     C_R   0.575189 0.584972 0.950824 0.080835
C21   C     C_R   0.426981 0.413969 0.051244 0.117696
C22   C     C_2   0.119812 0.479129 0.406104 -0.171403
H1    H     H_    0.868600 0.415765 0.387433 0.202378
H2    H     H_    0.596023 0.742973 0.846019 0.222070
H3    H     H_    0.296549 0.355899 0.156767 0.229364
H4    H     H_    0.415544 0.252267 0.153448 0.222262
H5    H     H_    0.124788 0.413833 0.607181 0.174429
H6    H     H_    0.641631 0.882910 0.384228 0.157521
H7    H     H_    0.358163 0.116902 0.616001 0.154104
H8    H     H_    0.749601 0.660555 0.187421 0.195819
H9    H     H_    0.628491 0.763246 0.154886 0.179940
H10   H     H_    0.247305 0.338191 0.829421 0.177742
H11   H     H_    0.337501 0.335703 0.718465 0.235762
H12   H     H_    0.713578 0.635512 0.853316 0.238435
N1    N     N_R   0.499970 0.499970 0.857200 -0.128702
N2    N     N_1   0.255588 0.821703 0.685044 -0.182348
N3    N     N_R   0.500030 0.500030 0.142800 -0.121954
N4    N     N_3   0.653883 0.672830 0.189226 -0.393209
N5    N     N_3   0.341003 0.323462 0.821484 -0.440166
N6    N     N_1   0.018308 0.534621 0.840651 -0.183427
N7    N     N_1   0.985256 0.536925 0.159561 -0.192552
N8    N     N_3   0.654454 0.678023 0.907329 -0.468335
N9    N     N_3   0.353193 0.317315 0.097328 -0.445601
N10   N     N_1   0.741911 0.177056 0.311360 -0.205839
O1    O     O_R   0.499990 0.316750 0.614620 -0.624223
O2    O     O_R   0.500010 0.683250 0.385380 -0.590505
O3    O     O_R   0.499990 0.316780 0.385290 -0.634853
O4    O     O_R   0.500010 0.683220 0.614710 -0.628000
O5    O     O_R   0.317810 0.500000 0.571850 -0.629517
O6    O     O_R   0.682190 0.500000 0.428150 -0.596023
O7    O     O_R   0.317810 0.500030 0.342520 -0.620157
O8    O     O_R   0.682190 0.499970 0.657480 -0.619692
Zn1   Zn    Zn3+2 0.500000 0.499980 0.653120 0.942271
Zn2   Zn    Zn3+2 0.500000 0.500020 0.346880 0.959630

loop_
_geom_bond_atom_site_label_1
_geom_bond_atom_site_label_2
_ccdc_geom_bond_type
C17   O6    A    
C13   C22   S    
C20   N8    S    
C16   O7    A    
N1    Zn1   S    
H2    N8    S    
C14   N10   T    
C2    C4    D    
H12   N8    S    
H9    N4    S    
C12   O4    A    
O7    Zn2   S    
O2    Zn2   S    
C6    C9    A    
C13   N7    T    
C18   N4    S    
O1    Zn1   S    
C5    C10   A    
C19   N1    A    
C16   O5    A    
C2    C17   S    
C1    O1    A    
C5    C14   S    
O6    Zn2   S    
C19   N5    S    
O3    Zn2   S    
O5    Zn1   S    
N3    Zn2   S    
C17   O8    A    
C3    H5    S    
H3    N9    S    
C19   C21   A    
C18   N3    A    
H4    N9    S    
C18   C20   A    
O4    Zn1   S    
C9    C12   S    
C2    C11   S    
C11   N6    T    
C15   N2    T    
C21   N3    A    
O8    Zn1   S    
H8    N4    S    
C8    C10   A    
C1    C10   S    
H10   N5    S    
C8    H7    S    
C7    C9    A    
C4    H1    S    
C5    C7    A    
C1    O3    A    
C3    C22   D    
C6    C8    A    
C6    C15   S    
C21   N9    S    
C20   N1    A    
H11   N5    S    
C7    H6    S    
C3    C4    S    
C16   C22   S    
C12   O2    A    
