data_mof_unit_15821.cif
_audit_creation_date              2012-10-26T18:32:23-0400
_audit_creation_method            fapswitch 2.2
_symmetry_space_group_name_H-M    P1
_symmetry_Int_Tables_number       1
_space_group_crystal_system       triclinic
_cell_length_a                    12.383274
_cell_length_b                    13.233351
_cell_length_c                    15.883403
_cell_angle_alpha                 76.581656
_cell_angle_beta                  101.154734
_cell_angle_gamma                 117.535185
_cell_volume                      2233.77676994

loop_
_atom_site_label
_atom_site_type_symbol
_atom_type_description
_atom_site_fract_x
_atom_site_fract_y
_atom_site_fract_z
_atom_type_partial_charge
C1    C     C_R   0.854129 0.285669 0.511557 0.598867
C2    C     C_R   0.225778 0.837993 0.478431 0.001829
C3    C     C_R   0.792382 0.088289 0.600972 -0.032365
C4    C     C_R   0.999516 0.499282 0.659336 0.529331
C5    C     C_R   0.700033 0.017710 0.657119 0.023934
C6    C     C_R   0.580226 0.007218 0.630281 0.077667
C7    C     C_R   0.549611 0.042759 0.540988 0.002816
C8    C     C_R   0.644389 0.129061 0.491688 -0.014113
C9    C     C_R   0.428867 0.996430 0.499046 0.020221
C10   C     C_R   0.398917 0.061397 0.421657 0.020454
C11   C     C_R   0.491628 0.159414 0.379461 0.229590
C12   C     C_3   0.940613 0.365012 0.067981 0.246209
C13   C     C_R   0.614961 0.182411 0.408004 0.244297
C14   C     C_R   0.341778 0.882096 0.526101 0.214162
C15   C     C_R   0.191534 0.911260 0.412255 -0.185150
C16   C     C_R   0.145044 0.713727 0.489651 0.527231
C17   C     C_R   0.767162 0.161643 0.527961 0.014177
C18   C     C_R   0.329338 0.307663 0.630292 0.236703
C19   C     C_R   0.753205 0.632835 0.374805 0.022095
C20   C     C_R   0.644065 0.634869 0.333998 -0.157648
C21   C     C_R   0.535663 0.568948 0.374866 0.245434
C22   C     C_R   0.541142 0.511108 0.461641 0.033779
C23   C     C_3   0.995373 0.497151 0.082962 0.107547
C24   C     C_R   0.649492 0.497472 0.494020 0.105321
C25   C     C_R   0.440079 0.458997 0.514462 -0.063223
C26   C     C_R   0.434653 0.368339 0.584250 0.054506
C27   C     C_R   0.536945 0.343548 0.608784 0.231650
C28   C     C_R   0.000069 0.500145 0.340677 0.564414
C29   C     C_R   0.643822 0.412254 0.566812 -0.118093
C30   C     C_R   0.350383 0.500887 0.505784 0.126654
C31   C     C_R   0.237606 0.347431 0.613282 0.353707
C32   C     C_3   0.945248 0.364873 0.967444 0.221375
C33   C     C_3   0.909070 0.553868 0.924603 0.221920
C34   C     C_3   0.135217 0.566108 0.057918 0.245913
C35   C     C_3   0.914659 0.562079 0.025313 0.026135
C36   C     C_1   0.999114 0.498997 0.251371 -0.005167
C37   C     C_3   0.996043 0.496432 0.916891 0.136068
C38   C     C_3   0.809374 0.285812 0.098670 -0.292043
C39   C     C_3   0.020028 0.300490 0.957251 -0.293863
C40   C     C_3   0.914653 0.084336 0.619935 -0.361996
C41   C     C_3   0.494131 0.977781 0.697791 -0.334782
C42   C     C_3   0.731996 0.959314 0.745762 -0.392925
C43   C     C_3   0.385436 0.626707 0.469413 -0.263254
C44   C     C_3   0.775230 0.489230 0.881633 -0.316721
C45   C     C_3   0.134295 0.570005 0.955793 0.238410
C46   C     C_3   0.784723 0.514602 0.057665 -0.418385
C47   C     C_3   0.970100 0.691714 0.039156 -0.306743
C48   C     C_3   0.194608 0.696549 0.904544 -0.276173
C49   C     C_3   0.222445 0.514661 0.115567 -0.263719
C50   C     C_1   0.997518 0.498007 0.175901 0.019697
C51   C     C_1   0.997365 0.497190 0.824127 0.013036
C52   C     C_1   0.998518 0.498136 0.748727 -0.029625
C53   C     C_R   0.277464 0.022137 0.383835 -0.106185
Cu1   Cu    Cu3+1 0.098280 0.475420 0.519630 1.015577
Cu2   Cu    Cu3+1 0.901720 0.524580 0.480370 0.945996
H1    H     H_    0.101311 0.879320 0.376814 0.129679
H2    H     H_    0.965367 0.205693 0.975029 0.118348
H3    H     H_    0.039234 0.315761 0.888849 0.141894
H4    H     H_    0.983556 0.234104 0.118626 0.324698
H5    H     H_    0.271235 0.722351 0.066039 0.318621
H6    H     H_    0.528112 0.304027 0.299864 0.338464
H7    H     H_    0.303485 0.756321 0.623625 0.328080
H8    H     H_    0.900274 0.993951 0.625162 0.120988
H9    H     H_    0.974704 0.134859 0.567099 0.184373
H10   H     H_    0.960743 0.114375 0.682513 0.164111
H11   H     H_    0.412695 0.992885 0.668867 0.176532
H12   H     H_    0.250700 0.072742 0.327408 0.186310
H13   H     H_    0.462952 0.886637 0.730503 0.151084
H14   H     H_    0.542175 0.034478 0.747946 0.136170
H15   H     H_    0.770242 0.901150 0.738372 0.135667
H16   H     H_    0.800750 0.025754 0.784501 0.123616
H17   H     H_    0.652421 0.905326 0.783704 0.128430
H18   H     H_    0.829261 0.294591 0.869195 0.321080
H19   H     H_    0.670867 0.254917 0.292811 0.323323
H20   H     H_    0.169851 0.273100 0.723765 0.305230
H21   H     H_    0.613045 0.250736 0.686432 0.298389
H22   H     H_    0.228177 0.156810 0.692538 0.310440
H23   H     H_    0.834923 0.679837 0.341136 0.126416
H24   H     H_    0.391901 0.669788 0.523054 0.188699
H25   H     H_    0.479175 0.677132 0.449813 0.110419
H26   H     H_    0.320468 0.636752 0.413104 0.189607
H27   H     H_    0.436607 0.601108 0.270655 0.314714
H28   H     H_    0.898885 0.700997 0.872229 0.323433
H29   H     H_    0.719780 0.403914 0.917694 0.170945
H30   H     H_    0.723042 0.540217 0.875978 0.106318
H31   H     H_    0.775463 0.478572 0.814411 0.156614
H32   H     H_    0.791950 0.517025 0.128026 0.134619
H33   H     H_    0.736951 0.568143 0.022975 0.125732
H34   H     H_    0.643147 0.683905 0.269209 0.082525
H35   H     H_    0.717971 0.428102 0.047143 0.115455
H36   H     H_    0.993171 0.699237 0.109257 0.152038
H37   H     H_    0.051022 0.751687 0.005015 0.203426
H38   H     H_    0.905030 0.730446 0.013397 0.085758
H39   H     H_    0.293192 0.564803 0.960888 0.319027
H40   H     H_    0.181456 0.697639 0.833312 0.156289
H41   H     H_    0.163127 0.756065 0.917539 0.179230
H42   H     H_    0.295191 0.737304 0.922025 0.076110
H43   H     H_    0.319991 0.577264 0.110291 0.069716
H44   H     H_    0.208925 0.496168 0.185515 0.191362
H45   H     H_    0.719819 0.393507 0.591530 0.164322
H46   H     H_    0.214919 0.436386 0.096746 0.186856
H47   H     H_    0.793469 0.194130 0.117340 0.135831
H48   H     H_    0.796782 0.310032 0.157111 0.117963
H49   H     H_    0.732954 0.280662 0.048366 0.158305
H50   H     H_    0.107389 0.322206 0.998983 0.184217
N1    N     N_R   0.246300 0.438200 0.549400 -0.219067
N2    N     N_R   0.754300 0.561180 0.451130 -0.236009
O1    O     O_R   0.972520 0.318130 0.524690 -0.459873
O2    O     O_3   0.184173 0.678583 0.078059 -0.758166
O3    O     O_3   0.460090 0.225036 0.306884 -0.718573
O4    O     O_3   0.375890 0.810993 0.592161 -0.728850
O5    O     O_3   0.826285 0.298818 0.930269 -0.767038
O6    O     O_3   0.706970 0.251347 0.354150 -0.699740
O7    O     O_3   0.142570 0.302022 0.664281 -0.689733
O8    O     O_3   0.534669 0.256864 0.677729 -0.637951
O9    O     O_3   0.316467 0.209443 0.690059 -0.644931
O10   O     O_3   0.423674 0.555293 0.329934 -0.710928
O11   O     O_3   0.954257 0.665158 0.873509 -0.746911
O12   O     O_R   0.806530 0.359650 0.491530 -0.484129
O13   O     O_3   0.205646 0.518214 0.942199 -0.758815
O14   O     O_R   0.083030 0.479240 0.637150 -0.438181
O15   O     O_R   0.917040 0.520750 0.603990 -0.525494
O16   O     O_R   0.193470 0.640350 0.508470 -0.517073
O17   O     O_R   0.027480 0.681870 0.475310 -0.507619
O18   O     O_R   0.082960 0.479250 0.396010 -0.483462
O19   O     O_R   0.916970 0.520760 0.362850 -0.494701
O20   O     O_3   0.014847 0.316637 0.123513 -0.748780

loop_
_geom_bond_atom_site_label_1
_geom_bond_atom_site_label_2
_ccdc_geom_bond_type
C5    C42   S    
C8    C13   A    
C12   C32   S    
C48   H40   S    
C27   C29   A    
C47   H37   S    
C19   C20   A    
C18   C26   A    
Cu1   O16   S    
C35   C47   S    
C7    C8    A    
C12   O20   S    
Cu2   O12   S    
C48   H42   S    
C12   C23   S    
C26   C27   A    
C40   H8    S    
C4    C52   S    
C15   C53   A    
H28   O11   S    
C16   O16   A    
C49   H46   S    
C5    C6    A    
C37   C51   S    
H4    O20   S    
C39   H2    S    
C42   H15   S    
H21   O8    S    
C39   H50   S    
C1    O12   A    
C32   C39   S    
C10   C53   A    
C24   C29   A    
C21   O10   S    
H5    O2    S    
C49   H43   S    
Cu1   Cu2   S    
H39   O13   S    
H7    O4    S    
C22   C25   A    
C38   H49   S    
H22   O9    S    
C32   O5    S    
C9    C10   A    
C31   O7    S    
Cu2   O15   S    
C33   O11   S    
C21   C22   A    
C30   N1    A    
C11   O3    S    
C12   C38   S    
C44   H31   S    
H6    O3    S    
C28   O19   A    
C41   H13   S    
C46   H33   S    
C14   O4    S    
Cu1   O18   S    
Cu1   N1    S    
C51   C52   T    
C18   O9    S    
H20   O7    S    
C23   C50   S    
C3    C5    A    
C25   C26   A    
C39   H3    S    
C6    C41   S    
C33   C37   S    
Cu2   N2    S    
C19   H23   S    
C9    C14   A    
C38   H48   S    
C49   H44   S    
Cu2   O19   S    
C23   C34   S    
C42   H17   S    
C47   H38   S    
C4    O15   A    
C34   C45   S    
C32   C37   S    
C2    C15   A    
C41   H11   S    
C45   O13   S    
Cu1   O14   S    
C3    C40   S    
C23   C35   S    
C40   H10   S    
C43   H26   S    
C31   N1    A    
C22   C24   A    
C30   C43   S    
C37   C45   S    
C44   H30   S    
C36   C50   T    
C28   O18   A    
H18   O5    S    
C41   H14   S    
C46   H32   S    
C45   C48   S    
C2    C14   A    
C25   C30   A    
C7    C9    A    
Cu2   O17   S    
C34   C49   S    
C48   H41   S    
C29   H45   S    
C33   C44   S    
C47   H36   S    
C44   H29   S    
C6    C7    A    
C46   H35   S    
C2    C16   S    
C20   H34   S    
C1    C17   S    
C8    C17   A    
C40   H9    S    
Cu1   O1    S    
C15   H1    S    
C24   N2    A    
C43   H25   S    
C38   H47   S    
C11   C13   A    
C42   H16   S    
C33   C35   S    
C4    O14   A    
C3    C17   A    
H19   O6    S    
C16   O17   A    
C53   H12   S    
C10   C11   A    
C1    O1    A    
C20   C21   A    
C28   C36   S    
C34   O2    S    
C18   C31   A    
H27   O10   S    
C35   C46   S    
C43   H24   S    
C13   O6    S    
C19   N2    A    
C27   O8    S    
