data_mof_unit_40167.cif
_audit_creation_date              2012-12-10T18:44:20-0500
_audit_creation_method            fapswitch 2.2
_symmetry_space_group_name_H-M    P1
_symmetry_Int_Tables_number       1
_space_group_crystal_system       triclinic
_cell_length_a                    12.870826
_cell_length_b                    10.70045
_cell_length_c                    9.837775
_cell_angle_alpha                 89.496547
_cell_angle_beta                  96.986573
_cell_angle_gamma                 89.888308
_cell_volume                      1344.77543351

loop_
_atom_site_label
_atom_site_type_symbol
_atom_type_description
_atom_site_fract_x
_atom_site_fract_y
_atom_site_fract_z
_atom_type_partial_charge
C1    C     C_R   0.505812 0.259852 0.501958 0.921590
C2    C     C_R   0.506120 0.739990 0.500520 0.915637
C3    C     C_R   0.522527 0.871901 0.503614 -0.238878
C4    C     C_R   0.521980 0.127664 0.507728 -0.241418
C5    C     C_R   0.586082 0.538166 0.085001 -0.051255
C6    C     C_R   0.414477 0.459905 0.915026 -0.041842
C7    C     C_R   0.585865 0.538855 0.941217 -0.107632
C8    C     C_R   0.414379 0.460340 0.058804 -0.071928
C9    C     C_R   0.298101 0.499922 0.473358 0.896684
C10   C     C_R   0.701822 0.501108 0.526660 0.846528
C11   C     C_R   0.813797 0.501441 0.542978 -0.036861
C12   C     C_R   0.186000 0.503103 0.457495 -0.051215
C13   C     C_R   0.021659 0.551988 0.323906 -0.223362
C14   C     C_R   0.978301 0.456139 0.677512 -0.221449
C15   C     C_R   0.129460 0.541062 0.333297 -0.200613
C16   C     C_R   0.870431 0.464537 0.667452 -0.216319
C17   C     C_R   0.135614 0.473522 0.571225 -0.274710
C18   C     C_R   0.864107 0.533756 0.429961 -0.296856
C19   C     C_R   0.028634 0.484409 0.563021 0.189398
C20   C     C_R   0.971240 0.524165 0.438472 0.189570
C21   C     C_R   0.538904 0.066384 0.387513 -0.335899
C22   C     C_R   0.515676 0.933292 0.626927 -0.335406
C23   C     C_R   0.546489 0.938183 0.387203 0.518466
C24   C     C_R   0.522612 0.060943 0.632147 0.503568
H1    H     H_    0.819898 0.564431 0.334483 0.144202
H2    H     H_    0.179614 0.442733 0.666787 0.151013
H3    H     H_    0.831361 0.439363 0.755282 0.152945
H4    H     H_    0.168574 0.564626 0.245051 0.160321
H5    H     H_    0.977994 0.582390 0.228083 0.136577
H6    H     H_    0.022006 0.426068 0.773431 0.138127
H7    H     H_    0.547932 0.117390 0.294009 0.201524
H8    H     H_    0.505043 0.883006 0.720336 0.207636
H9    H     H_    0.655388 0.567484 0.149586 0.108640
H10   H     H_    0.346132 0.427262 0.850496 0.129673
H11   H     H_    0.654557 0.570082 0.897488 0.128235
H12   H     H_    0.345926 0.428425 0.102605 0.128990
N1    N     N_R   0.499970 0.499970 0.857200 -0.083108
N2    N     N_R   0.500030 0.500030 0.142800 -0.076656
O1    O     O_R   0.499990 0.316750 0.614620 -0.586388
O2    O     O_R   0.500010 0.683250 0.385380 -0.576385
O3    O     O_R   0.499990 0.316780 0.385290 -0.622866
O4    O     O_R   0.500010 0.683220 0.614710 -0.623773
O5    O     O_R   0.346360 0.499970 0.595710 -0.626474
O6    O     O_R   0.653640 0.500030 0.404290 -0.641320
O7    O     O_R   0.346360 0.499990 0.366380 -0.630310
O8    O     O_R   0.653640 0.500010 0.633620 -0.645567
Zn1   Zn    Zn3+2 0.500000 0.499980 0.653120 0.949683
Zn2   Zn    Zn3+2 0.500000 0.500020 0.346880 0.958007
O9    O     O_3   0.571912 0.880698 0.270063 -0.625168
C25   C     C_3   0.676628 0.836394 0.292237 0.114731
H13   H     H_    0.688684 0.776426 0.204136 0.158748
H14   H     H_    0.691524 0.776501 0.385779 0.119752
C26   C     C_3   0.756751 0.943068 0.298345 -0.416804
H15   H     H_    0.736919 0.007121 0.209706 0.244879
H16   H     H_    0.754478 0.997235 0.393789 0.216190
C27   C     C_3   0.867559 0.892480 0.296634 -0.940611
H17   H     H_    0.889269 0.829856 0.386330 0.271413
H18   H     H_    0.923705 0.971421 0.301368 0.273948
H19   H     H_    0.873250 0.839666 0.201090 0.255219
O10   O     O_3   0.521170 0.118014 0.757782 -0.622905
C28   C     C_3   0.624082 0.155304 0.809256 0.145424
H20   H     H_    0.617167 0.232681 0.882281 0.171319
H21   H     H_    0.668934 0.193654 0.728058 0.114870
C29   C     C_3   0.685215 0.047787 0.886145 -0.405082
H22   H     H_    0.641311 0.012589 0.969132 0.247909
H23   H     H_    0.694667 0.969872 0.814774 0.219636
C30   C     C_3   0.793764 0.090633 0.947644 -0.970676
H24   H     H_    0.838576 0.126519 0.865920 0.267729
H25   H     H_    0.837357 0.010520 0.999697 0.277999
H26   H     H_    0.787151 0.165459 0.023742 0.262954

loop_
_geom_bond_atom_site_label_1
_geom_bond_atom_site_label_2
_ccdc_geom_bond_type
C12   C17   A    
C10   O8    A    
C28   C29   S    
C25   H14   S    
C12   C15   A    
C11   C18   A    
C9    O7    A    
C14   C16   A    
N1    Zn1   S    
C11   C16   A    
C3    C23   A    
C19   C20   A    
C27   H19   S    
C24   O10   S    
C30   H26   S    
C6    H10   S    
C29   H22   S    
C1    C4    S    
C16   H3    S    
C13   C15   A    
C25   H13   S    
C7    N1    A    
C6    N1    A    
C26   H15   S    
C4    C21   A    
C21   H7    S    
C5    H9    S    
C15   H4    S    
C18   H1    S    
C22   H8    S    
C8    N2    A    
C2    O4    A    
C17   H2    S    
C1    O3    A    
C17   C19   A    
O3    Zn2   S    
C14   H6    S    
C2    C3    S    
C18   C20   A    
O4    Zn1   S    
C26   H16   S    
C21   C23   A    
C28   H20   S    
C4    C24   A    
C9    C12   S    
C22   C24   A    
C9    O5    A    
C25   C26   S    
C23   O9    S    
C10   C11   S    
C1    O1    A    
C10   O6    A    
C30   H24   S    
C29   C30   S    
C2    O2    A    
C7    H11   S    
N2    Zn2   S    
C27   H17   S    
O1    Zn1   S    
O9    C25   S    
C8    H12   S    
C26   C27   S    
C13   H5    S    
C5    C7    A    
O2    Zn2   S    
O8    Zn1   S    
C3    C22   A    
C6    C8    A    
O7    Zn2   S    
C13   C20   A    
C5    N2    A    
O5    Zn1   S    
C14   C19   A    
C28   H21   S    
O6    Zn2   S    
C27   H18   S    
O10   C28   S    
C30   H25   S    
C29   H23   S    
