data_mof_unit_48971.cif
_audit_creation_date              2013-03-05T15:56:52-0500
_audit_creation_method            fapswitch 2.2
_symmetry_space_group_name_H-M    P1
_symmetry_Int_Tables_number       1
_space_group_crystal_system       triclinic
_cell_length_a                    19.870263
_cell_length_b                    22.529094
_cell_length_c                    13.957833
_cell_angle_alpha                 90.307124
_cell_angle_beta                  89.310487
_cell_angle_gamma                 89.867063
_cell_volume                      6247.78990544

loop_
_atom_site_label
_atom_site_type_symbol
_atom_site_description
_atom_site_fract_x
_atom_site_fract_y
_atom_site_fract_z
_atom_type_partial_charge
O1    O     O_R   0.064880 0.435140 0.582280 -0.529355
O2    O     O_R   0.935120 0.564860 0.417720 -0.513082
O3    O     O_R   0.935120 0.564860 0.582280 -0.526644
O4    O     O_R   0.064880 0.435140 0.417720 -0.516669
O5    O     O_R   0.935120 0.435140 0.417720 -0.566842
O6    O     O_R   0.064880 0.564860 0.582280 -0.523689
O7    O     O_R   0.064880 0.564860 0.417720 -0.566993
O8    O     O_R   0.935120 0.435140 0.582280 -0.543342
O9    O     O_R   0.564880 0.935140 0.582280 -0.522131
O10   O     O_R   0.435120 0.064860 0.417720 -0.518758
O11   O     O_R   0.435120 0.064860 0.582280 -0.524487
O12   O     O_R   0.564880 0.935140 0.417720 -0.517855
O13   O     O_R   0.435120 0.935140 0.417720 -0.554369
O14   O     O_R   0.564880 0.064860 0.582280 -0.543987
O15   O     O_R   0.564880 0.064860 0.417720 -0.549437
O16   O     O_R   0.435120 0.935140 0.582280 -0.556710
C1    C     C_R   0.086937 0.415814 0.499613 0.828472
C2    C     C_R   0.914354 0.585206 0.500406 0.842345
C3    C     C_R   0.914694 0.414311 0.500147 0.837026
C4    C     C_R   0.085581 0.585319 0.499850 0.808092
C5    C     C_R   0.585645 0.914795 0.499598 0.821954
C6    C     C_R   0.412494 0.083693 0.500410 0.850866
C7    C     C_R   0.414476 0.914709 0.500143 0.808564
C8    C     C_R   0.585511 0.085524 0.499861 0.837432
Cu1   Cu    Cu3+1 1.000000 0.500000 0.597420 1.099976
Cu2   Cu    Cu3+1 0.000000 0.500000 0.402580 1.075764
Cu3   Cu    Cu3+1 0.500000 0.000000 0.597420 1.082633
Cu4   Cu    Cu3+1 0.500000 0.000000 0.402580 1.086043
C9    C     C_R   0.111249 0.691898 0.506541 -0.190299
C10   C     C_R   0.849555 0.337954 0.414328 -0.191360
C11   C     C_R   0.886549 0.689678 0.472177 -0.180624
C12   C     C_R   0.116689 0.313871 0.539680 -0.151743
C13   C     C_R   0.651832 0.160952 0.585875 -0.149105
C14   C     C_R   0.388779 0.808326 0.492725 -0.191519
C15   C     C_R   0.382109 0.185325 0.460786 -0.162312
C16   C     C_R   0.613460 0.810339 0.527900 -0.169334
C17   C     C_R   0.133992 0.633514 0.499554 -0.059216
C18   C     C_R   0.866593 0.365596 0.500468 -0.100052
C19   C     C_R   0.866063 0.633416 0.500919 -0.027194
C20   C     C_R   0.135468 0.367723 0.499537 -0.044715
C21   C     C_R   0.634232 0.133746 0.499621 -0.103514
C22   C     C_R   0.366095 0.866624 0.500332 -0.067307
C23   C     C_R   0.363449 0.131389 0.500537 -0.030469
C24   C     C_R   0.633939 0.866591 0.499109 -0.028360
C25   C     C_R   0.202735 0.620960 0.492592 -0.146742
C26   C     C_R   0.837723 0.346759 0.586971 -0.148739
C27   C     C_R   0.799392 0.622657 0.527881 -0.018641
C28   C     C_R   0.200407 0.375903 0.462269 -0.066360
C29   C     C_R   0.663257 0.152446 0.413148 -0.137664
C30   C     C_R   0.297421 0.879260 0.507138 -0.185645
C31   C     C_R   0.298364 0.122893 0.537502 -0.045355
C32   C     C_R   0.700611 0.877349 0.472160 -0.063209
C33   C     C_R   0.250361 0.667106 0.492130 -0.001139
C34   C     C_R   0.791215 0.300268 0.588813 -0.006393
C35   C     C_R   0.751663 0.668678 0.527947 -0.027376
C36   C     C_R   0.246732 0.328647 0.459744 -0.022054
C37   C     C_R   0.710220 0.198588 0.411379 -0.014150
C38   C     C_R   0.249649 0.833275 0.506680 -0.001469
C39   C     C_R   0.252013 0.170177 0.540953 -0.032256
C40   C     C_R   0.748349 0.831341 0.472160 -0.016945
C41   C     C_R   0.226937 0.726500 0.499348 0.018036
C42   C     C_R   0.774053 0.272673 0.500779 0.036162
C43   C     C_R   0.773020 0.726293 0.500193 0.018090
C44   C     C_R   0.226872 0.273566 0.500058 0.023824
C45   C     C_R   0.727491 0.226103 0.499432 0.021361
C46   C     C_R   0.273019 0.773861 0.499559 0.019494
C47   C     C_R   0.271805 0.225299 0.500467 0.023787
C48   C     C_R   0.726995 0.773728 0.499927 0.021392
C49   C     C_R   0.157289 0.738593 0.506282 0.070667
C50   C     C_R   0.803471 0.291709 0.413822 0.057747
C51   C     C_R   0.840563 0.736480 0.472394 0.069998
C52   C     C_R   0.162034 0.266802 0.540577 0.063384
C53   C     C_R   0.698117 0.207035 0.586403 0.057775
C54   C     C_R   0.342681 0.761751 0.492601 0.080408
C55   C     C_R   0.336656 0.232209 0.459861 0.065344
C56   C     C_R   0.659450 0.763542 0.527720 0.068753
C57   C     C_R   0.320459 0.655931 0.484622 0.322984
C58   C     C_R   0.761297 0.280641 0.675669 0.318081
C59   C     C_R   0.683506 0.659075 0.554805 0.413571
C60   C     C_R   0.312141 0.334366 0.418906 0.388012
C61   C     C_R   0.740384 0.218014 0.324560 0.407524
C62   C     C_R   0.179530 0.844614 0.513130 0.377088
C63   C     C_R   0.186720 0.164742 0.582790 0.392941
C64   C     C_R   0.816509 0.840952 0.445339 0.414585
C65   C     C_R   0.786713 0.264475 0.327145 -0.234692
C66   C     C_R   0.134330 0.797119 0.512834 -0.237673
C67   C     C_R   0.142739 0.213067 0.581172 -0.216072
C68   C     C_R   0.861591 0.793222 0.445481 -0.227048
C69   C     C_R   0.365639 0.703336 0.485239 -0.246967
C70   C     C_R   0.715054 0.234127 0.673110 -0.226388
C71   C     C_R   0.638427 0.706805 0.554661 -0.228085
C72   C     C_R   0.356044 0.286052 0.419666 -0.218963
H1    H     H_    0.057671 0.700786 0.512143 0.118317
H2    H     H_    0.872251 0.352316 0.347332 0.167518
H3    H     H_    0.938471 0.696921 0.450472 0.118670
H4    H     H_    0.066427 0.308724 0.569803 0.136314
H5    H     H_    0.629273 0.146493 0.652912 0.181546
H6    H     H_    0.442351 0.799413 0.486985 0.118257
H7    H     H_    0.432424 0.190679 0.430925 0.138913
H8    H     H_    0.561535 0.803096 0.549598 0.118575
H9    H     H_    0.217958 0.574960 0.488093 0.211632
H10   H     H_    0.851727 0.369000 0.652388 0.240652
H11   H     H_    0.785699 0.578057 0.547827 0.208236
H12   H     H_    0.213978 0.419331 0.436468 0.232266
H13   H     H_    0.648933 0.130425 0.347687 0.234869
H14   H     H_    0.282524 0.925222 0.512440 0.186232
H15   H     H_    0.284726 0.079209 0.561862 0.223199
H16   H     H_    0.714300 0.921942 0.452180 0.199999
H17   H     H_    0.810049 0.279688 0.261191 0.202156
H18   H     H_    0.080711 0.805646 0.517848 0.194463
H19   H     H_    0.092446 0.208774 0.611166 0.204936
H20   H     H_    0.913664 0.800176 0.424694 0.204163
H21   H     H_    0.419237 0.694822 0.479545 0.195699
H22   H     H_    0.691868 0.218816 0.739110 0.200490
H23   H     H_    0.586355 0.699855 0.575460 0.204036
H24   H     H_    0.406346 0.290482 0.389800 0.210002
C73   C     C_R   0.054884 0.477990 0.795257 0.461700
C74   C     C_R   0.944876 0.521868 0.204845 0.425345
C75   C     C_R   0.944992 0.521865 0.797389 0.458697
C76   C     C_R   0.054505 0.477707 0.202122 0.425039
C77   C     C_R   0.555158 0.978153 0.795081 0.459495
C78   C     C_R   0.445210 0.022121 0.204637 0.430826
C79   C     C_R   0.445608 0.022423 0.797925 0.421431
C80   C     C_R   0.555050 0.978150 0.202645 0.451113
N1    N     N_R   0.000000 0.500000 0.743810 -0.294136
N2    N     N_R   0.000000 0.500000 0.256190 -0.295363
N3    N     N_R   0.500000 0.000000 0.743810 -0.295041
N4    N     N_R   0.500000 0.000000 0.256190 -0.294246
C81   C     C_R   0.950429 0.530601 0.898539 -0.093018
C82   C     C_R   0.048666 0.468715 0.101115 -0.092295
C83   C     C_R   0.049051 0.469020 0.896327 -0.093066
C84   C     C_R   0.950328 0.530554 0.103539 -0.088452
C85   C     C_R   0.451554 0.031472 0.898886 -0.092802
C86   C     C_R   0.549690 0.969462 0.101456 -0.098739
C87   C     C_R   0.549815 0.969536 0.896413 -0.097351
C88   C     C_R   0.451203 0.031195 0.103618 -0.093281
C89   C     C_R   0.999662 0.499769 0.948566 0.036132
C90   C     C_R   0.999541 0.499686 0.051188 0.033581
C91   C     C_R   0.500621 0.000414 0.948789 0.029597
C92   C     C_R   0.500505 0.000334 0.051406 0.028321
C93   C     C_R   0.906432 0.567623 0.952045 -0.069682
C94   C     C_R   0.092312 0.431353 0.047604 -0.065119
C95   C     C_R   0.092699 0.431689 0.947579 -0.065094
C96   C     C_R   0.906431 0.567644 0.052141 -0.065986
C97   C     C_R   0.408117 0.069032 0.952361 -0.068161
C98   C     C_R   0.593788 0.932537 0.047918 -0.069949
C99   C     C_R   0.593868 0.932591 0.947811 -0.069219
C100  C     C_R   0.407816 0.068772 0.052385 -0.067586
H25   H     H_    0.871530 0.597156 0.917306 0.209262
H26   H     H_    0.126843 0.401452 0.082282 0.212731
H27   H     H_    0.127617 0.402176 0.911137 0.210867
H28   H     H_    0.871600 0.597265 0.088526 0.210034
H29   H     H_    0.373707 0.099026 0.917643 0.212668
H30   H     H_    0.628737 0.903040 0.082636 0.210369
H31   H     H_    0.628872 0.903133 0.911422 0.210801
H32   H     H_    0.373146 0.098500 0.088869 0.211846
S1    S     S_3+6 0.353524 0.583541 0.471754 0.062115
O17   O     O_2   0.428955 0.584091 0.461864 -0.225577
O18   O     O_2   0.334058 0.548125 0.558677 -0.208937
O19   O     O_3   0.320325 0.552181 0.373548 -0.461048
H33   H     H_    0.330595 0.580165 0.320836 0.350823
S2    S     S_3+6 0.780104 0.312871 0.788630 0.061843
O20   O     O_2   0.759776 0.377163 0.788231 -0.190960
O21   O     O_2   0.742978 0.281993 0.868459 -0.212775
O22   O     O_3   0.863303 0.308329 0.808187 -0.501954
H34   H     H_    0.874359 0.265660 0.800534 0.356258
S3    S     S_3+6 0.652338 0.588503 0.589097 0.044524
O23   O     O_2   0.665705 0.544480 0.509760 -0.260073
O24   O     O_2   0.687670 0.568675 0.678028 -0.234696
O25   O     O_3   0.569001 0.591668 0.611409 -0.487280
H35   H     H_    0.555915 0.550393 0.626941 0.410461
S4    S     S_3+6 0.343705 0.401576 0.372321 0.076563
O26   O     O_2   0.295700 0.427182 0.301160 -0.179980
O27   O     O_2   0.351731 0.443576 0.455020 -0.188992
O28   O     O_3   0.419029 0.391225 0.318399 -0.506379
H36   H     H_    0.434875 0.431628 0.302086 0.407478
S5    S     S_3+6 0.722013 0.185366 0.211803 0.048574
O29   O     O_2   0.759808 0.215913 0.132272 -0.211032
O30   O     O_2   0.741869 0.120942 0.213353 -0.242141
O31   O     O_3   0.638912 0.190889 0.191852 -0.523648
H37   H     H_    0.630411 0.163773 0.137239 0.387373
S6    S     S_3+6 0.146418 0.917305 0.522447 0.072559
O32   O     O_2   0.070999 0.916507 0.532193 -0.195215
O33   O     O_2   0.175295 0.946633 0.609747 -0.239239
O34   O     O_3   0.167791 0.955407 0.423116 -0.472069
H38   H     H_    0.201235 0.985295 0.443435 0.380561
S7    S     S_3+6 0.154796 0.098662 0.633646 0.069090
O35   O     O_2   0.134037 0.058745 0.552969 -0.223956
O36   O     O_2   0.206614 0.068277 0.693654 -0.179962
O37   O     O_3   0.086903 0.113549 0.702939 -0.508774
H39   H     H_    0.068969 0.074189 0.721389 0.407651
S8    S     S_3+6 0.847676 0.911535 0.411105 0.039955
O38   O     O_2   0.812380 0.931371 0.322150 -0.230454
O39   O     O_2   0.834262 0.955542 0.490449 -0.284492
O40   O     O_3   0.931022 0.908388 0.388862 -0.483676
H40   H     H_    0.944109 0.949670 0.373382 0.412155
S9    S     S_3+6 0.138415 0.466777 0.746556 0.049544
O41   O     O_2   0.188656 0.484920 0.820904 -0.251142
O42   O     O_2   0.147817 0.401643 0.726264 -0.310273
O43   O     O_3   0.158156 0.505192 0.647815 -0.501977
H41   H     H_    0.201699 0.488494 0.625051 0.377836
S10   S     S_3+6 0.861433 0.533374 0.253934 0.048361
O44   O     O_2   0.852273 0.598459 0.274652 -0.271860
O45   O     O_2   0.810788 0.516140 0.179460 -0.268560
O46   O     O_3   0.841309 0.495300 0.353065 -0.493302
H42   H     H_    0.816657 0.459776 0.330624 0.364240
S11   S     S_3+6 0.861772 0.533009 0.751226 0.064502
O47   O     O_2   0.811467 0.515057 0.827126 -0.223683
O48   O     O_2   0.852310 0.598041 0.731935 -0.301210
O49   O     O_3   0.842700 0.494283 0.652533 -0.519792
H43   H     H_    0.793429 0.487917 0.655697 0.395631
S12   S     S_3+6 0.137521 0.465945 0.247530 0.048994
O50   O     O_2   0.145532 0.400923 0.267965 -0.275923
O51   O     O_2   0.188347 0.482072 0.171216 -0.259676
O52   O     O_3   0.157687 0.505221 0.345140 -0.513316
H44   H     H_    0.177926 0.542381 0.320559 0.367119
S13   S     S_3+6 0.638602 0.966916 0.745929 0.040975
O53   O     O_2   0.689042 0.985216 0.819911 -0.253695
O54   O     O_2   0.647994 0.901753 0.725829 -0.309035
O55   O     O_3   0.658171 0.005159 0.646937 -0.506781
H45   H     H_    0.702412 0.989356 0.625324 0.376441
S14   S     S_3+6 0.361621 0.033438 0.253099 0.042700
O56   O     O_2   0.352351 0.098406 0.274602 -0.272214
O57   O     O_2   0.311252 0.016588 0.178035 -0.272679
O58   O     O_3   0.341246 0.994776 0.351458 -0.519573
H46   H     H_    0.319848 0.957900 0.327826 0.362922
S15   S     S_3+6 0.362599 0.034201 0.752642 0.052480
O59   O     O_2   0.311835 0.018271 0.829156 -0.249890
O60   O     O_2   0.354620 0.099182 0.731838 -0.278703
O61   O     O_3   0.342389 0.994710 0.655264 -0.515434
H47   H     H_    0.321551 0.957848 0.680006 0.373545
S16   S     S_3+6 0.638260 0.967010 0.248870 0.056519
O62   O     O_2   0.647745 0.901965 0.268027 -0.294146
O63   O     O_2   0.688587 0.985047 0.173053 -0.233475
O64   O     O_3   0.657302 0.005650 0.347657 -0.526191
H48   H     H_    0.706588 0.011943 0.344608 0.394960

loop_
_geom_bond_atom_site_label_1
_geom_bond_atom_site_label_2
_geom_bond_distance
_ccdc_geom_bond_type
C84   C96   1.411328 A    
C63   C67   1.394945 A    
C76   S12   1.793829 S    
O22   H34   0.990513 S    
O8    Cu1   1.963124 S    
O5    Cu2   1.961470 S    
O2    C2    1.301665 A    
C14   C22   1.390702 A    
C88   C92   1.395853 A    
C44   C52   1.409691 A    
C23   C31   1.400536 A    
C97   C100  1.396103 A    
O34   H38   0.989945 S    
C93   H25   1.080817 S    
S3    O24   1.502891 D    
O46   H42   0.990636 S    
C58   C70   1.395892 A    
S13   O55   1.674526 S    
C87   C91   1.395723 A    
C26   H10   1.078927 S    
C57   C69   1.396816 A    
S1    O17   1.503607 D    
C7    C22   1.450017 S    
S10   O45   1.505545 D    
O12   Cu4   1.960354 S    
C76   C82   1.429390 A    
C13   C53   1.388645 A    
C54   C69   1.394716 A    
C27   C35   1.403495 A    
C66   H18   1.083533 S    
C39   C63   1.422137 A    
C53   C70   1.397611 A    
C77   N3    1.405624 A    
C65   H17   1.083413 S    
C38   C62   1.417632 A    
C86   C92   1.394783 A    
S7    O36   1.501307 D    
C76   N2    1.403027 A    
C49   C66   1.396395 A    
O6    Cu1   1.961467 S    
C79   S15   1.793134 S    
O25   H35   0.990565 S    
S9    O41   1.504287 D    
C84   C90   1.395705 A    
C46   C54   1.412315 A    
C29   C37   1.398671 A    
O13   C7    1.303399 A    
O3    C2    1.304761 A    
C20   C28   1.398414 A    
Cu2   N2    2.043287 S    
O14   C8    1.305162 A    
S9    O42   1.503801 D    
Cu1   N1    2.043287 S    
S6    O32   1.503278 D    
S7    O37   1.682516 S    
C16   C56   1.393594 A    
C39   C47   1.421488 A    
Cu3   N3    2.043287 S    
C41   C46   1.407672 A    
C38   C46   1.418372 A    
S15   O59   1.505537 D    
C11   C19   1.391817 A    
O43   H41   0.990802 S    
S5    O30   1.503519 D    
S10   O46   1.676658 S    
C35   C43   1.420915 A    
S11   O49   1.674406 S    
O64   H48   0.990306 S    
C36   C44   1.420100 A    
O13   Cu4   1.961470 S    
C30   H14   1.078226 S    
O14   Cu3   1.961467 S    
C99   H31   1.080714 S    
C59   C71   1.397959 A    
S4    O28   1.682357 S    
C80   N4    1.404026 A    
C97   H29   1.080877 S    
C24   C32   1.394907 A    
O16   Cu3   1.963124 S    
C95   H27   1.080730 S    
C25   C33   1.407437 A    
S1    O18   1.502904 D    
O1    Cu1   1.955314 S    
C8    C21   1.456820 S    
C42   C50   1.410118 A    
C63   S7    1.768448 S    
C74   S10   1.804023 S    
C33   C41   1.418395 A    
C15   H7    1.085758 S    
C83   C95   1.410414 A    
C21   C29   1.398837 A    
O55   H45   0.990731 S    
C10   C50   1.388713 A    
S4    O27   1.498855 D    
S3    O25   1.682554 S    
C9    C49   1.395739 A    
C86   C98   1.411533 A    
C69   H21   1.083619 S    
O8    C3    1.305943 A    
C27   H11   1.078713 S    
S10   O44   1.503251 D    
C98   C99   1.397274 A    
S11   O47   1.505346 D    
C30   C38   1.406775 A    
S8    O40   1.682546 S    
O3    Cu1   1.960354 S    
C74   C84   1.431371 A    
C12   C52   1.390137 A    
C45   C53   1.410161 A    
S3    O23   1.503456 D    
C81   C93   1.411360 A    
C29   H13   1.078896 S    
C34   C42   1.419686 A    
S14   O58   1.675848 S    
Cu1   Cu2   2.719543 S    
C62   C66   1.398619 A    
O12   C5    1.304795 A    
O7    C4    1.304739 A    
S16   O64   1.674343 S    
O10   C6    1.302169 A    
C51   C68   1.397742 A    
S6    O34   1.685151 S    
S8    O39   1.503460 D    
C60   C72   1.393493 A    
S9    O43   1.674418 S    
C33   C57   1.417406 A    
C2    C19   1.447559 S    
C44   C47   1.405465 A    
O37   H39   0.990619 S    
C83   C89   1.395999 A    
C3    C18   1.457002 S    
C75   C81   1.429847 A    
C5    C24   1.447491 S    
C35   C59   1.418260 A    
C100  H32   1.080833 S    
C85   C97   1.411527 A    
C79   N3    1.402684 A    
C6    C23   1.448952 S    
C98   H30   1.080796 S    
S12   O52   1.673795 S    
O11   Cu3   1.960354 S    
S5    O31   1.682297 S    
C15   C55   1.388373 A    
C26   C34   1.398551 A    
S16   O63   1.505342 D    
O58   H46   0.990883 S    
C81   C89   1.394844 A    
C16   H8    1.084745 S    
C80   S16   1.799580 S    
C48   C56   1.412198 A    
C77   C87   1.431382 A    
C73   S9    1.802719 S    
S14   O57   1.505411 D    
C72   H24   1.083328 S    
C78   C88   1.429428 A    
C88   C100  1.410408 A    
C25   H9    1.080194 S    
C55   C72   1.392457 A    
C22   C30   1.395299 A    
O4    C1    1.305649 A    
C75   N1    1.403753 A    
C31   H15   1.077155 S    
O15   C8    1.306046 A    
C12   H4    1.085636 S    
C14   C54   1.394471 A    
C85   C91   1.394176 A    
O16   C7    1.304244 A    
C87   C99   1.411313 A    
O61   H47   0.990778 S    
C37   C61   1.417267 A    
C93   C96   1.397120 A    
C47   C55   1.410751 A    
C60   S4    1.764681 S    
C17   C25   1.396410 A    
C82   C90   1.394178 A    
C52   C67   1.392072 A    
C15   C23   1.387869 A    
S4    O26   1.501875 D    
O9    Cu3   1.955314 S    
C19   C27   1.394948 A    
S2    O20   1.502858 D    
O10   Cu4   1.955314 S    
C28   C36   1.405782 A    
C43   C48   1.404998 A    
C42   C45   1.400650 A    
S15   O60   1.502415 D    
S2    O22   1.681788 S    
C77   S13   1.803528 S    
S5    O29   1.503474 D    
C64   C68   1.397972 A    
C37   C45   1.419687 A    
O2    Cu2   1.955314 S    
C75   S11   1.799456 S    
O4    Cu2   1.960354 S    
C91   C92   1.432294 A    
C58   S2    1.776526 S    
O5    C3    1.305380 A    
S1    O19   1.681313 S    
S13   O54   1.503933 D    
O6    C4    1.304061 A    
C89   C90   1.432369 A    
C62   S6    1.767039 S    
O11   C6    1.305624 A    
O1    C1    1.301773 A    
C36   C60   1.419313 A    
C80   C86   1.430119 A    
C40   C48   1.420895 A    
C41   C49   1.411930 A    
O19   H33   0.991151 S    
C94   H26   1.080827 S    
S13   O53   1.504350 D    
C13   C21   1.396648 A    
S7    O35   1.499650 D    
C10   H2    1.084564 S    
S2    O21   1.503530 D    
S8    O38   1.502888 D    
C67   H19   1.083565 S    
C9    H1    1.084632 S    
C4    C17   1.452275 S    
C40   C64   1.418226 A    
O9    C5    1.301609 A    
O15   Cu4   1.963121 S    
O7    Cu2   1.963121 S    
C11   H3    1.084723 S    
C70   H22   1.083437 S    
S16   O62   1.502872 D    
C14   H6    1.084739 S    
C71   H23   1.083219 S    
C64   S8    1.773724 S    
O28   H36   0.990638 S    
C13   H5    1.084610 S    
C12   C20   1.389059 A    
O52   H44   0.990772 S    
C78   N4    1.404132 A    
S14   O56   1.503011 D    
C73   C83   1.429565 A    
S6    O33   1.503523 D    
C18   C26   1.398906 A    
C16   C24   1.391789 A    
S12   O51   1.505514 D    
C56   C71   1.397711 A    
C61   S5    1.775927 S    
O40   H40   0.990565 S    
C68   H20   1.083223 S    
Cu4   N4    2.043287 S    
S15   O61   1.673927 S    
C31   C39   1.406846 A    
S12   O50   1.502359 D    
C79   C85   1.429128 A    
C32   C40   1.403435 A    
O49   H43   0.990312 S    
C78   S14   1.802889 S    
C9    C17   1.392343 A    
Cu3   Cu4   2.719543 S    
S11   O48   1.502866 D    
C94   C95   1.396133 A    
C82   C94   1.411649 A    
C32   H16   1.078653 S    
C74   N2    1.405788 A    
C10   C18   1.396703 A    
C59   S3    1.773714 S    
C50   C65   1.397747 A    
C73   N1    1.403931 A    
C43   C51   1.412208 A    
C1    C20   1.448750 S    
C61   C65   1.396153 A    
O31   H37   0.990653 S    
C96   H28   1.080742 S    
C57   S1    1.764306 S    
C11   C51   1.393603 A    
C34   C58   1.417132 A    
C28   H12   1.078107 S    
