data_mof_unit_37444.cif
_audit_creation_date              2012-12-10T17:31:20-0500
_audit_creation_method            fapswitch 2.2
_symmetry_space_group_name_H-M    P1
_symmetry_Int_Tables_number       1
_space_group_crystal_system       triclinic
_cell_length_a                    19.173463
_cell_length_b                    18.656887
_cell_length_c                    12.437068
_cell_angle_alpha                 90.763546
_cell_angle_beta                  130.152348
_cell_angle_gamma                 89.277592
_cell_volume                      3400.13032872

loop_
_atom_site_label
_atom_site_type_symbol
_atom_type_description
_atom_site_fract_x
_atom_site_fract_y
_atom_site_fract_z
_atom_type_partial_charge
C1    C     C_R   0.614429 0.900045 0.655871 0.950108
C2    C     C_R   0.614680 0.099842 0.656185 0.911150
C3    C     C_R   0.114421 0.400038 0.655860 0.950037
C4    C     C_R   0.114681 0.599842 0.656186 0.911175
C5    C     C_R   0.289319 0.753802 0.075563 -0.082757
C6    C     C_R   0.257119 0.242684 0.065155 -0.092066
C7    C     C_R   0.789322 0.253802 0.075563 -0.082745
C8    C     C_R   0.757098 0.742672 0.065131 -0.092041
C9    C     C_R   0.797464 0.195399 0.155241 -0.244499
C10   C     C_R   0.672276 0.739186 0.035256 -0.256694
C11   C     C_R   0.297453 0.695401 0.155237 -0.244521
C12   C     C_R   0.172334 0.239270 0.035403 -0.256648
C13   C     C_R   0.788748 0.125373 0.106579 -0.135690
C14   C     C_R   0.593631 0.763603 0.906428 -0.119873
C15   C     C_R   0.288736 0.625374 0.106578 -0.135697
C16   C     C_R   0.093677 0.263708 0.906612 -0.119996
C17   C     C_R   0.755535 0.113401 0.970065 0.678722
C18   C     C_R   0.598742 0.791080 0.808787 0.637286
C19   C     C_R   0.255530 0.613401 0.970067 0.678753
C20   C     C_R   0.098747 0.291136 0.808897 0.637341
C21   C     C_R   0.303676 0.823702 0.130987 0.514692
C22   C     C_R   0.326450 0.195327 0.166260 0.496758
C23   C     C_R   0.803675 0.323702 0.130987 0.514736
C24   C     C_R   0.826459 0.695351 0.166306 0.496744
C25   C     C_R   0.333057 0.777138 0.337860 0.546922
C26   C     C_R   0.239003 0.164030 0.237990 0.489621
C27   C     C_R   0.833071 0.277133 0.337869 0.546840
C28   C     C_R   0.738919 0.663931 0.237818 0.489600
C29   C     C_R   0.674640 0.162193 0.733337 -0.171971
C30   C     C_R   0.689326 0.851151 0.759262 -0.151822
C31   C     C_R   0.174643 0.662192 0.733340 -0.171993
C32   C     C_R   0.189299 0.351125 0.759223 -0.151835
C33   C     C_R   0.683836 0.995021 0.290979 -0.181447
C34   C     C_R   0.183839 0.495012 0.290982 -0.181403
C35   C     C_R   0.343045 0.004604 0.621245 0.088139
C36   C     C_R   0.843045 0.504613 0.621252 0.088055
C37   C     C_R   0.306122 0.015527 0.686124 0.587696
C38   C     C_R   0.806130 0.515558 0.686139 0.587666
C39   C     C_R   0.385559 0.099955 0.344262 0.900236
C40   C     C_R   0.386144 0.899742 0.343844 0.935694
C41   C     C_R   0.885555 0.599952 0.344256 0.900302
C42   C     C_R   0.886145 0.399742 0.343845 0.935662
C43   C     C_R   0.362661 0.020552 0.832970 -0.167470
C44   C     C_R   0.862676 0.520590 0.832985 -0.167426
C45   C     C_R   0.458837 0.008428 0.918332 -0.175996
C46   C     C_R   0.958845 0.508441 0.918338 -0.176036
C47   C     C_R   0.493325 0.000796 0.844463 0.114415
C48   C     C_R   0.993328 0.500796 0.844464 0.114428
C49   C     C_R   0.523475 0.004947 0.071874 0.010425
C50   C     C_R   0.023482 0.504953 0.071878 0.010428
C51   C     C_R   0.618180 0.997626 0.144057 0.052295
C52   C     C_R   0.118184 0.497622 0.144061 0.052314
C53   C     C_R   0.648338 0.991696 0.070430 -0.296330
C54   C     C_R   0.148342 0.491688 0.070433 -0.296339
C55   C     C_R   0.588900 0.995165 0.926761 0.627298
C56   C     C_R   0.088903 0.495158 0.926762 0.627275
C57   C     C_R   0.500430 0.003626 0.159499 0.143332
C58   C     C_R   0.000432 0.503631 0.159498 0.143290
C59   C     C_R   0.656111 0.997051 0.368954 0.115956
C60   C     C_R   0.156111 0.497046 0.368956 0.115997
C61   C     C_R   0.816350 0.207758 0.283399 0.577337
C62   C     C_R   0.665656 0.704148 0.127403 0.592743
C63   C     C_R   0.316333 0.707763 0.283391 0.577346
C64   C     C_R   0.165752 0.204277 0.127626 0.592727
C65   C     C_R   0.334034 0.834405 0.267083 -0.363181
C66   C     C_R   0.317406 0.155422 0.251923 -0.373560
C67   C     C_R   0.834038 0.334402 0.267087 -0.363169
C68   C     C_R   0.817380 0.655401 0.251888 -0.373546
C69   C     C_R   0.674069 0.216573 0.655834 -0.247551
C70   C     C_R   0.774005 0.862118 0.794621 -0.221249
C71   C     C_R   0.174078 0.716571 0.655841 -0.247514
C72   C     C_R   0.273960 0.362034 0.794488 -0.221245
C73   C     C_R   0.228893 0.776692 0.724063 0.638610
C74   C     C_R   0.353912 0.343006 0.926465 0.638414
C75   C     C_R   0.728880 0.276697 0.724052 0.638611
C76   C     C_R   0.853943 0.843120 0.926642 0.638463
C77   C     C_R   0.276389 0.787272 0.867773 -0.064582
C78   C     C_R   0.350398 0.310396 0.023494 -0.094722
C79   C     C_R   0.776379 0.287276 0.867763 -0.064610
C80   C     C_R   0.850399 0.810483 0.023619 -0.094734
C81   C     C_R   0.762972 0.239658 0.940762 -0.028291
C82   C     C_R   0.765265 0.786060 0.980125 -0.022495
C83   C     C_R   0.262974 0.739657 0.940765 -0.028293
C84   C     C_R   0.265268 0.286036 0.980093 -0.022468
C85   C     C_R   0.727656 0.171321 0.879743 -0.072324
C86   C     C_R   0.683829 0.808835 0.847531 -0.059020
C87   C     C_R   0.227655 0.671321 0.879746 -0.072335
C88   C     C_R   0.183821 0.308838 0.847542 -0.058976
Cu1   Cu    Cu3+1 0.526340 1.000000 0.421010 1.027080
Cu2   Cu    Cu3+1 0.026340 0.500000 0.421010 1.027111
Cu3   Cu    Cu3+1 0.473640 0.000000 0.578990 1.092587
Cu4   Cu    Cu3+1 0.973640 0.500000 0.578990 1.092595
H1    H     H_    0.720395 0.984155 0.125395 0.184455
H2    H     H_    0.220397 0.484141 0.125397 0.184470
H3    H     H_    0.756110 0.990714 0.344958 0.175765
H4    H     H_    0.256112 0.490700 0.344963 0.175758
H5    H     H_    0.431599 0.001052 0.119024 0.158405
H6    H     H_    0.931598 0.501056 0.119012 0.158386
H7    H     H_    0.298340 0.003349 0.507630 0.204477
H8    H     H_    0.798337 0.503357 0.507637 0.204533
H9    H     H_    0.808811 0.080211 0.174817 0.200850
H10   H     H_    0.526990 0.755324 0.875577 0.231894
H11   H     H_    0.308796 0.580213 0.174816 0.200854
H12   H     H_    0.027053 0.255476 0.875843 0.231842
H13   H     H_    0.634719 0.210777 0.543372 0.211810
H14   H     H_    0.779157 0.893724 0.727544 0.186667
H15   H     H_    0.134730 0.710774 0.543379 0.211839
H16   H     H_    0.279098 0.393615 0.727371 0.186686
H17   H     H_    0.705651 0.994781 0.482577 0.141464
H18   H     H_    0.205651 0.494772 0.482579 0.141470
N1    N     N_R   0.566260 1.000000 0.302220 -0.212682
N2    N     N_R   0.066260 0.500000 0.302220 -0.212675
N3    N     N_R   0.434410 0.000000 0.697680 -0.244441
N4    N     N_R   0.934410 0.500000 0.697680 -0.244422
O1    O     O_R   0.608610 0.924520 0.551740 -0.621182
O2    O     O_R   0.608610 0.075480 0.551740 -0.592423
O3    O     O_R   0.108610 0.424520 0.551740 -0.621180
O4    O     O_R   0.108610 0.575480 0.551740 -0.592392
O5    O     O_R   0.564110 0.924510 0.685150 -0.471335
O6    O     O_R   0.564110 0.075490 0.685150 -0.526528
O7    O     O_R   0.064110 0.424510 0.685150 -0.471300
O8    O     O_R   0.064110 0.575490 0.685150 -0.526558
O9    O     O_R   0.435880 0.075470 0.314850 -0.528774
O10   O     O_R   0.435880 0.924530 0.314850 -0.574102
O11   O     O_R   0.935880 0.575470 0.314850 -0.528794
O12   O     O_R   0.935880 0.424530 0.314850 -0.574114
O13   O     O_R   0.391380 0.075460 0.448260 -0.566294
O14   O     O_R   0.391380 0.924540 0.448260 -0.523757
O15   O     O_R   0.891380 0.575460 0.448260 -0.566345
O16   O     O_R   0.891380 0.424540 0.448260 -0.523712
F1    F     F_    0.351254 0.787775 0.461780 -0.521318
F2    F     F_    0.228834 0.127350 0.320646 -0.588246
F3    F     F_    0.851275 0.287767 0.461795 -0.521285
F4    F     F_    0.728711 0.627196 0.320382 -0.588246
C89   C     C_1   0.318281 0.045385 0.886146 0.408382
N5    N     N_1   0.281366 0.065651 0.926447 -0.181433
C90   C     C_1   0.818324 0.545477 0.886177 0.408285
N6    N     N_1   0.781435 0.565788 0.926496 -0.181593
F5    F     F_    0.214371 0.024725 0.604103 -0.593319
F6    F     F_    0.714383 0.524778 0.604127 -0.593322
F7    F     F_    0.631410 0.995959 0.875853 -0.624115
F8    F     F_    0.131413 0.495955 0.875855 -0.624108
F9    F     F_    0.820043 0.152487 0.357002 -0.609787
F10   F     F_    0.586276 0.704856 0.104981 -0.602333
F11   F     F_    0.320017 0.652493 0.356989 -0.609784
F12   F     F_    0.086417 0.205061 0.105334 -0.602374
F13   F     F_    0.284622 0.882529 0.052686 -0.649376
F14   F     F_    0.396082 0.179894 0.166697 -0.650741
F15   F     F_    0.784613 0.382529 0.052684 -0.649356
F16   F     F_    0.896171 0.679991 0.166901 -0.650726
C91   C     C_1   0.357132 0.830714 0.944244 0.470893
N7    N     N_1   0.423392 0.863781 0.006522 -0.270061
C92   C     C_1   0.432024 0.314439 0.169982 0.471288
N8    N     N_1   0.497321 0.317978 0.287030 -0.180427
C93   C     C_1   0.857117 0.330724 0.944227 0.470923
N9    N     N_1   0.923372 0.363798 0.006497 -0.269987
C94   C     C_1   0.931978 0.814566 0.170138 0.471290
N10   N     N_1   0.997238 0.818141 0.287212 -0.180389
F17   F     F_    0.238649 0.823028 0.651273 -0.606081
F18   F     F_    0.435074 0.363433 0.964932 -0.617829
F19   F     F_    0.738629 0.323035 0.651257 -0.606079
F20   F     F_    0.935112 0.863606 0.965198 -0.617801
F21   F     F_    0.764886 0.047392 0.933583 -0.624863
F22   F     F_    0.519912 0.797804 0.674820 -0.608906
F23   F     F_    0.264887 0.547393 0.933591 -0.624826
F24   F     F_    0.019890 0.297858 0.674957 -0.608812

loop_
_geom_bond_atom_site_label_1
_geom_bond_atom_site_label_2
_ccdc_geom_bond_type
C83   C87   A    
Cu1   O1    S    
C94   N10   T    
C55   F7    S    
C71   H15   S    
C14   C18   A    
C76   F20   S    
C58   H6    S    
Cu2   N2    S    
C36   N4    A    
C77   C91   S    
C39   O9    A    
C89   N5    T    
C32   C72   A    
C15   C19   A    
C18   C86   A    
Cu3   O13   S    
C2    C29   S    
C17   C85   A    
C21   F13   S    
C48   N4    A    
C28   C68   A    
C34   H4    S    
C5    C11   A    
C19   C87   A    
C6    C12   A    
C12   C64   A    
C14   H10   S    
C77   C83   A    
C40   O14   A    
C49   C57   A    
C7    C9    A    
C1    O5    A    
C45   C47   A    
C23   C67   A    
C29   C69   A    
C26   C64   A    
C22   C66   A    
C9    C13   A    
C17   F21   S    
C59   H17   S    
C2    O2    A    
C61   F9    S    
C12   C16   A    
C44   C46   A    
C49   C51   A    
C59   N1    A    
C91   N7    T    
C69   C75   A    
C30   C86   A    
C3    O3    A    
C29   C85   A    
C48   C56   A    
C56   F8    S    
C52   C54   A    
C31   C71   A    
C27   C61   A    
C23   F15   S    
Cu1   O2    S    
C33   C59   A    
C34   C60   A    
C4    O4    A    
C10   C62   A    
C11   C15   A    
C35   H7    S    
C33   H3    S    
C21   C65   A    
C30   C70   A    
C16   H12   S    
C46   C50   A    
C41   C68   S    
C46   C48   A    
C53   C55   A    
Cu2   Cu4   S    
C40   O10   A    
C54   C56   A    
C31   C87   A    
Cu3   O14   S    
C53   H1    S    
C26   C66   A    
Cu2   O3    S    
C41   O11   A    
C6    C84   A    
C80   C82   A    
C10   C14   A    
C79   C81   A    
C2    O6    A    
Cu1   O9    S    
C82   C86   A    
C24   C68   A    
Cu3   N3    S    
C51   C53   A    
C39   O13   A    
C50   C58   A    
C37   C43   A    
Cu4   O16   S    
C5    C83   A    
C38   C44   A    
C60   N2    A    
Cu4   O8    S    
C50   C52   A    
C45   C49   A    
C16   C20   A    
C57   H5    S    
Cu2   O12   S    
C4    O8    A    
C42   O16   A    
C43   C89   S    
C43   C45   A    
C24   F16   S    
C44   C90   S    
C72   C74   A    
C7    C81   A    
C22   F14   S    
C40   C65   S    
C70   H14   S    
C42   C67   S    
C39   C66   S    
C58   N2    A    
C32   C88   A    
Cu1   Cu3   S    
C70   C76   A    
C13   H9    S    
C25   F1    S    
Cu2   O4    S    
C26   F2    S    
C35   C37   A    
C47   C55   A    
C37   F5    S    
C47   N3    A    
Cu1   N1    S    
C69   H13   S    
C25   C63   A    
C64   F12   S    
C84   C88   A    
C62   F10   S    
C1    O1    A    
C76   C80   A    
C36   H8    S    
C78   C92   S    
Cu1   O10   S    
C74   F18   S    
C33   C51   A    
C20   F24   S    
C90   N6    T    
C73   F17   S    
C34   C52   A    
C13   C17   A    
C75   F19   S    
C36   C38   A    
Cu4   O15   S    
Cu4   O7    S    
C41   O15   A    
C80   C94   S    
C57   N1    A    
C75   C79   A    
C60   H18   S    
C7    C23   A    
C20   C88   A    
C1    C30   S    
C8    C24   A    
Cu2   O11   S    
C35   N3    A    
C9    C61   A    
Cu3   O5    S    
C72   H16   S    
C3    C32   S    
C54   H2    S    
C4    C31   S    
C27   C67   A    
C42   O12   A    
C79   C93   S    
C78   C84   A    
C8    C82   A    
C5    C21   A    
C18   F22   S    
C73   C77   A    
C8    C10   A    
C74   C78   A    
C27   F3    S    
C71   C73   A    
C93   N9    T    
C25   C65   A    
C38   F6    S    
Cu3   O6    S    
C28   F4    S    
C19   F23   S    
C15   H11   S    
C92   N8    T    
C11   C63   A    
Cu4   N4    S    
C63   F11   S    
C81   C85   A    
C3    O7    A    
C28   C62   A    
C6    C22   A    
