data_mof_unit_67576.cif
_audit_creation_date              2012-10-26T18:26:34-0400
_audit_creation_method            fapswitch 2.2
_symmetry_space_group_name_H-M    P1
_symmetry_Int_Tables_number       1
_space_group_crystal_system       triclinic
_cell_length_a                    15.806456
_cell_length_b                    8.681942
_cell_length_c                    7.448497
_cell_angle_alpha                 102.199083
_cell_angle_beta                  94.993511
_cell_angle_gamma                 92.567792
_cell_volume                      993.191247586

loop_
_atom_site_label
_atom_site_type_symbol
_atom_type_description
_atom_site_fract_x
_atom_site_fract_y
_atom_site_fract_z
_atom_type_partial_charge
C1    C     C_R   0.493184 0.200512 0.455379 0.544629
C2    C     C_3   0.982814 0.564492 0.673353 -0.118858
C3    C     C_1   0.250240 0.498275 0.500237 -0.044206
C4    C     C_1   0.749760 0.501733 0.499759 -0.044220
C5    C     C_3   0.030854 0.413917 0.615296 0.026614
C6    C     C_3   0.969147 0.586094 0.384683 0.026620
C7    C     C_3   0.082756 0.497157 0.494992 0.037967
C8    C     C_3   0.917244 0.502853 0.504986 0.037964
C9    C     C_1   0.174469 0.497150 0.495996 -0.072047
C10   C     C_1   0.825532 0.502860 0.503991 -0.072062
C11   C     C_R   0.931017 0.678142 0.251176 0.033705
C12   C     C_R   0.506817 0.799488 0.544621 0.544640
C13   C     C_R   0.962575 0.832452 0.253195 -0.109064
C14   C     C_R   0.925869 0.915559 0.127832 -0.136915
C15   C     C_R   0.857622 0.845582 0.000458 -0.119765
C16   C     C_R   0.825329 0.693055 0.999198 -0.120512
C17   C     C_R   0.862397 0.609043 0.122678 -0.099356
C18   C     C_R   0.068993 0.321883 0.748807 0.033708
C19   C     C_R   0.137602 0.391014 0.877318 -0.099356
C20   C     C_R   0.174686 0.307015 0.000792 -0.120514
C21   C     C_R   0.142422 0.154468 0.999514 -0.119768
C22   C     C_R   0.074184 0.084460 0.872129 -0.136912
C23   C     C_R   0.339917 0.499388 0.500693 0.549206
C24   C     C_R   0.037462 0.167553 0.746769 -0.109063
C25   C     C_R   0.396159 0.960932 0.332797 0.035736
C26   C     C_R   0.326084 0.925902 0.424674 -0.086406
C27   C     C_R   0.250301 0.855791 0.323889 -0.110628
C28   C     C_R   0.244043 0.819670 0.131146 -0.116983
C29   C     C_R   0.313404 0.854141 0.038660 -0.100349
C30   C     C_R   0.389213 0.925084 0.139043 -0.052596
C31   C     C_R   0.603831 0.039079 0.667259 0.035739
C32   C     C_R   0.610763 0.074831 0.861011 -0.052616
C33   C     C_R   0.686560 0.145772 0.961452 -0.100320
C34   C     C_R   0.660083 0.500614 0.499306 0.549194
C35   C     C_R   0.755923 0.180340 0.869028 -0.116971
C36   C     C_R   0.749679 0.144317 0.676287 -0.110627
C37   C     C_R   0.673909 0.074208 0.575445 -0.086364
C38   C     C_2   0.476929 0.034974 0.441108 -0.063139
C39   C     C_2   0.523075 0.965027 0.558895 -0.063140
C40   C     C_3   0.964171 0.351346 0.448245 -0.125419
C41   C     C_3   0.035829 0.648663 0.551734 -0.125409
C42   C     C_3   0.017186 0.435518 0.326625 -0.118858
Cu1   Cu    Cu3+1 0.509330 0.517380 0.684380 0.949906
Cu2   Cu    Cu3+1 0.490670 0.482620 0.315620 0.949915
H1    H     H_    0.030625 0.383956 0.183691 0.129122
H2    H     H_    0.772177 0.639268 0.901427 0.141933
H3    H     H_    0.837113 0.490692 0.119463 0.109779
H4    H     H_    0.162866 0.509380 0.880543 0.109765
H5    H     H_    0.227830 0.360827 0.098571 0.141943
H6    H     H_    0.169875 0.091439 0.098339 0.128793
H7    H     H_    0.049493 0.966079 0.871318 0.108764
H8    H     H_    0.984384 0.111597 0.649948 0.096251
H9    H     H_    0.330233 0.953250 0.574100 0.091732
H10   H     H_    0.196323 0.829999 0.395135 0.105756
H11   H     H_    0.184846 0.767926 0.053693 0.097896
H12   H     H_    0.969377 0.616052 0.816288 0.129127
H13   H     H_    0.308288 0.826520 0.889252 0.113019
H14   H     H_    0.442576 0.950431 0.066173 0.108272
H15   H     H_    0.557399 0.049406 0.933836 0.108278
H16   H     H_    0.691666 0.173315 0.110857 0.113004
H17   H     H_    0.815110 0.232080 0.946526 0.097891
H18   H     H_    0.803660 0.170184 0.605088 0.105764
H19   H     H_    0.669772 0.046933 0.426021 0.091702
H20   H     H_    0.932474 0.230960 0.405948 0.090741
H21   H     H_    0.067528 0.769048 0.594034 0.090721
H22   H     H_    0.434507 0.376280 0.948606 0.237596
H23   H     H_    0.565493 0.623720 0.051394 0.237591
H24   H     H_    0.015664 0.888384 0.350002 0.096245
H25   H     H_    0.950581 0.033926 0.128635 0.108777
H26   H     H_    0.830182 0.908617 0.901625 0.128783
N1    N     N_2   0.476600 0.456420 0.038510 -0.253948
N2    N     N_2   0.523400 0.543580 0.961490 -0.253954
O1    O     O_R   0.506070 0.286130 0.619780 -0.495520
O2    O     O_R   0.493930 0.713870 0.380220 -0.495527
O3    O     O_R   0.490300 0.256770 0.308360 -0.512565
O4    O     O_R   0.509700 0.743230 0.691640 -0.512581
O5    O     O_R   0.386960 0.514660 0.655680 -0.503709
O6    O     O_R   0.613040 0.485340 0.344320 -0.503699
O7    O     O_R   0.371190 0.485310 0.344260 -0.495423
O8    O     O_R   0.628810 0.514690 0.655740 -0.495419

loop_
_geom_bond_atom_site_label_1
_geom_bond_atom_site_label_2
_ccdc_geom_bond_type
Cu1   O1    S    
C24   H8    S    
Cu1   N2    S    
C12   O2    A    
C3    C23   S    
C19   C20   A    
C27   H10   S    
C31   C32   A    
C26   C27   A    
C20   H5    S    
C18   C24   A    
C36   C37   A    
C18   C19   A    
C38   C39   D    
C2    C41   S    
C15   C16   A    
Cu1   O4    S    
Cu2   N1    S    
H23   N2    S    
C7    C42   S    
C34   O8    A    
C11   C17   A    
C35   C36   A    
C16   C17   A    
C6    C41   S    
C40   C42   S    
C13   C14   A    
C36   H18   S    
C21   H6    S    
C37   H19   S    
C28   H11   S    
C4    C34   S    
C1    O3    A    
C16   H2    S    
C6    C11   S    
C5    C7    S    
C19   H4    S    
C6    C8    S    
C5    C18   S    
C25   C26   A    
C31   C37   A    
C42   H1    S    
Cu2   O3    S    
Cu1   Cu2   S    
C29   C30   A    
C3    C9    T    
C25   C38   S    
H22   N1    S    
C35   H17   S    
C23   O5    A    
Cu2   O2    S    
C1    C38   S    
C29   H13   S    
C33   H16   S    
C12   O4    A    
C14   H25   S    
C22   C24   A    
C2    C5    S    
C4    C10   T    
C26   H9    S    
C25   C30   A    
C7    C9    S    
C15   H26   S    
C28   C29   A    
Cu2   O7    S    
C2    C8    S    
C17   H3    S    
C41   H21   S    
Cu1   O5    S    
C40   H20   S    
C1    O1    A    
C32   C33   A    
C12   C39   S    
Cu2   O6    S    
Cu1   O8    S    
N1    N2    D    
C2    H12   S    
C34   O6    A    
C11   C13   A    
C30   H14   S    
C33   C35   A    
C31   C39   S    
C7    C41   S    
C20   C21   A    
C8    C10   S    
C6    C42   S    
C5    C40   S    
C27   C28   A    
C14   C15   A    
C8    C40   S    
C32   H15   S    
C23   O7    A    
C21   C22   A    
C22   H7    S    
C13   H24   S    
