data_mof_unit_54845.cif
_audit_creation_date              2012-12-10T18:43:06-0500
_audit_creation_method            fapswitch 2.2
_symmetry_space_group_name_H-M    P1
_symmetry_Int_Tables_number       1
_space_group_crystal_system       triclinic
_cell_length_a                    10.791478
_cell_length_b                    9.905365
_cell_length_c                    10.745607
_cell_angle_alpha                 89.99839
_cell_angle_beta                  91.868866
_cell_angle_gamma                 90.002484
_cell_volume                      1148.0248693

loop_
_atom_site_label
_atom_site_type_symbol
_atom_type_description
_atom_site_fract_x
_atom_site_fract_y
_atom_site_fract_z
_atom_type_partial_charge
C1    C     C_R   0.260285 0.498976 0.505227 0.869676
C2    C     C_R   0.739711 0.498981 0.494742 0.869683
C3    C     C_R   0.502382 0.499861 0.262838 0.929071
C4    C     C_R   0.497623 0.499858 0.737162 0.929103
C5    C     C_2   0.503845 0.386128 0.933179 -0.157316
C6    C     C_2   0.496248 0.386124 0.066829 -0.157291
C7    C     C_2   0.486123 0.499800 0.868302 -0.329649
C8    C     C_2   0.513900 0.499811 0.131699 -0.329649
C9    C     C_R   0.063454 0.369612 0.511022 -0.047841
C10   C     C_R   0.936522 0.369618 0.488822 -0.047817
C11   C     C_R   0.872455 0.494386 0.489981 -0.082651
C12   C     C_R   0.127536 0.494380 0.509909 -0.082643
C13   C     C_R   0.936661 0.616414 0.495428 -0.216066
C14   C     C_R   0.063344 0.616412 0.504426 -0.216100
C15   C     C_R   0.566605 0.073607 0.587643 -0.066430
C16   C     C_R   0.433397 0.073606 0.412354 -0.066367
C17   C     C_R   0.572628 0.930529 0.585373 0.149257
C18   C     C_R   0.427374 0.930525 0.414623 0.149244
H1    H     H_    0.522905 0.290462 0.888102 0.168284
H2    H     H_    0.477239 0.290441 0.111910 0.168294
H3    H     H_    0.459553 0.594667 0.910033 0.147687
H4    H     H_    0.540425 0.594699 0.089963 0.147687
H5    H     H_    0.889183 0.712368 0.492075 0.179485
H6    H     H_    0.110831 0.712370 0.507762 0.179478
H7    H     H_    0.617625 0.130669 0.658122 0.130568
H8    H     H_    0.382392 0.130669 0.341868 0.130572
N1    N     N_R   0.500000 0.857200 0.500000 -0.115838
N2    N     N_R   0.500000 0.142810 0.500000 -0.104827
O1    O     O_R   0.316770 0.614620 0.499990 -0.639262
O2    O     O_R   0.683230 0.614620 0.500010 -0.639240
O3    O     O_R   0.316800 0.385290 0.500000 -0.611909
O4    O     O_R   0.683200 0.385290 0.500000 -0.611927
O5    O     O_R   0.500000 0.614630 0.319080 -0.645896
O6    O     O_R   0.500000 0.614630 0.680920 -0.645873
O7    O     O_R   0.500030 0.385300 0.319080 -0.617773
O8    O     O_R   0.499970 0.385300 0.680920 -0.617754
Zn1   Zn    Zn3+2 0.500000 0.653120 0.500000 0.923447
Zn2   Zn    Zn3+2 0.500000 0.346880 0.500000 0.957423
C19   C     C_1   0.123747 0.241506 0.540764 0.197406
N3    N     N_1   0.171051 0.139660 0.565370 -0.228142
C20   C     C_1   0.876211 0.241528 0.459039 0.197394
N4    N     N_1   0.828890 0.139696 0.434402 -0.228130
C21   C     C_3   0.658829 0.865008 0.681708 -0.411196
C22   C     C_3   0.792808 0.917471 0.676199 -0.382039
C23   C     C_3   0.880348 0.837354 0.762888 -0.873628
H9    H     H_    0.852424 0.848599 0.860926 0.262735
H10   H     H_    0.879064 0.728640 0.737692 0.265952
H11   H     H_    0.976409 0.875858 0.754913 0.258699
H12   H     H_    0.825169 0.909827 0.579558 0.239884
H13   H     H_    0.798078 0.025064 0.704688 0.224296
H14   H     H_    0.623034 0.884779 0.775818 0.180368
H15   H     H_    0.663034 0.756052 0.669415 0.276208
C24   C     C_3   0.341224 0.864987 0.318246 -0.411137
C25   C     C_3   0.207238 0.917489 0.323594 -0.382049
C26   C     C_3   0.119771 0.837330 0.236855 -0.873416
H16   H     H_    0.147881 0.848398 0.138835 0.262686
H17   H     H_    0.120925 0.728638 0.262205 0.265913
H18   H     H_    0.023712 0.875960 0.244616 0.258657
H19   H     H_    0.174764 0.909909 0.420214 0.239859
H20   H     H_    0.202014 0.025071 0.295024 0.224264
H21   H     H_    0.377117 0.884692 0.224155 0.180369
H22   H     H_    0.336970 0.756037 0.330598 0.276206

loop_
_geom_bond_atom_site_label_1
_geom_bond_atom_site_label_2
_ccdc_geom_bond_type
C22   H12   S    
C16   N2    A    
C8    H4    S    
C21   C22   S    
C4    O8    A    
C20   N4    T    
C15   C17   A    
C5    H1    S    
O4    Zn2   S    
O6    Zn1   S    
C6    H2    S    
C9    C10   A    
O3    Zn2   S    
C3    O7    A    
C26   H16   S    
O8    Zn2   S    
C16   C18   A    
C25   H20   S    
C24   C25   S    
C10   C20   S    
C11   C13   A    
C21   H14   S    
C15   N2    A    
C26   H18   S    
C1    C12   S    
N1    Zn1   S    
C4    C7    S    
C2    C11   S    
C1    O1    A    
C12   C14   A    
C25   H19   S    
C26   H17   S    
C1    O3    A    
C16   H8    S    
C5    C6    S    
C9    C12   A    
C4    O6    A    
C21   H15   S    
C15   H7    S    
O1    Zn1   S    
C10   C11   A    
C3    O5    A    
C19   N3    T    
C22   H13   S    
C13   C14   A    
C17   N1    A    
C23   H9    S    
C9    C19   S    
O7    Zn2   S    
C2    O2    A    
C22   C23   S    
C13   H5    S    
C2    O4    A    
C3    C8    S    
C24   H22   S    
C23   H10   S    
C14   H6    S    
C17   C21   S    
C5    C7    D    
C25   C26   S    
C6    C8    D    
C23   H11   S    
C18   C24   S    
N2    Zn2   S    
C7    H3    S    
C24   H21   S    
O5    Zn1   S    
C18   N1    A    
O2    Zn1   S    
