data_mof_unit_16973.cif
_audit_creation_date              2013-03-05T15:47:47-0500
_audit_creation_method            fapswitch 2.2
_symmetry_space_group_name_H-M    P1
_symmetry_Int_Tables_number       1
_space_group_crystal_system       triclinic
_cell_length_a                    21.644905
_cell_length_b                    7.202309
_cell_length_c                    18.573744
_cell_angle_alpha                 89.993781
_cell_angle_beta                  96.249037
_cell_angle_gamma                 89.995196
_cell_volume                      2878.3173989

loop_
_atom_site_label
_atom_site_type_symbol
_atom_site_description
_atom_site_fract_x
_atom_site_fract_y
_atom_site_fract_z
_atom_type_partial_charge
O1    O     O_R   0.449650 0.506500 0.414480 -0.569955
O2    O     O_R   0.550350 0.006500 0.585520 -0.569986
O3    O     O_R   0.432010 0.173150 0.560250 -0.564462
O4    O     O_R   0.567990 0.673150 0.439750 -0.564469
C1    C     C_R   0.416930 0.343641 0.582401 0.947584
C2    C     C_R   0.583073 0.843649 0.417603 0.947576
O5    O     O_R   0.442320 0.176650 0.413480 -0.582498
O6    O     O_R   0.557680 0.676650 0.586520 -0.582505
O7    O     O_R   0.560730 0.008380 0.437700 -0.585855
O8    O     O_R   0.439270 0.508380 0.562300 -0.585855
C3    C     C_R   0.427887 0.344986 0.387723 0.942964
C4    C     C_R   0.572112 0.844967 0.612278 0.942966
O9    O     O_3   0.538840 0.339860 0.508120 -0.273840
O10   O     O_3   0.461160 0.839860 0.491880 -0.273794
V1    V     V_3+5 0.492800 0.064220 0.498490 1.205101
V2    V     V_3+5 0.507200 0.564220 0.501510 1.205120
C5    C     C_R   0.870508 0.031181 0.689699 0.298735
C6    C     C_R   0.129475 0.531178 0.310294 0.298707
H1    H     H_    0.783575 0.042996 0.574143 0.174075
H2    H     H_    0.216416 0.543014 0.425845 0.174126
C7    C     C_R   0.888372 0.947445 0.817194 -0.228784
C8    C     C_R   0.111616 0.447385 0.182812 -0.228826
C9    C     C_R   0.589496 0.801100 0.744459 -0.162262
C10   C     C_R   0.410494 0.301085 0.255548 -0.162176
C11   C     C_R   0.623965 0.822968 0.811437 -0.099779
C12   C     C_R   0.376022 0.322945 0.188570 -0.099761
C13   C     C_R   0.685651 0.883173 0.816965 0.163760
C14   C     C_R   0.314337 0.383177 0.183038 0.163746
C15   C     C_R   0.716352 0.903711 0.753114 0.049562
C16   C     C_R   0.283640 0.403730 0.246888 0.049564
C17   C     C_R   0.678217 0.901577 0.684751 0.082946
C18   C     C_R   0.321778 0.401628 0.315250 0.082927
C19   C     C_R   0.782274 0.932275 0.753841 0.099948
C20   C     C_R   0.217715 0.432265 0.246164 0.099969
C21   C     C_R   0.806494 0.988784 0.689065 -0.037177
C22   C     C_R   0.193493 0.488780 0.310932 -0.037234
C23   C     C_R   0.766624 0.000378 0.624302 -0.103236
C24   C     C_R   0.233365 0.500404 0.375690 -0.103271
C25   C     C_R   0.704409 0.951442 0.621716 -0.205548
C26   C     C_R   0.295585 0.451494 0.378279 -0.205539
C27   C     C_R   0.825496 0.897463 0.815427 -0.228527
C28   C     C_R   0.174496 0.397422 0.184585 -0.228559
C29   C     C_R   0.910749 0.015789 0.754135 0.095346
C30   C     C_R   0.089234 0.515738 0.245860 0.095466
C31   C     C_R   0.614321 0.851041 0.680987 -0.179573
C32   C     C_R   0.385676 0.351090 0.319014 -0.179553
H3    H     H_    0.811617 0.827701 0.862267 0.164223
H4    H     H_    0.188381 0.327665 0.137753 0.164237
H5    H     H_    0.541747 0.755201 0.742579 0.162455
H6    H     H_    0.458238 0.255117 0.257434 0.162453
H7    H     H_    0.601170 0.801795 0.859869 0.165690
H8    H     H_    0.398812 0.301737 0.140140 0.165701
H9    H     H_    0.676627 0.955773 0.569602 0.106813
H10   H     H_    0.323369 0.455838 0.430389 0.106851
C33   C     C_R   0.640087 0.708282 0.315186 0.135840
C34   C     C_R   0.359840 0.208102 0.684733 0.135826
C35   C     C_R   0.631819 0.852023 0.366192 -0.203784
C36   C     C_R   0.368189 0.351999 0.633820 -0.203800
C37   C     C_R   0.670175 0.010444 0.367525 -0.236759
C38   C     C_R   0.329914 0.510569 0.632587 -0.236797
C39   C     C_R   0.716056 0.028984 0.320201 0.152320
C40   C     C_R   0.284033 0.529096 0.679909 0.152390
C41   C     C_R   0.725275 0.885396 0.270957 0.011782
C42   C     C_R   0.274730 0.385374 0.729052 0.011944
C43   C     C_R   0.687839 0.723702 0.268651 0.075380
C44   C     C_R   0.312085 0.223545 0.731263 0.075379
C45   C     C_R   0.753065 0.189595 0.321442 -0.166717
C46   C     C_R   0.247102 0.689825 0.678757 -0.166955
C47   C     C_R   0.798725 0.208664 0.274025 -0.174277
C48   C     C_R   0.201439 0.708883 0.726171 -0.174625
C49   C     C_R   0.808530 0.067131 0.224631 0.135659
C50   C     C_R   0.191562 0.567239 0.775477 0.135717
C51   C     C_R   0.771955 0.904363 0.223421 0.059055
C52   C     C_R   0.228050 0.404341 0.776586 0.059262
C53   C     C_R   0.782071 0.760394 0.174691 0.156141
C54   C     C_R   0.217843 0.260238 0.825207 0.156169
C55   C     C_R   0.745573 0.600168 0.173117 -0.209359
C56   C     C_R   0.254261 0.099893 0.826691 -0.209623
C57   C     C_R   0.699099 0.582107 0.219079 -0.157103
C58   C     C_R   0.300745 0.081839 0.780743 -0.157335
C59   C     C_R   0.854494 0.084649 0.176829 -0.197290
C60   C     C_R   0.145606 0.584778 0.823289 -0.197414
C61   C     C_R   0.865306 0.939418 0.128924 -0.130823
C62   C     C_R   0.134697 0.439404 0.871079 -0.130809
C63   C     C_R   0.828700 0.778014 0.128400 -0.188147
C64   C     C_R   0.171206 0.277844 0.871486 -0.188179
H11   H     H_    0.664346 0.120887 0.405895 0.163045
H12   H     H_    0.335805 0.621146 0.594298 0.163294
H13   H     H_    0.746427 0.301417 0.358890 0.153946
H14   H     H_    0.253811 0.801761 0.641394 0.154046
H15   H     H_    0.826392 0.334353 0.276016 0.164643
H16   H     H_    0.173836 0.834665 0.724253 0.164662
H17   H     H_    0.882721 0.209221 0.178088 0.152713
H18   H     H_    0.117462 0.709487 0.822124 0.152679
H19   H     H_    0.836208 0.665753 0.091415 0.147047
H20   H     H_    0.163621 0.165445 0.908370 0.147101
H21   H     H_    0.753011 0.487707 0.136221 0.151926
H22   H     H_    0.246745 0.987317 0.863493 0.151913
H23   H     H_    0.673042 0.454183 0.215292 0.176930
H24   H     H_    0.326733 0.953814 0.784451 0.177008
O11   O     O_R   0.060820 0.290050 0.937800 -0.588556
O12   O     O_R   0.939180 0.790050 0.062200 -0.588520
O13   O     O_R   0.057690 0.616620 0.086540 -0.572985
O14   O     O_R   0.942310 0.116620 0.913460 -0.573001
C65   C     C_R   0.071101 0.449153 0.113163 0.991846
C66   C     C_R   0.928895 0.949173 0.886839 0.991823
O15   O     O_R   0.068010 0.619890 0.939770 -0.593054
O16   O     O_R   0.931990 0.119890 0.060230 -0.593027
O17   O     O_R   0.949640 0.787940 0.914460 -0.584259
O18   O     O_R   0.050360 0.287940 0.085540 -0.584266
C67   C     C_R   0.084360 0.451244 0.919263 0.959658
C68   C     C_R   0.915642 0.951245 0.080739 0.959621
O19   O     O_3   0.961210 0.453080 0.991940 -0.282761
O20   O     O_3   0.038790 0.953080 0.008060 -0.282777
V3    V     V_3+5 0.007200 0.728820 0.001500 1.204378
V4    V     V_3+5 0.992800 0.228820 0.998500 1.204396
I1    I     I_    0.007107 0.081545 0.754011 -0.268265
I2    I     I_    0.992865 0.581430 0.245963 -0.268343
N1    N     N_R   0.894933 0.091252 0.624924 0.243172
O21   O     O_R   0.901981 0.972968 0.573525 -0.329043
O22   O     O_R   0.910533 0.264054 0.617466 -0.324601
N2    N     N_R   0.105054 0.591340 0.375055 0.243167
O23   O     O_R   0.098080 0.473166 0.426522 -0.329138
O24   O     O_R   0.089273 0.764032 0.382371 -0.324497
I3    I     I_    0.717042 0.990157 0.922088 -0.435248
I4    I     I_    0.282936 0.490152 0.077910 -0.435101
I5    I     I_    0.577341 0.476425 0.301547 -0.430042
I6    I     I_    0.422472 0.975929 0.698263 -0.430190

loop_
_geom_bond_atom_site_label_1
_geom_bond_atom_site_label_2
_geom_bond_distance
_ccdc_geom_bond_type
C16   C18   1.437251 A    
C65   O18   1.327787 A    
C41   C43   1.416781 A    
C9    C31   1.394921 A    
C54   C64   1.401008 A    
C13   C15   1.428803 A    
C13   I3    2.139943 S    
O12   C68   1.328222 A    
O1    C3    1.330918 A    
O2    C4    1.330873 A    
C2    O7    1.349137 A    
O14   C66   1.323695 A    
O20   V3    1.753084 S    
C38   H12   1.084394 S    
C25   H9    1.082956 S    
O5    C3    1.328034 A    
C52   C54   1.408839 A    
C1    C36   1.499374 S    
C43   C57   1.412872 A    
C57   H23   1.078614 S    
C21   C23   1.404509 A    
C54   C56   1.396759 A    
C12   H8    1.082784 S    
C56   C58   1.394456 A    
C9    H5    1.082070 S    
C36   C38   1.409566 A    
C15   C19   1.440260 A    
C45   H13   1.083938 S    
C59   H17   1.084340 S    
C38   C40   1.402357 A    
C47   C49   1.402983 A    
C60   C62   1.409046 A    
C40   C42   1.408918 A    
O12   V3    1.998638 S    
H1    C23   1.082218 S    
C59   C61   1.409281 A    
O14   V4    1.991692 S    
C53   C63   1.401039 A    
C8    C30   1.404273 A    
C17   C25   1.401976 A    
C14   C16   1.428771 A    
C20   C28   1.418949 A    
C56   H22   1.084078 S    
C46   H14   1.083735 S    
C55   H21   1.084305 S    
C7    C66   1.481822 S    
O19   V4    1.752954 S    
N1    O22   1.300917 A    
O6    V2    1.991859 S    
C7    C29   1.404314 A    
C58   H24   1.078360 S    
C51   C53   1.409129 A    
C2    C35   1.499347 S    
C18   C32   1.424479 A    
C33   C43   1.422029 A    
C14   I4    2.139863 S    
C55   C57   1.394465 A    
C10   H6    1.082061 S    
C37   C39   1.402395 A    
C62   C67   1.485803 S    
C16   C20   1.440257 A    
C50   C52   1.413144 A    
C49   C51   1.413440 A    
O17   V3    1.976967 S    
C41   C51   1.418891 A    
O16   C68   1.332280 A    
C45   C47   1.400281 A    
C42   C44   1.416516 A    
O4    V2    1.997814 S    
O13   V3    1.991478 S    
C5    C29   1.405833 A    
C6    C30   1.405861 A    
H2    C24   1.082133 S    
C39   C45   1.405865 A    
C30   I2    2.139051 S    
O6    C4    1.328050 A    
C39   C41   1.409191 A    
C27   H3    1.075371 S    
O13   C65   1.323685 A    
O1    V2    1.974680 S    
C28   H4    1.075333 S    
O2    V1    1.974562 S    
C53   C55   1.397068 A    
O15   V3    1.997779 S    
C64   H20   1.084441 S    
C29   I1    2.139022 S    
C7    C27   1.404724 A    
O4    C2    1.346450 A    
C61   C63   1.406316 A    
C33   I5    2.150084 S    
C26   H10   1.082921 S    
C33   C35   1.427723 A    
C11   C13   1.396971 A    
N2    O24   1.300846 A    
C60   H18   1.084131 S    
O18   V4    1.977087 S    
C18   C26   1.401943 A    
O3    V1    1.997825 S    
O11   V4    1.998639 S    
C61   C68   1.485782 S    
O15   C67   1.332302 A    
C48   H16   1.083611 S    
C10   C12   1.388163 A    
C4    C31   1.487104 S    
O3    C1    1.346438 A    
N1    O21   1.300888 A    
O11   C67   1.328231 A    
C8    C65   1.481804 S    
C44   C58   1.412603 A    
C6    N2    1.432652 S    
C12   C14   1.396951 A    
C11   H7    1.082823 S    
C40   C46   1.405569 A    
C19   C27   1.418974 A    
O16   V4    1.997769 S    
C22   C24   1.404501 A    
O7    V1    1.989955 S    
C10   C32   1.394904 A    
C1    O8    1.349186 A    
C15   C17   1.437253 A    
O8    V2    1.989957 S    
C24   C26   1.387788 A    
C63   H19   1.084638 S    
C8    C28   1.404691 A    
C34   C44   1.422043 A    
O5    V1    1.991644 S    
C19   C21   1.423102 A    
C34   C36   1.427581 A    
C20   C22   1.423070 A    
C34   I6    2.150004 S    
C37   H11   1.084540 S    
C35   C37   1.409769 A    
C5    N1    1.432675 S    
C9    C11   1.388177 A    
C23   C25   1.387791 A    
C17   C31   1.424486 A    
O9    V2    1.754058 S    
C46   C48   1.400271 A    
C42   C52   1.418881 A    
O10   V1    1.754188 S    
C62   C64   1.406079 A    
C3    C32   1.487101 S    
C48   C50   1.402710 A    
C5    C21   1.417649 A    
N2    O23   1.300871 A    
C47   H15   1.083851 S    
C6    C22   1.417664 A    
C50   C60   1.409376 A    
C49   C59   1.409380 A    
C66   O17   1.327764 A    
