data_mof_unit_27620.cif
_audit_creation_date              2012-12-11T15:31:50-0500
_audit_creation_method            fapswitch 2.2
_symmetry_space_group_name_H-M    P1
_symmetry_Int_Tables_number       1
_space_group_crystal_system       triclinic
_cell_length_a                    13.570816
_cell_length_b                    13.58686
_cell_length_c                    27.684794
_cell_angle_alpha                 90.393678
_cell_angle_beta                  90.125446
_cell_angle_gamma                 119.942199
_cell_volume                      4423.13570795

loop_
_atom_site_label
_atom_site_type_symbol
_atom_type_description
_atom_site_fract_x
_atom_site_fract_y
_atom_site_fract_z
_atom_type_partial_charge
C1    C     C_R   0.619498 0.898450 0.431257 0.545668
C2    C     C_R   0.631271 0.234800 0.208675 -0.102572
C3    C     C_R   0.620682 0.217314 0.258567 -0.100731
C4    C     C_R   0.666119 0.310303 0.290654 0.042015
C5    C     C_R   0.687585 0.345475 0.190658 0.042031
C6    C     C_1   0.694206 0.365378 0.139458 -0.052501
C7    C     C_1   0.650291 0.290331 0.341786 -0.054851
C8    C     C_1   0.701565 0.390850 0.097459 -0.004899
C9    C     C_1   0.232741 0.862964 0.382674 -0.011054
C10   C     C_R   0.276209 0.894108 0.257324 -0.100711
C11   C     C_R   0.257038 0.884688 0.207381 -0.102658
C12   C     C_R   0.599722 0.218479 0.431286 0.544934
C13   C     C_R   0.053597 0.783341 0.221310 -0.100887
C14   C     C_R   0.072765 0.792650 0.271248 -0.103536
C15   C     C_R   0.184182 0.847636 0.289382 0.041995
C16   C     C_R   0.145615 0.828825 0.189245 0.042078
C17   C     C_1   0.123906 0.813687 0.137981 -0.052267
C18   C     C_1   0.205808 0.854392 0.340630 -0.054783
C19   C     C_1   0.096669 0.794348 0.095963 -0.006218
C20   C     C_1   0.634647 0.866109 0.383614 -0.010969
C21   C     C_R   0.701638 0.772147 0.272705 -0.103523
C22   C     C_R   0.709162 0.760183 0.222824 -0.100712
C23   C     C_R   0.279603 0.878906 0.430515 0.545214
C24   C     C_R   0.607736 0.862166 0.208343 -0.102855
C25   C     C_R   0.600111 0.874027 0.258219 -0.100721
C26   C     C_R   0.647489 0.829556 0.290516 0.041967
C27   C     C_R   0.662701 0.805575 0.190523 0.042188
C28   C     C_1   0.675706 0.796650 0.139323 -0.052824
C29   C     C_1   0.642239 0.846300 0.341677 -0.054792
C30   C     C_1   0.693009 0.786895 0.097324 -0.007963
C31   C     C_R   0.639142 0.277183 0.615563 0.024048
C32   C     C_R   0.720366 0.262227 0.640875 -0.125367
C33   C     C_R   0.731289 0.278520 0.690255 -0.117537
C34   C     C_R   0.620431 0.900777 0.569020 0.542253
C35   C     C_R   0.664690 0.314616 0.714772 0.044098
C36   C     C_R   0.592145 0.341174 0.688805 -0.116014
C37   C     C_R   0.578636 0.321570 0.639314 -0.129483
C38   C     C_R   0.573147 0.294604 0.794515 -0.108263
C39   C     C_R   0.582446 0.317908 0.843749 0.321934
C40   C     C_R   0.785532 0.385639 0.839678 0.316462
C41   C     C_R   0.775977 0.365044 0.790559 -0.107244
C42   C     C_R   0.670943 0.323959 0.767361 -0.086987
C43   C     C_R   0.690055 0.369851 0.866138 0.030461
C44   C     C_R   0.224284 0.863826 0.615029 0.023886
C45   C     C_R   0.601664 0.222895 0.568469 0.541739
C46   C     C_R   0.243390 0.958702 0.642787 -0.126119
C47   C     C_R   0.217308 0.946906 0.691569 -0.120980
C48   C     C_R   0.169754 0.839799 0.713052 0.034665
C49   C     C_R   0.142111 0.743607 0.684432 -0.118725
C50   C     C_R   0.169911 0.755636 0.635714 -0.127114
C51   C     C_R   0.173585 0.753680 0.791629 -0.109966
C52   C     C_R   0.146451 0.735613 0.840363 -0.094530
C53   C     C_R   0.084694 0.875168 0.838059 -0.112880
C54   C     C_R   0.110180 0.891898 0.789286 -0.113333
C55   C     C_R   0.151600 0.828830 0.765397 0.031996
C56   C     C_R   0.279780 0.881596 0.568219 0.542074
C57   C     C_R   0.098232 0.793504 0.863464 0.026302
C58   C     C_R   0.638548 0.862404 0.615781 0.022702
C59   C     C_R   0.546108 0.771255 0.638748 -0.124625
C60   C     C_R   0.552504 0.751517 0.687430 -0.120702
C61   C     C_R   0.652109 0.821187 0.713722 0.035845
C62   C     C_R   0.747788 0.906196 0.689848 -0.119868
C63   C     C_R   0.740904 0.927103 0.641193 -0.128223
C64   C     C_R   0.712206 0.903046 0.796456 -0.116592
C65   C     C_R   0.724772 0.889775 0.845415 -0.121878
C66   C     C_R   0.613865 0.685091 0.835212 -0.122595
C67   C     C_1   0.631165 0.264421 0.383697 -0.010958
C68   C     C_R   0.602972 0.698309 0.786160 -0.120223
C69   C     C_R   0.655157 0.807291 0.766160 0.032200
C70   C     C_R   0.678957 0.780626 0.864713 0.021193
C71   C     C_R   0.049187 0.761068 0.048272 0.542845
C72   C     C_R   0.714304 0.435823 0.049739 0.542262
C73   C     C_R   0.723571 0.770702 0.049560 0.544335
C74   C     C_R   0.043917 0.755878 0.910488 0.546492
C75   C     C_R   0.707972 0.428117 0.912585 0.584226
C76   C     C_R   0.717275 0.765100 0.911880 0.537835
C77   C     C_R   0.723416 0.420979 0.272651 -0.103571
C78   C     C_R   0.734116 0.438466 0.222753 -0.100984
Cr1   Cr    Cr6+3 0.417720 0.831920 0.499820 1.024531
Cr2   Cr    Cr6+3 0.668190 0.085770 0.500360 1.023828
Cr3   Cr    Cr6+3 0.414060 0.082260 0.499840 1.025292
Cr4   Cr    Cr6+3 0.908000 0.821090 0.979770 1.038342
Cr5   Cr    Cr6+3 0.912420 0.571130 0.979880 1.088787
Cr6   Cr    Cr6+3 0.657970 0.566940 0.980940 1.067094
H1    H     H_    0.758576 0.493450 0.297048 0.103549
H2    H     H_    0.752274 0.716594 0.209420 0.098259
H3    H     H_    0.571931 0.897991 0.183798 0.105181
H4    H     H_    0.558262 0.918873 0.271614 0.098501
H5    H     H_    0.768395 0.228023 0.623464 0.134073
H6    H     H_    0.490270 0.257610 0.777359 0.144196
H7    H     H_    0.787448 0.256862 0.709391 0.103521
H8    H     H_    0.852620 0.387783 0.770414 0.143566
H9    H     H_    0.543140 0.373279 0.706948 0.104837
H10   H     H_    0.777385 0.524495 0.209168 0.098132
H11   H     H_    0.516364 0.334664 0.620262 0.124892
H12   H     H_    0.286178 0.043382 0.627801 0.134622
H13   H     H_    0.208934 0.706727 0.774172 0.111358
H14   H     H_    0.158319 0.672779 0.859321 0.157836
H15   H     H_    0.239837 0.022434 0.712894 0.108862
H16   H     H_    0.092167 0.950083 0.769840 0.107824
H17   H     H_    0.047099 0.920734 0.854904 0.142908
H18   H     H_    0.102048 0.659597 0.700020 0.110078
H19   H     H_    0.153797 0.681283 0.614833 0.125513
H20   H     H_    0.465921 0.719774 0.620079 0.132531
H21   H     H_    0.594489 0.162334 0.184269 0.105544
H22   H     H_    0.749962 0.988091 0.782049 0.112025
H23   H     H_    0.774863 0.964509 0.867682 0.136427
H24   H     H_    0.477493 0.685530 0.704957 0.104817
H25   H     H_    0.558865 0.623088 0.763574 0.109001
H26   H     H_    0.578831 0.599841 0.849162 0.156635
H27   H     H_    0.826838 0.958658 0.709133 0.104662
H28   H     H_    0.813624 0.997295 0.624210 0.126070
H29   H     H_    0.575916 0.131293 0.272135 0.098572
H30   H     H_    0.362805 0.936563 0.270956 0.098498
H31   H     H_    0.328813 0.919752 0.183035 0.105547
H32   H     H_    0.966999 0.739531 0.207674 0.098107
H33   H     H_    0.000982 0.756095 0.295586 0.103368
H34   H     H_    0.738831 0.737706 0.297245 0.103622
O1    O     O_R   0.302900 0.805360 0.446400 -0.504698
O2    O     O_R   0.657980 0.180990 0.549630 -0.506462
O3    O     O_R   0.503420 0.197810 0.553190 -0.521147
O4    O     O_R   0.320350 0.978840 0.548910 -0.504204
O5    O     O_3   0.499990 0.999990 0.500010 -0.246517
O6    O     O_R   0.819150 0.845650 0.033320 -0.501876
O7    O     O_R   0.006060 0.815720 0.028680 -0.492451
O8    O     O_R   0.028100 0.664460 0.032550 -0.505713
O9    O     O_R   0.811290 0.477490 0.029660 -0.498756
O10   O     O_R   0.638120 0.455970 0.034270 -0.500277
O11   O     O_R   0.667540 0.672320 0.030160 -0.494316
O12   O     O_R   0.522090 0.841370 0.450730 -0.493496
O13   O     O_R   0.814460 0.840990 0.926980 -0.516436
O14   O     O_R   0.001710 0.811400 0.930110 -0.508298
O15   O     O_R   0.023410 0.659800 0.926210 -0.471863
O16   O     O_R   0.806940 0.473170 0.931090 -0.439267
O17   O     O_R   0.633420 0.451310 0.927930 -0.458735
O18   O     O_R   0.663190 0.668000 0.931580 -0.502279
O19   O     O_3   0.826130 0.653050 0.980200 -0.271226
O20   O     O_R   0.693280 0.995650 0.447220 -0.504073
O21   O     O_R   0.657260 0.178740 0.451050 -0.493510
O22   O     O_R   0.502640 0.195380 0.446850 -0.504488
O23   O     O_R   0.319630 0.976590 0.450330 -0.493085
O24   O     O_R   0.303680 0.807790 0.552740 -0.519687
O25   O     O_R   0.522820 0.843620 0.549310 -0.504336
O26   O     O_R   0.694060 0.998080 0.553560 -0.521355
F1    F     F_    0.487602 0.295811 0.868669 -0.614980
F2    F     F_    0.890780 0.431049 0.859881 -0.618636

loop_
_geom_bond_atom_site_label_1
_geom_bond_atom_site_label_2
_ccdc_geom_bond_type
Cr6   O10   S    
C48   C55   S    
C66   C68   A    
C21   C26   A    
Cr2   O2    S    
Cr6   O17   S    
C51   H13   S    
C74   O14   A    
C15   C18   S    
C41   C42   A    
C19   C71   S    
C35   C36   A    
C24   C27   A    
C76   O18   A    
C75   O16   A    
C66   C70   A    
C77   C78   A    
C34   O26   A    
C62   C63   A    
C72   O10   A    
C59   H20   S    
C36   C37   A    
C38   C42   A    
Cr4   O19   S    
C10   C15   A    
C33   H7    S    
C23   O1    A    
C38   C39   A    
C76   O13   A    
C75   O17   A    
Cr1   O24   S    
C44   C50   A    
C65   C70   A    
C74   O15   A    
Cr6   O11   S    
C47   H15   S    
C37   H11   S    
C63   H28   S    
C35   C42   S    
Cr5   O16   S    
C17   C19   T    
C46   C47   A    
C36   H9    S    
C40   C43   A    
Cr1   O25   S    
C62   H27   S    
C47   C48   A    
C53   H17   S    
C16   C17   S    
Cr2   O26   S    
Cr1   O1    S    
C12   O22   A    
C71   O8    A    
C11   H31   S    
Cr3   O22   S    
C10   H30   S    
C56   O24   A    
C14   H33   S    
Cr3   O23   S    
C77   H1    S    
C59   C60   A    
C21   C22   A    
C54   H16   S    
C4    C7    S    
Cr4   O6    S    
C44   C46   A    
C20   C29   T    
C43   C75   S    
C12   C67   S    
C73   O11   A    
C34   O25   A    
C8    C72   S    
C72   O9    A    
C51   C52   A    
C24   C25   A    
C1    O12   A    
C3    H29   S    
C49   H18   S    
C30   C73   S    
C53   C57   A    
C9    C23   S    
C6    C8    T    
C45   O3    A    
C25   C26   A    
C53   C54   A    
Cr1   O12   S    
Cr1   O5    S    
C25   H4    S    
C31   C37   A    
Cr3   O3    S    
C60   C61   A    
C56   O4    A    
C57   C74   S    
Cr4   O7    S    
C21   H34   S    
C11   C16   A    
C44   C56   S    
C31   C32   A    
C73   O6    A    
C39   F1    S    
C12   O21   A    
C64   C69   A    
C66   H26   S    
C45   O2    A    
C48   C49   A    
Cr3   O5    S    
Cr6   O19   S    
C22   C27   A    
C32   H5    S    
C70   C76   S    
C2    C5    A    
Cr5   O8    S    
Cr4   O14   S    
C3    C4    A    
Cr5   O19   S    
C52   C57   A    
C61   C69   S    
C58   C63   A    
C54   C55   A    
Cr6   O18   S    
C1    C20   S    
C68   C69   A    
C23   O23   A    
Cr5   O9    S    
C60   H24   S    
C39   C43   A    
C64   H22   S    
Cr2   O21   S    
C38   H6    S    
C2    H21   S    
C40   F2    S    
Cr3   O4    S    
C64   C65   A    
C28   C30   T    
C2    C3    A    
C58   C59   A    
C4    C77   A    
Cr4   O13   S    
C32   C33   A    
C5    C6    S    
C78   H10   S    
Cr2   O20   S    
C52   H14   S    
C33   C35   A    
C51   C55   A    
C68   H25   S    
C22   H2    S    
C61   C62   A    
C24   H3    S    
Cr5   O15   S    
C13   H32   S    
C10   C11   A    
C7    C67   T    
C9    C18   T    
C50   H19   S    
C41   H8    S    
C46   H12   S    
C26   C29   S    
C49   C50   A    
C31   C45   S    
C13   C16   A    
C27   C28   S    
C34   C58   S    
C14   C15   A    
C71   O7    A    
C40   C41   A    
C5    C78   A    
C13   C14   A    
C65   H23   S    
C1    O20   A    
Cr2   O5    S    
