data_mof_unit_29095.cif
_audit_creation_date              2013-03-05T15:48:53-0500
_audit_creation_method            fapswitch 2.2
_symmetry_space_group_name_H-M    P1
_symmetry_Int_Tables_number       1
_space_group_crystal_system       triclinic
_cell_length_a                    15.839002
_cell_length_b                    12.991891
_cell_length_c                    11.847254
_cell_angle_alpha                 99.597698
_cell_angle_beta                  91.647231
_cell_angle_gamma                 94.923712
_cell_volume                      2392.61541664

loop_
_atom_site_label
_atom_site_type_symbol
_atom_site_description
_atom_site_fract_x
_atom_site_fract_y
_atom_site_fract_z
_atom_type_partial_charge
O1    O     O_R   0.504390 0.354460 0.582000 -0.560834
O2    O     O_R   0.493940 0.341410 0.386200 -0.610957
C1    C     C_R   0.496712 0.299367 0.478740 0.839982
O3    O     O_R   0.384660 0.506540 0.597940 -0.495863
O4    O     O_R   0.374210 0.493480 0.402140 -0.596557
C2    C     C_R   0.340554 0.499427 0.501667 0.821500
Cu1   Cu    Cu3+1 0.506190 0.507730 0.615930 1.091114
Cu2   Cu    Cu3+1 0.493810 0.492270 0.384070 1.046055
O5    O     O_R   0.506060 0.658590 0.613800 -0.567934
O6    O     O_R   0.495610 0.645540 0.418000 -0.535790
O7    O     O_R   0.625790 0.506520 0.597860 -0.548245
O8    O     O_R   0.615340 0.493460 0.402060 -0.510497
C3    C     C_R   0.498492 0.700342 0.521281 0.842224
C4    C     C_R   0.659284 0.497804 0.498105 0.856391
C5    C     C_3   0.045940 0.420422 0.585010 -0.382851
C6    C     C_3   0.046896 0.444874 0.378086 -0.403021
C7    C     C_3   0.947555 0.436742 0.371596 0.584127
H1    H     H_    0.919140 0.338266 0.563316 0.184746
H2    H     H_    0.063138 0.338861 0.558842 0.204696
H3    H     H_    0.073876 0.495662 0.318588 0.221684
H4    H     H_    0.071122 0.367255 0.349897 0.215527
C8    C     C_1   0.748424 0.492276 0.494395 0.016806
C9    C     C_3   0.082598 0.490423 0.500991 0.086449
C10   C     C_3   0.947657 0.420083 0.586444 0.192561
C11   C     C_3   0.916051 0.485261 0.494937 -0.052678
C12   C     C_3   0.957140 0.599500 0.531441 -0.354501
C13   C     C_3   0.054835 0.602338 0.534912 -0.353791
C14   C     C_1   0.823709 0.487695 0.493831 0.114573
C15   C     C_1   0.175084 0.494283 0.504469 -0.001774
C16   C     C_1   0.250858 0.497120 0.504764 -0.059483
H5    H     H_    0.080595 0.637133 0.622676 0.209767
H6    H     H_    0.080732 0.653709 0.475317 0.216724
H7    H     H_    0.935949 0.634367 0.616511 0.254142
H8    H     H_    0.076071 0.448686 0.671840 0.220845
H9    H     H_    0.935106 0.652201 0.474962 0.238524
C17   C     C_R   0.493511 0.813484 0.532733 -0.099043
C18   C     C_R   0.489164 0.185372 0.466435 -0.110255
C19   C     C_R   0.459138 0.014125 0.346826 0.423671
C20   C     C_R   0.467989 0.123245 0.359349 -0.221520
C21   C     C_R   0.499308 0.138571 0.563050 -0.191853
C22   C     C_R   0.493106 0.030213 0.552537 0.098528
C23   C     C_R   0.476281 0.966566 0.443382 0.015631
C24   C     C_R   0.478907 0.858187 0.434752 -0.124804
C25   C     C_R   0.502582 0.877146 0.640780 -0.124343
C26   C     C_R   0.504053 0.985022 0.650461 -0.140849
H10   H     H_    0.471556 0.808193 0.351984 0.236765
H11   H     H_    0.509642 0.844080 0.717892 0.215544
H12   H     H_    0.514214 0.033203 0.734533 0.158904
H13   H     H_    0.457053 0.160047 0.285369 0.206759
H14   H     H_    0.513361 0.186407 0.646735 0.177189
N1    N     N_R   0.515490 0.519350 0.790130 -0.294535
N2    N     N_R   0.484510 0.480650 0.209890 -0.248963
C27   C     C_R   0.436677 0.381957 0.027413 -0.160961
C28   C     C_R   0.438248 0.397050 0.146954 0.036037
C29   C     C_R   0.537432 0.547787 0.154958 0.576130
C30   C     C_R   0.531949 0.537104 0.032183 -0.126443
C31   C     C_R   0.475995 0.457940 0.968819 -0.084783
C32   C     C_R   0.460489 0.457987 0.849225 0.471236
C33   C     C_R   0.576200 0.588882 0.851008 0.447059
C34   C     C_R   0.581593 0.602414 0.970087 -0.192132
H15   H     H_    0.408258 0.307759 0.982081 0.186780
H16   H     H_    0.627035 0.664925 0.009841 0.257932
H17   H     H_    0.405052 0.339225 0.189597 0.157211
S1    S     S_3+6 0.914837 0.457910 0.731670 0.059467
O9    O     O_2   0.820579 0.463403 0.732960 -0.202806
O10   O     O_2   0.936986 0.375442 0.799903 -0.223989
O11   O     O_3   0.963696 0.574275 0.794990 -0.488109
H18   H     H_    0.016378 0.557750 0.832466 0.373909
S2    S     S_3+6 0.422695 0.942775 0.210735 0.023411
O12   O     O_2   0.496810 0.901033 0.147793 -0.225366
O13   O     O_2   0.359154 0.853287 0.224224 -0.278765
O14   O     O_3   0.376471 0.021917 0.133655 -0.535450
H19   H     H_    0.360707 0.977579 0.058319 0.387098
S3    S     S_3+6 0.355519 0.407054 0.792043 0.031437
O15   O     O_2   0.307396 0.498640 0.775759 -0.241543
O16   O     O_2   0.359303 0.334739 0.679687 -0.323386
O17   O     O_3   0.295402 0.342637 0.877601 -0.517207
H20   H     H_    0.288156 0.268441 0.839111 0.365978
N3    N     N_R   0.633067 0.653579 0.795506 0.148442
O18   O     O_R   0.619962 0.751599 0.800969 -0.357275
O19   O     O_R   0.710025 0.627752 0.781214 -0.269857
S4    S     S_3+6 0.618591 0.647799 0.225763 0.050882
O20   O     O_2   0.700527 0.623323 0.170728 -0.248674
O21   O     O_2   0.595589 0.750491 0.197188 -0.276993
O22   O     O_3   0.642496 0.671120 0.366806 -0.515042
H21   H     H_    0.688181 0.729423 0.378723 0.374959
S5    S     S_3+6 0.907351 0.298804 0.327974 0.043893
O23   O     O_2   0.954382 0.229110 0.391873 -0.286349
O24   O     O_2   0.814582 0.283354 0.350678 -0.299375
O25   O     O_3   0.920505 0.258620 0.187508 -0.420284
H22   H     H_    0.863795 0.257204 0.149459 0.402292
S6    S     S_3+6 0.913438 0.505108 0.257822 0.049941
O26   O     O_2   0.944327 0.454052 0.145156 -0.189764
O27   O     O_2   0.818285 0.499049 0.249486 -0.233469
O28   O     O_3   0.953181 0.631380 0.279002 -0.558087
H23   H     H_    0.920884 0.663900 0.223519 0.411528

loop_
_geom_bond_atom_site_label_1
_geom_bond_atom_site_label_2
_geom_bond_distance
_ccdc_geom_bond_type
C29   C30   1.437301 A    
C6    H4    1.112277 S    
C22   C23   1.418760 A    
O28   H23   0.991288 S    
S5    O23   1.503255 D    
O25   H22   0.990689 S    
Cu1   Cu2   2.720766 S    
O17   H20   0.990816 S    
C11   C14   1.465399 S    
C5    H2    1.112649 S    
C12   C13   1.543875 S    
S3    O16   1.501777 D    
H1    C10   1.105584 S    
C9    C15   1.460594 S    
C19   C23   1.417994 A    
C18   C21   1.394261 A    
O22   H21   0.990791 S    
C19   C20   1.395001 A    
O7    C4    1.301040 A    
C28   H17   1.081708 S    
C30   C31   1.398073 A    
C34   H16   1.073337 S    
S2    O13   1.503477 D    
O5    C3    1.308398 A    
C27   H15   1.076692 S    
C6    C7    1.566727 S    
S3    O17   1.684059 S    
C9    C13   1.547257 S    
Cu2   N2    2.043911 S    
C5    H8    1.112002 S    
N2    C29   1.407876 A    
C6    H3    1.113037 S    
C5    C9    1.549019 S    
C19   S2    1.774337 S    
C33   C34   1.391489 A    
C10   S1    1.812533 S    
O1    Cu1   1.962200 S    
C7    S6    1.826896 S    
O3    Cu1   1.929032 S    
N2    C28   1.354418 A    
S3    O15   1.502604 D    
C13   H5    1.113168 S    
O11   H18   0.990314 S    
S1    O11   1.683685 S    
C10   C11   1.578176 S    
C3    C17   1.462649 S    
O3    C2    1.305925 A    
C33   N3    1.427780 S    
N3    O19   1.300075 A    
C27   C31   1.411383 A    
C11   C12   1.554779 S    
C27   C28   1.396186 A    
S6    O28   1.681336 S    
C30   C34   1.416449 A    
O1    C1    1.306986 A    
S1    O10   1.503826 D    
S2    O14   1.682565 S    
Cu1   O7    1.913615 S    
C15   C16   1.197474 T    
C12   H7    1.107661 S    
Cu2   O8    1.929030 S    
S6    O27   1.501948 D    
N1    C32   1.409468 A    
C29   S4    1.825439 S    
C21   C22   1.387105 A    
C20   H13   1.082598 S    
O8    C4    1.307174 A    
C6    C9    1.548567 S    
S4    O21   1.501430 D    
S5    O24   1.503921 D    
C17   C25   1.399733 A    
N1    C33   1.361847 A    
C23   C24   1.398951 A    
C25   C26   1.385126 A    
C32   S3    1.804995 S    
C26   H12   1.084156 S    
Cu1   O5    1.964497 S    
C5    C10   1.556923 S    
C2    C16   1.420095 S    
C13   H6    1.113086 S    
C7    S5    1.833166 S    
O2    Cu2   1.964497 S    
O14   H19   0.990872 S    
O6    C3    1.306486 A    
O4    Cu2   1.913617 S    
C25   H11   1.079303 S    
S4    O22   1.674045 S    
C7    C11   1.603229 S    
S1    O9    1.501157 D    
C4    C8    1.421417 S    
O2    C1    1.305101 A    
Cu1   N1    2.044147 S    
C18   C20   1.400397 A    
C31   C32   1.431137 A    
O4    C2    1.301263 A    
C21   H14   1.084816 S    
S6    O26   1.503002 D    
S2    O12   1.500996 D    
C24   H10   1.079365 S    
N3    O18   1.299094 A    
C12   H9    1.103945 S    
C1    C18   1.457923 S    
Cu2   O6    1.962199 S    
S4    O20   1.503610 D    
S5    O25   1.683500 S    
C22   C26   1.397755 A    
C17   C24   1.403821 A    
C8    C14   1.199168 T    
