data_mof_unit_63100.cif
_audit_creation_date              2013-03-05T16:28:32-0500
_audit_creation_method            fapswitch 2.2
_symmetry_space_group_name_H-M    P1
_symmetry_Int_Tables_number       1
_space_group_crystal_system       triclinic
_cell_length_a                    23.447768
_cell_length_b                    22.727025
_cell_length_c                    27.699453
_cell_angle_alpha                 90.567477
_cell_angle_beta                  88.332641
_cell_angle_gamma                 89.989357
_cell_volume                      14754.0082045

loop_
_atom_site_label
_atom_site_type_symbol
_atom_site_description
_atom_site_fract_x
_atom_site_fract_y
_atom_site_fract_z
_atom_type_partial_charge
O1    O     O_R   0.416150 0.549570 0.500020 -0.554495
O2    O     O_R   0.583850 0.450430 0.499980 -0.606855
O3    O     O_R   0.583850 0.549570 0.499980 -0.554610
O4    O     O_R   0.416150 0.450430 0.500020 -0.607198
C1    C     C_R   0.389338 0.500028 0.499156 0.933480
C2    C     C_R   0.610660 0.500038 0.500840 0.934270
O5    O     O_R   0.500010 0.549550 0.428760 -0.596130
O6    O     O_R   0.499990 0.450450 0.571240 -0.594632
O7    O     O_R   0.499990 0.549550 0.571240 -0.598763
O8    O     O_R   0.500010 0.450450 0.428760 -0.596276
O9    O     O_2   0.550297 0.847187 0.424224 -0.545118
O10   O     O_2   0.411486 0.152293 0.543798 -0.546722
O11   O     O_2   0.449382 0.849192 0.575522 -0.545518
O12   O     O_2   0.588344 0.151104 0.455535 -0.547263
C3    C     C_R   0.499848 0.499700 0.405972 0.907923
C4    C     C_R   0.499978 0.500348 0.594040 0.907905
Zn1   Zn    Zn3+2 0.500000 0.566180 0.500000 1.078187
Zn2   Zn    Zn3+2 0.500000 0.433820 0.500000 1.034858
C5    C     C_R   0.522190 0.252742 0.460479 -0.222223
C6    C     C_R   0.453795 0.746975 0.519496 -0.212392
C7    C     C_R   0.477902 0.253535 0.539268 -0.222866
C8    C     C_R   0.546091 0.746539 0.480478 -0.213130
H1    H     H_    0.537581 0.231093 0.427769 0.223788
H2    H     H_    0.415460 0.768423 0.533161 0.226355
H3    H     H_    0.462483 0.232542 0.571908 0.223665
H4    H     H_    0.584406 0.767697 0.466829 0.226260
C9    C     C_R   0.447828 0.493586 0.178705 0.540461
C10   C     C_R   0.551301 0.506779 0.821268 0.540699
O13   O     O_2   0.398372 0.494078 0.204905 -0.526822
O14   O     O_2   0.600684 0.505812 0.794972 -0.526523
N1    N     N_R   0.498687 0.494348 0.201470 -0.360409
N2    N     N_R   0.500377 0.506787 0.798597 -0.360163
C11   C     C_R   0.549630 0.491754 0.176413 0.525520
C12   C     C_R   0.449537 0.510298 0.823755 0.525337
C13   C     C_R   0.509751 0.548825 0.276959 -0.086631
C14   C     C_R   0.490370 0.556518 0.721800 -0.082136
C15   C     C_R   0.509889 0.550310 0.327139 -0.159504
C16   C     C_R   0.490298 0.554951 0.671704 -0.158252
C17   C     C_R   0.487847 0.445821 0.328721 -0.161395
C18   C     C_R   0.510000 0.449959 0.672546 -0.163004
C19   C     C_R   0.487526 0.444546 0.278626 -0.083563
C20   C     C_R   0.510243 0.451730 0.722721 -0.087572
C21   C     C_R   0.498589 0.495958 0.252825 0.294733
C22   C     C_R   0.500337 0.504972 0.747237 0.294313
C23   C     C_R   0.498895 0.493470 0.101548 -0.053487
C24   C     C_R   0.500438 0.507941 0.898516 -0.053433
C25   C     C_R   0.447015 0.492405 0.128230 -0.080966
C26   C     C_R   0.552257 0.508216 0.871743 -0.081555
C27   C     C_R   0.395926 0.486188 0.104195 -0.130696
C28   C     C_R   0.603453 0.514119 0.895677 -0.130739
C29   C     C_R   0.550677 0.490708 0.125929 -0.021486
C30   C     C_R   0.448630 0.511375 0.874230 -0.020735
C31   C     C_R   0.499183 0.498693 0.353300 -0.049514
C32   C     C_R   0.499999 0.501614 0.646742 -0.050039
H5    H     H_    0.478933 0.405577 0.348129 0.190225
H6    H     H_    0.518034 0.408462 0.654042 0.190507
H7    H     H_    0.478845 0.403700 0.259763 0.152073
H8    H     H_    0.518018 0.411882 0.742613 0.152224
H9    H     H_    0.356335 0.479025 0.124441 0.223865
H10   H     H_    0.643057 0.520793 0.875328 0.224400
C33   C     C_R   0.447436 0.504458 0.975789 0.073391
C34   C     C_R   0.552033 0.497242 0.024306 0.073360
C35   C     C_R   0.553020 0.505591 0.973668 -0.028689
C36   C     C_R   0.446449 0.495754 0.026351 -0.028649
C37   C     C_R   0.500375 0.505294 0.949523 0.047267
C38   C     C_R   0.499054 0.496199 0.050539 0.047359
C39   C     C_R   0.397515 0.517494 0.950815 -0.141483
C40   C     C_R   0.601981 0.484702 0.049417 -0.142464
C41   C     C_R   0.397599 0.518449 0.900781 -0.114027
C42   C     C_R   0.601819 0.484077 0.099464 -0.114320
H11   H     H_    0.401673 0.947780 0.591110 0.198288
H12   H     H_    0.605914 0.052189 0.414935 0.197742
H13   H     H_    0.598047 0.945335 0.408495 0.198362
H14   H     H_    0.393869 0.054470 0.584542 0.197816
O15   O     O_2   0.400178 0.512317 0.799924 -0.524725
O16   O     O_2   0.598920 0.490053 0.200360 -0.523759
C43   C     C_R   0.395559 0.483596 0.054023 0.228052
C44   C     C_R   0.603924 0.517243 0.945840 0.227911
H15   H     H_    0.357704 0.526052 0.883076 0.203701
H16   H     H_    0.641737 0.476899 0.117251 0.203768
H17   H     H_    0.358236 0.529550 0.969463 0.196013
H18   H     H_    0.641355 0.472722 0.030913 0.195936
C45   C     C_R   0.881956 0.491043 0.457077 0.526458
C46   C     C_R   0.118036 0.492026 0.542849 0.526435
N3    N     N_R   0.852317 0.491382 0.500370 -0.351973
N4    N     N_R   0.147676 0.491455 0.499556 -0.351975
C47   C     C_R   0.879297 0.489827 0.543488 0.521114
C48   C     C_R   0.120698 0.488977 0.456434 0.521182
C49   C     C_R   0.938805 0.489341 0.544244 -0.022303
C50   C     C_R   0.061191 0.488443 0.455676 -0.022325
C51   C     C_R   0.970038 0.489064 0.500039 -0.017022
C52   C     C_R   0.029958 0.489083 0.499881 -0.017024
C53   C     C_R   0.941505 0.489251 0.455993 -0.024885
C54   C     C_R   0.058489 0.490225 0.543929 -0.024882
C55   C     C_R   0.967627 0.489512 0.587956 -0.136062
C56   C     C_R   0.032369 0.487666 0.411963 -0.136035
C57   C     C_R   0.026985 0.490212 0.587801 -0.136731
C58   C     C_R   0.973010 0.488329 0.412120 -0.136777
C59   C     C_R   0.526316 0.314343 0.462996 0.324807
C60   C     C_R   0.456827 0.685464 0.523002 0.357674
C61   C     C_R   0.473627 0.315059 0.536882 0.327637
C62   C     C_R   0.543167 0.684942 0.477022 0.359615
O17   O     O_2   0.853795 0.493212 0.415312 -0.528402
O18   O     O_2   0.146193 0.495098 0.584620 -0.528339
O19   O     O_2   0.848501 0.488585 0.585409 -0.531867
O20   O     O_2   0.151497 0.486862 0.414510 -0.531781
H19   H     H_    0.944467 0.489672 0.622367 0.202564
H20   H     H_    0.055529 0.487111 0.377552 0.202581
H21   H     H_    0.048036 0.490880 0.622094 0.202431
H22   H     H_    0.951958 0.488255 0.377827 0.202398
C63   C     C_R   0.236589 0.542280 0.478439 -0.109610
C64   C     C_R   0.763402 0.542684 0.521594 -0.109397
H23   H     H_    0.212170 0.577117 0.462414 0.181933
H24   H     H_    0.787820 0.577856 0.537682 0.182026
C65   C     C_R   0.295851 0.545067 0.477337 0.265726
C66   C     C_R   0.704141 0.545511 0.522716 0.265738
C67   C     C_R   0.327188 0.499500 0.498627 -0.122191
C68   C     C_R   0.672807 0.499498 0.501348 -0.122303
C69   C     C_R   0.298412 0.451428 0.519435 -0.219440
C70   C     C_R   0.701580 0.450973 0.480440 -0.219532
H25   H     H_    0.321571 0.415925 0.535796 0.214774
H26   H     H_    0.678413 0.415129 0.464014 0.214409
C71   C     C_R   0.239391 0.448706 0.519599 -0.078986
C72   C     C_R   0.760603 0.448231 0.480255 -0.079214
C73   C     C_R   0.208421 0.494232 0.499348 0.237786
C74   C     C_R   0.791571 0.494181 0.500588 0.237815
N5    N     N_R   0.500000 0.345660 0.500000 -0.141108
N6    N     N_R   0.500000 0.654340 0.500000 -0.145541
C75   C     C_R   0.528338 0.875360 0.463561 0.535971
C76   C     C_R   0.457583 0.124378 0.524506 0.530354
C77   C     C_R   0.471378 0.876323 0.536160 0.536070
C78   C     C_R   0.542284 0.123715 0.474933 0.530633
N7    N     N_R   0.499866 0.844600 0.499889 -0.321674
N8    N     N_R   0.499972 0.155289 0.499745 -0.323491
C79   C     C_R   0.466153 0.938126 0.533709 -0.025606
C80   C     C_R   0.539313 0.061823 0.470575 -0.025081
C81   C     C_R   0.533588 0.937222 0.465928 -0.025663
C82   C     C_R   0.460504 0.062603 0.528916 -0.025083
C83   C     C_R   0.499884 0.968762 0.499802 -0.013083
C84   C     C_R   0.499904 0.031126 0.499767 -0.012505
C85   C     C_R   0.428825 0.970138 0.564855 -0.133920
C86   C     C_R   0.575416 0.029797 0.438412 -0.135853
C87   C     C_R   0.570918 0.968396 0.434730 -0.133821
C88   C     C_R   0.424362 0.031443 0.561099 -0.135784
C89   C     C_R   0.500050 0.220267 0.499833 0.194372
C90   C     C_R   0.499909 0.779625 0.499951 0.184553
Br1   Br    Br    0.327991 0.447176 0.029011 -0.454420
Br2   Br    Br    0.671664 0.553774 0.970425 -0.452439
Br3   Br    Br    0.330427 0.609691 0.443085 -0.420176
Br4   Br    Br    0.669553 0.610868 0.557100 -0.419797
H27   H     H_    0.217620 0.411250 0.535465 0.170960
H28   H     H_    0.782375 0.410430 0.464312 0.170791
Br5   Br    Br    0.573689 0.350703 0.414516 -0.471876
Br6   Br    Br    0.400705 0.648851 0.564218 -0.408515
Br7   Br    Br    0.425496 0.352116 0.585117 -0.472119
Br8   Br    Br    0.599523 0.647418 0.435965 -0.407195
H29   H     H_    0.482419 0.595368 0.652608 0.197605
H30   H     H_    0.518776 0.591540 0.345359 0.196625
H31   H     H_    0.482790 0.597688 0.740941 0.155879
H32   H     H_    0.518275 0.588583 0.256772 0.155806

loop_
_geom_bond_atom_site_label_1
_geom_bond_atom_site_label_2
_geom_bond_distance
_ccdc_geom_bond_type
C35   C37   1.420951 A    
C58   H22   1.083147 S    
O2    Zn2   2.002059 S    
C18   H6    1.082768 S    
C36   C43   1.427866 A    
H12   C86   1.083002 S    
C80   C84   1.400847 A    
O3    C2    1.289997 A    
C20   H8    1.082884 S    
C68   C70   1.403986 A    
C64   H24   1.083206 S    
C17   C19   1.387865 A    
O12   C78   1.347468 S    
C79   C83   1.400825 A    
C81   C83   1.400751 A    
C5    C89   1.409132 A    
N1    C21   1.422552 S    
O1    C1    1.290015 A    
C3    C31   1.459464 S    
C13   C15   1.390140 A    
O7    C4    1.289656 A    
C46   N4    1.368364 A    
C77   C79   1.412390 A    
O8    C3    1.290514 A    
C67   C69   1.403997 A    
N4    C48   1.368467 A    
C71   C73   1.395507 A    
C9    O13   1.349978 S    
C7    C61   1.404164 A    
C23   C29   1.408108 A    
C9    C25   1.398815 A    
C45   C53   1.396330 A    
C24   C30   1.408152 A    
C48   O20   1.349988 S    
C2    C68   1.457744 S    
C23   C25   1.405215 A    
C13   H32   1.082891 S    
C80   C86   1.408243 A    
C30   C41   1.394586 A    
C14   H31   1.082966 S    
N2    C12   1.365119 A    
C17   H5    1.082828 S    
C6    H2    1.079456 S    
C27   C43   1.390676 A    
C10   O14   1.349956 S    
C65   C67   1.413213 A    
C16   C32   1.404751 A    
C63   C73   1.398076 A    
N1    C11   1.364892 A    
C29   C42   1.394531 A    
C49   C51   1.408307 A    
C13   C21   1.397636 A    
C43   Br1   1.930853 S    
C64   C74   1.398088 A    
C44   Br2   1.930844 S    
C12   O15   1.349960 S    
H11   C85   1.083004 S    
O4    Zn2   2.001922 S    
C18   C20   1.390193 A    
C72   H28   1.083016 S    
O6    C4    1.292563 A    
N4    C73   1.425591 S    
C19   C21   1.396130 A    
N3    C74   1.425588 S    
O2    C2    1.291311 A    
C20   C22   1.397759 A    
C28   C44   1.390968 A    
C66   Br4   1.922962 S    
C70   H26   1.082993 S    
C71   H27   1.083020 S    
C69   H25   1.082946 S    
N2    C22   1.422852 S    
C24   C26   1.405008 A    
C45   O17   1.349952 S    
N3    C47   1.368465 A    
C9    N1    1.365129 A    
C8    C90   1.409481 A    
C10   N2    1.365209 A    
C34   C38   1.421103 A    
C24   C37   1.414680 A    
C25   C27   1.393869 A    
C85   C88   1.402309 A    
C51   C52   1.404870 A    
C5    C59   1.404558 A    
C59   N5    1.373502 A    
O5    C3    1.291513 A    
C54   C57   1.403653 A    
O5    Zn1   2.005491 S    
C42   H16   1.083419 S    
O6    Zn2   2.005488 S    
C56   C58   1.391795 A    
C39   C41   1.386241 A    
C7    C89   1.408921 A    
C15   H30   1.083052 S    
C49   C55   1.403679 A    
C33   C36   1.415917 A    
C5    H1    1.079487 S    
C34   C35   1.416787 A    
Zn2   N5    2.003615 S    
C51   C53   1.408447 A    
C57   H21   1.083146 S    
C33   C39   1.409791 A    
C11   O16   1.349934 S    
C50   C52   1.408308 A    
C47   O19   1.349991 S    
O9    C75   1.347494 S    
C78   C80   1.412499 A    
C65   Br3   1.922968 S    
C52   C54   1.408445 A    
O11   C77   1.347473 S    
C63   H23   1.083206 S    
C46   C54   1.396318 A    
C50   C56   1.403683 A    
C55   H19   1.083147 S    
C75   N7    1.386367 A    
O7    Zn1   2.012841 S    
C45   N3    1.368360 A    
C48   C50   1.396143 A    
O10   C76   1.347505 S    
C18   C32   1.403678 A    
C47   C49   1.396131 A    
C46   O18   1.349955 S    
C6    C90   1.409643 A    
C14   C22   1.396169 A    
C76   C82   1.412287 A    
C62   Br8   1.913043 S    
C64   C66   1.390440 A    
C72   C74   1.395533 A    
H13   C87   1.083001 S    
C60   Br6   1.912904 S    
N8    C89   1.476725 S    
C7    H3    1.079497 S    
C10   C26   1.399026 A    
C60   N6    1.372727 A    
C12   C30   1.397633 A    
C16   H29   1.083022 S    
O4    C1    1.291350 A    
C77   N7    1.386305 A    
C27   H9    1.083671 S    
C83   C84   1.417370 A    
C55   C57   1.391784 A    
Zn1   N6    2.003615 S    
C39   H17   1.076818 S    
C82   C84   1.400735 A    
C69   C71   1.385172 A    
C11   C29   1.397847 A    
O1    Zn1   2.002062 S    
C8    C62   1.404057 A    
C34   C40   1.409925 A    
C28   H10   1.083670 S    
C14   C16   1.387775 A    
C15   C31   1.403798 A    
C6    C60   1.404227 A    
C82   C88   1.408241 A    
C17   C31   1.404459 A    
O8    Zn2   2.012844 S    
C59   Br5   1.911941 S    
C26   C28   1.393950 A    
C61   N5    1.373766 A    
C66   C68   1.413153 A    
O3    Zn1   2.001920 S    
C40   H18   1.076482 S    
C56   H20   1.083148 S    
C76   N8    1.386362 A    
C4    C32   1.459841 S    
C41   H15   1.083417 S    
C19   H7    1.082966 S    
C33   C37   1.420647 A    
C79   C85   1.408218 A    
C75   C81   1.412389 A    
C78   N8    1.386320 A    
C8    H4    1.079481 S    
C1    C67   1.457843 S    
C23   C38   1.414782 A    
C40   C42   1.386391 A    
C61   Br7   1.912512 S    
C86   C87   1.402379 A    
C63   C65   1.390469 A    
N7    C90   1.476691 S    
C62   N6    1.372894 A    
C53   C58   1.403654 A    
H14   C88   1.083006 S    
C81   C87   1.408262 A    
C70   C72   1.385204 A    
C36   C38   1.420698 A    
C35   C44   1.428132 A    
