data_mof_unit_58245.cif
_audit_creation_date              2012-12-10T17:50:49-0500
_audit_creation_method            fapswitch 2.2
_symmetry_space_group_name_H-M    P1
_symmetry_Int_Tables_number       1
_space_group_crystal_system       triclinic
_cell_length_a                    14.701339
_cell_length_b                    14.708669
_cell_length_c                    15.868375
_cell_angle_alpha                 76.973588
_cell_angle_beta                  102.768026
_cell_angle_gamma                 114.955156
_cell_volume                      2999.9714842

loop_
_atom_site_label
_atom_site_type_symbol
_atom_type_description
_atom_site_fract_x
_atom_site_fract_y
_atom_site_fract_z
_atom_type_partial_charge
C1    C     C_R   0.880059 0.312142 0.513340 0.860930
C2    C     C_R   0.360404 0.922300 0.495617 -0.092447
C3    C     C_R   0.678422 0.999796 0.553827 0.081489
C4    C     C_R   0.322671 0.996254 0.497090 0.076376
C5    C     C_R   0.533692 0.050092 0.511333 0.091774
C6    C     C_R   0.466531 0.947141 0.514866 0.095246
C7    C     C_R   0.506998 0.872079 0.545784 -0.245593
C8    C     C_R   0.494260 0.123199 0.509042 -0.249565
C9    C     C_R   0.610989 0.898222 0.567052 -0.144925
C10   C     C_R   0.390809 0.096178 0.504282 -0.139635
C11   C     C_R   0.717240 0.670940 0.355689 0.306759
C12   C     C_R   0.119814 0.687768 0.485184 0.866733
C13   C     C_R   0.281924 0.327800 0.643191 0.314613
C14   C     C_R   0.798312 0.639487 0.378818 -0.027034
C15   C     C_R   0.201415 0.360097 0.620816 -0.027923
C16   C     C_R   0.999597 0.499977 0.659984 0.808477
C17   C     C_R   0.000416 0.500045 0.340012 0.827092
C18   C     C_R   0.714186 0.508861 0.487140 0.042043
C19   C     C_R   0.285470 0.490579 0.512403 0.020610
C20   C     C_R   0.628506 0.535162 0.466819 -0.094724
C21   C     C_R   0.370677 0.463565 0.532081 -0.096658
C22   C     C_R   0.632276 0.618871 0.400369 0.113805
C23   C     C_R   0.783838 0.026623 0.576252 0.422584
C24   C     C_R   0.366706 0.379571 0.598257 0.118764
C25   C     C_R   0.540476 0.482445 0.510463 0.115368
C26   C     C_R   0.458461 0.515923 0.488100 0.108929
C27   C     C_R   0.467133 0.600829 0.422759 -0.257790
C28   C     C_R   0.531508 0.397118 0.575382 -0.263661
C29   C     C_R   0.551540 0.650346 0.379705 -0.133034
C30   C     C_R   0.447029 0.347506 0.618356 -0.143770
C31   C     C_3   0.988487 0.410158 0.044384 0.480254
C32   C     C_3   0.011589 0.590040 0.955583 0.479548
C33   C     C_3   0.910214 0.430353 0.968718 -0.275173
C34   C     C_R   0.217772 0.968751 0.493054 0.426315
C35   C     C_3   0.089862 0.569845 0.031251 -0.274750
C36   C     C_1   0.998779 0.499766 0.749521 -0.155761
C37   C     C_1   0.001267 0.500324 0.250467 -0.150209
C38   C     C_3   0.077098 0.476223 0.992274 -0.272478
C39   C     C_3   0.922977 0.523974 0.007695 -0.270535
C40   C     C_3   0.999116 0.498675 0.916953 0.090589
C41   C     C_3   0.000959 0.501521 0.083017 0.090197
C42   C     C_1   0.998669 0.499337 0.825108 0.021750
C43   C     C_1   0.001396 0.500812 0.174871 0.024710
C44   C     C_R   0.811735 0.204087 0.523350 -0.121055
C45   C     C_R   0.849370 0.129505 0.564330 -0.376146
C46   C     C_R   0.187668 0.795464 0.482083 -0.119224
C47   C     C_R   0.151485 0.867153 0.489202 -0.375298
C48   C     C_R   0.707726 0.175658 0.492787 0.329844
C49   C     C_R   0.290389 0.825545 0.476230 0.338113
C50   C     C_R   0.639448 0.075935 0.518787 -0.098743
Cu1   Cu    Cu3+1 0.081740 0.475690 0.522610 0.971797
Cu2   Cu    Cu3+1 0.918260 0.524310 0.477390 0.974783
H1    H     H_    0.837747 0.371916 0.943111 0.163295
H2    H     H_    0.138656 0.454585 0.985583 0.164856
H3    H     H_    0.638220 0.838183 0.593571 0.201519
H4    H     H_    0.364555 0.154317 0.505936 0.204097
H5    H     H_    0.071630 0.844134 0.491748 0.179828
H6    H     H_    0.929937 0.151062 0.585974 0.173246
H7    H     H_    0.458715 0.792727 0.559642 0.199773
H8    H     H_    0.543364 0.200884 0.516692 0.190708
H9    H     H_    0.553317 0.714722 0.329836 0.199963
H10   H     H_    0.444937 0.282696 0.667800 0.201132
H11   H     H_    0.784681 0.779388 0.266605 0.324061
H12   H     H_    0.162329 0.628281 0.056858 0.164353
H13   H     H_    0.214214 0.219006 0.731928 0.322523
H14   H     H_    0.970243 0.271903 0.051557 0.319804
H15   H     H_    0.029809 0.728292 0.948394 0.320546
H16   H     H_    0.375843 0.804610 0.411701 0.322543
H17   H     H_    0.616678 0.205399 0.392194 0.332897
H18   H     H_    0.895889 0.983722 0.623876 0.332619
H19   H     H_    0.107390 0.008989 0.493198 0.333160
H20   H     H_    0.280307 0.550924 0.461415 0.172537
H21   H     H_    0.719378 0.448576 0.538234 0.141009
H22   H     H_    0.135077 0.321130 0.653721 0.124311
H23   H     H_    0.864751 0.678619 0.346061 0.128517
H24   H     H_    0.409757 0.631677 0.402949 0.159644
H25   H     H_    0.588601 0.365865 0.594725 0.137368
H26   H     H_    0.861420 0.545612 0.014385 0.165798
N1    N     N_R   0.795440 0.560790 0.443380 -0.194124
N2    N     N_R   0.204560 0.439210 0.556620 -0.198028
O1    O     O_R   0.977900 0.338120 0.529810 -0.600440
O2    O     O_3   0.278925 0.246230 0.707717 -0.731300
O3    O     O_3   0.976356 0.315263 0.093821 -0.705426
O4    O     O_3   0.023718 0.684932 0.906139 -0.705322
O5    O     O_3   0.318185 0.762160 0.444606 -0.757040
O6    O     O_3   0.676294 0.243910 0.431858 -0.720371
O7    O     O_3   0.820832 0.951991 0.612291 -0.730554
O8    O     O_3   0.182240 0.040971 0.496535 -0.726001
O9    O     O_R   0.022100 0.661880 0.470190 -0.604087
O10   O     O_R   0.839850 0.379180 0.491620 -0.527465
O11   O     O_R   0.160150 0.620820 0.508380 -0.533001
O12   O     O_R   0.069010 0.479460 0.640020 -0.581701
O13   O     O_R   0.930990 0.520540 0.359980 -0.573366
O14   O     O_R   0.930960 0.520530 0.601820 -0.578857
O15   O     O_R   0.069040 0.479470 0.398180 -0.571120
O16   O     O_3   0.719839 0.751956 0.290641 -0.735260

loop_
_geom_bond_atom_site_label_1
_geom_bond_atom_site_label_2
_ccdc_geom_bond_type
C11   O16   S    
C21   C26   A    
C1    O10   A    
C23   C45   A    
C22   C29   A    
C27   C29   A    
C12   O11   A    
Cu2   O10   S    
Cu2   O9    S    
C39   C41   S    
C25   C28   A    
C46   C49   A    
C26   C27   A    
C33   C39   S    
C19   C21   A    
C5    C6    A    
C11   C14   A    
C20   C25   A    
C1    O1    A    
C31   O3    S    
C32   C39   S    
Cu1   N2    S    
Cu1   O11   S    
H14   O3    S    
C3    C23   A    
C18   N1    A    
C31   C33   S    
Cu2   O14   S    
C35   H12   S    
C9    H3    S    
Cu2   N1    S    
C10   H4    S    
Cu1   O1    S    
C48   C50   A    
H15   O4    S    
C23   O7    S    
H16   O5    S    
C41   C43   S    
C19   H20   S    
C2    C6    A    
H18   O7    S    
C7    H7    S    
C3    C50   A    
C4    C34   A    
C33   H1    S    
C32   O4    S    
C29   H9    S    
C45   H6    S    
C33   C40   S    
Cu1   Cu2   S    
C39   H26   S    
C49   O5    S    
C12   O9    A    
C35   C38   S    
C12   C46   S    
C17   C37   S    
C25   C26   A    
H11   O16   S    
C13   C24   A    
C37   C43   T    
C2    C4    A    
C32   C35   S    
C3    C9    A    
C2    C49   A    
Cu1   O12   S    
C47   H5    S    
C1    C44   S    
C15   N2    A    
C38   H2    S    
Cu2   O13   S    
C34   O8    S    
C14   N1    A    
C28   H25   S    
C17   O15   A    
C20   C22   A    
C16   O12   A    
C18   H21   S    
C30   H10   S    
C48   O6    S    
C5    C50   A    
C17   O13   A    
C4    C10   A    
C27   H24   S    
C44   C45   A    
C7    C9    A    
C46   C47   A    
C31   C41   S    
C36   C42   T    
C5    C8    A    
C6    C7    A    
C11   C22   A    
C16   O14   A    
C31   C38   S    
C14   H23   S    
C13   C15   A    
C28   C30   A    
C16   C36   S    
C38   C40   S    
H13   O2    S    
C13   O2    S    
C40   C42   S    
C18   C20   A    
C32   C40   S    
C19   N2    A    
C35   C41   S    
C24   C30   A    
H19   O8    S    
C15   H22   S    
C8    C10   A    
C21   C24   A    
C34   C47   A    
C8    H8    S    
H17   O6    S    
C44   C48   A    
Cu1   O15   S    
