data_mof_unit_25518.cif
_audit_creation_date              2012-12-10T18:34:13-0500
_audit_creation_method            fapswitch 2.2
_symmetry_space_group_name_H-M    P1
_symmetry_Int_Tables_number       1
_space_group_crystal_system       triclinic
_cell_length_a                    10.954095
_cell_length_b                    15.140483
_cell_length_c                    13.818683
_cell_angle_alpha                 90.017396
_cell_angle_beta                  102.423807
_cell_angle_gamma                 90.521408
_cell_volume                      2238.06597959

loop_
_atom_site_label
_atom_site_type_symbol
_atom_type_description
_atom_site_fract_x
_atom_site_fract_y
_atom_site_fract_z
_atom_type_partial_charge
C1    C     C_R   0.499218 0.329787 0.499781 0.825410
C2    C     C_R   0.500332 0.670022 0.500018 0.774620
C3    C     C_R   0.505470 0.048349 0.497805 -0.000865
C4    C     C_R   0.507655 0.950969 0.499281 -0.013633
C5    C     C_R   0.562921 0.565743 0.118059 -0.299478
C6    C     C_R   0.536876 0.425840 0.899461 -0.298568
C7    C     C_R   0.562156 0.564664 0.219606 0.075855
C8    C     C_R   0.537333 0.427070 0.797761 0.013845
C9    C     C_R   0.437636 0.434968 0.199009 -0.032820
C10   C     C_R   0.463592 0.573511 0.784600 0.018358
C11   C     C_R   0.434830 0.433646 0.096431 0.348342
C12   C     C_R   0.462440 0.575627 0.886534 0.323013
C13   C     C_R   0.499427 0.499690 0.054628 0.040163
C14   C     C_R   0.499705 0.500590 0.945739 0.050854
C15   C     C_R   0.261006 0.503716 0.459826 0.763452
C16   C     C_R   0.739236 0.502877 0.540147 0.755538
C17   C     C_2   0.122800 0.516505 0.437835 0.172162
C18   C     C_2   0.878029 0.514924 0.561522 0.171104
C19   C     C_2   0.069754 0.556017 0.506726 0.352292
C20   C     C_2   0.931013 0.555006 0.492476 0.354757
C21   C     C_R   0.473961 0.093886 0.577449 -0.179465
C22   C     C_R   0.447220 0.903863 0.414672 -0.174541
C23   C     C_R   0.473386 0.185620 0.578990 -0.217229
C24   C     C_R   0.446657 0.812182 0.414402 -0.223333
C25   C     C_R   0.499622 0.233328 0.499046 -0.103821
C26   C     C_R   0.502123 0.766157 0.500039 -0.104425
C27   C     C_R   0.525842 0.188392 0.417449 -0.256476
C28   C     C_R   0.559594 0.812225 0.585669 -0.257709
C29   C     C_R   0.532893 0.096621 0.417265 0.462334
C30   C     C_R   0.566485 0.904171 0.585301 0.461552
Cu1   Cu    Cu3+1 0.500000 0.499990 0.596430 0.950757
Cu2   Cu    Cu3+1 0.500000 0.500010 0.403570 0.951004
H1    H     H_    0.448652 0.058455 0.638412 0.188172
H2    H     H_    0.398304 0.937926 0.349044 0.189437
H3    H     H_    0.450327 0.219104 0.641913 0.163721
H4    H     H_    0.399966 0.777199 0.348128 0.159012
H5    H     H_    0.614169 0.617471 0.089441 0.182600
H6    H     H_    0.567447 0.367071 0.942153 0.184446
H7    H     H_    0.388815 0.383964 0.230774 0.136568
H8    H     H_    0.434874 0.631573 0.740633 0.144854
N1    N     N_R   0.500000 0.500020 0.258690 -0.192052
N2    N     N_R   0.500000 0.499980 0.741310 -0.185561
O1    O     O_R   0.500010 0.371450 0.581440 -0.591455
O2    O     O_R   0.499990 0.628550 0.418560 -0.593199
O3    O     O_R   0.500010 0.371460 0.418560 -0.588749
O4    O     O_R   0.499990 0.628540 0.581440 -0.601773
O5    O     O_R   0.320690 0.500000 0.551510 -0.515923
O6    O     O_R   0.679310 0.500000 0.448490 -0.515727
O7    O     O_R   0.320690 0.500010 0.388630 -0.598665
O8    O     O_R   0.679310 0.499990 0.611370 -0.596627
O9    O     O_3   0.857625 0.582213 0.402370 -0.589249
C31   C     C_3   0.878074 0.672590 0.384938 0.018852
H9    H     H_    0.849966 0.683626 0.303781 0.159827
H10   H     H_    0.977932 0.693135 0.406520 0.118195
C32   C     C_3   0.795350 0.730380 0.434795 -0.355978
H11   H     H_    0.696245 0.716243 0.400364 0.236233
H12   H     H_    0.810553 0.715233 0.515107 0.178752
C33   C     C_3   0.820693 0.828106 0.421589 -0.935805
H13   H     H_    0.756211 0.867617 0.455677 0.255446
H14   H     H_    0.805435 0.844305 0.341583 0.250513
H15   H     H_    0.918095 0.845487 0.458202 0.257169
O10   O     O_3   0.142823 0.585301 0.596449 -0.591684
C34   C     C_3   0.123024 0.676086 0.611756 0.001369
H16   H     H_    0.141748 0.687828 0.692603 0.161911
H17   H     H_    0.025428 0.697767 0.583317 0.120283
C35   C     C_3   0.214951 0.732651 0.568955 -0.353587
H18   H     H_    0.310670 0.710241 0.601298 0.244414
H19   H     H_    0.196939 0.724368 0.487215 0.183602
C36   C     C_3   0.207259 0.830113 0.594343 -0.897528
H20   H     H_    0.111927 0.855083 0.564624 0.251602
H21   H     H_    0.274111 0.868832 0.560916 0.269451
H22   H     H_    0.231857 0.839813 0.675927 0.256464
O11   O     O_3   0.371495 0.366393 0.038255 -0.617069
C37   C     C_3   0.245142 0.390249 0.002084 0.050096
H23   H     H_    0.222790 0.379674 0.920581 0.173862
H24   H     H_    0.224243 0.460892 0.014413 0.107561
C38   C     C_3   0.159992 0.330726 0.048660 -0.328414
H25   H     H_    0.177201 0.260471 0.032927 0.234630
H26   H     H_    0.181778 0.340371 0.130236 0.198038
C39   C     C_3   0.022311 0.351138 0.008191 -0.948632
H27   H     H_    0.002670 0.420815 0.024002 0.246979
H28   H     H_    0.963407 0.307475 0.044244 0.263747
H29   H     H_    0.997148 0.339479 0.926961 0.252284
O12   O     O_3   0.431413 0.652959 0.928206 -0.620647
C40   C     C_3   0.300405 0.655876 0.917339 0.043924
H30   H     H_    0.270696 0.608959 0.969894 0.144504
H31   H     H_    0.250624 0.638516 0.840632 0.138291
C41   C     C_3   0.263898 0.749381 0.941022 -0.304165
H32   H     H_    0.304923 0.764554 0.020137 0.222309
H33   H     H_    0.302316 0.797527 0.894291 0.227964
C42   C     C_3   0.122300 0.759946 0.921704 -0.963438
H34   H     H_    0.080866 0.752315 0.841532 0.248289
H35   H     H_    0.099705 0.826883 0.945240 0.266589
H36   H     H_    0.080015 0.710065 0.963651 0.269320
O13   O     O_3   0.958736 0.477948 0.643836 -0.609848
C43   C     C_3   0.918386 0.484304 0.734204 0.105972
H37   H     H_    0.992783 0.454444 0.792033 0.153119
H38   H     H_    0.834820 0.442498 0.734239 0.155870
C44   C     C_3   0.904134 0.580468 0.765874 -0.370006
H39   H     H_    0.995970 0.614476 0.775532 0.211542
H40   H     H_    0.836224 0.616511 0.708608 0.204292
C45   C     C_3   0.860026 0.584544 0.863196 -0.902384
H41   H     H_    0.849177 0.654550 0.883480 0.257879
H42   H     H_    0.929474 0.553161 0.923384 0.241114
H43   H     H_    0.768373 0.550293 0.855567 0.269615
O14   O     O_3   0.042617 0.482025 0.353105 -0.606812
C46   C     C_3   0.082768 0.496216 0.263442 0.116937
H44   H     H_    0.006842 0.471241 0.202680 0.164692
H45   H     H_    0.163775 0.454432 0.258761 0.150834
C47   C     C_3   0.103173 0.594557 0.241875 -0.360489
H46   H     H_    0.012254 0.629065 0.229373 0.208274
H47   H     H_    0.167681 0.627205 0.304955 0.199249
C48   C     C_3   0.158064 0.605474 0.150181 -0.932437
H48   H     H_    0.249930 0.572353 0.161067 0.263611
H49   H     H_    0.172324 0.676791 0.137195 0.260886
H50   H     H_    0.093660 0.577011 0.084207 0.239821
H51   H     H_    0.542882 0.224449 0.353882 0.168133
H52   H     H_    0.602012 0.776825 0.652432 0.160919
O15   O     O_3   0.557304 0.055043 0.334389 -0.626766
C49   C     C_3   0.686866 0.039298 0.347390 0.048334
H53   H     H_    0.696909 0.979267 0.303854 0.180676
H54   H     H_    0.733591 0.025334 0.425629 0.114920
C50   C     C_3   0.753261 0.116128 0.307227 -0.352136
H55   H     H_    0.703544 0.131498 0.230247 0.235652
H56   H     H_    0.752583 0.175694 0.353967 0.213141
C51   C     C_3   0.888845 0.093519 0.307500 -0.898499
H57   H     H_    0.940529 0.078674 0.384042 0.256088
H58   H     H_    0.934922 0.150552 0.279008 0.261670
H59   H     H_    0.892936 0.035417 0.259221 0.252742
O16   O     O_3   0.622843 0.947028 0.672136 -0.627062
C52   C     C_3   0.744987 0.974864 0.667330 0.068192
H60   H     H_    0.768739 0.033011 0.717100 0.175424
H61   H     H_    0.752699 0.997590 0.592284 0.111168
C53   C     C_3   0.839970 0.901953 0.703629 -0.369295
H62   H     H_    0.829361 0.878321 0.777555 0.235040
H63   H     H_    0.822997 0.845326 0.651175 0.209012
C54   C     C_3   0.973270 0.935813 0.711471 -0.924603
H64   H     H_    0.985440 0.960759 0.638520 0.256114
H65   H     H_    0.039839 0.881295 0.735130 0.260392
H66   H     H_    0.994863 0.989838 0.767093 0.261779
H67   H     H_    0.611974 0.615694 0.267201 0.148608
H68   H     H_    0.568602 0.369227 0.764626 0.140221

loop_
_geom_bond_atom_site_label_1
_geom_bond_atom_site_label_2
_ccdc_geom_bond_type
C35   H19   S    
C32   H11   S    
C34   H17   S    
C51   H57   S    
Cu1   N2    S    
C5    H5    S    
C10   N2    A    
C46   H45   S    
Cu2   O3    S    
O13   C43   S    
C15   O5    A    
C52   C53   S    
C1    O3    A    
C16   O6    A    
C53   C54   S    
C50   H55   S    
C38   H25   S    
C2    O4    A    
C54   H65   S    
C24   H4    S    
Cu1   O1    S    
C11   C13   A    
C8    N2    A    
C20   O9    S    
C50   H56   S    
C35   C36   S    
C21   H1    S    
O14   C46   S    
C19   O10   S    
C33   H14   S    
C43   C44   S    
C9    H7    S    
C27   C29   A    
C12   O12   S    
C45   H43   S    
C10   H8    S    
O11   C37   S    
C36   H21   S    
C47   H46   S    
C8    H68   S    
C1    O1    A    
C44   H39   S    
C7    N1    A    
C49   H54   S    
C37   C38   S    
C43   H38   S    
Cu2   N1    S    
C6    H6    S    
C5    C13   A    
C31   C32   S    
C48   H50   S    
C33   H15   S    
C27   H51   S    
C35   H18   S    
C34   C35   S    
Cu1   O5    S    
C13   C14   S    
C1    C25   S    
C18   O13   S    
Cu2   O6    S    
C36   H20   S    
C39   H29   S    
C31   H10   S    
C40   H31   S    
C22   H2    S    
C54   H66   S    
C29   O15   S    
C37   H23   S    
O9    C31   S    
O12   C40   S    
C39   H28   S    
C11   O11   S    
C2    O2    A    
C42   H34   S    
C5    C7    A    
C50   C51   S    
C53   H63   S    
C51   H59   S    
C33   H13   S    
C40   H30   S    
Cu1   O4    S    
C36   H22   S    
O10   C34   S    
C42   H35   S    
C4    C22   A    
Cu1   Cu2   S    
C41   C42   S    
C46   H44   S    
C43   H37   S    
C44   C45   S    
Cu2   O2    S    
C38   H26   S    
C2    C26   S    
C45   H42   S    
C9    C11   A    
C47   C48   S    
C10   C12   A    
C44   H40   S    
C41   H33   S    
C23   H3    S    
C32   H12   S    
C46   C47   S    
C22   C24   A    
C3    C21   A    
C37   H24   S    
Cu1   O8    S    
C52   H60   S    
C7    H67   S    
C31   H9    S    
C48   H48   S    
C40   C41   S    
C15   C17   S    
C51   H58   S    
C9    N1    A    
C24   C26   A    
C16   O8    A    
C39   H27   S    
C52   H61   S    
C6    C8    A    
O15   C49   S    
C49   C50   S    
C53   H62   S    
C25   C27   A    
C54   H64   S    
C26   C28   A    
C19   C20   S    
C21   C23   A    
O16   C52   S    
C12   C14   A    
C6    C14   A    
C30   O16   S    
C17   O14   S    
C42   H36   S    
C38   C39   S    
C3    C29   A    
C28   C30   A    
C17   C19   D    
C18   C20   D    
C15   O7    A    
C45   H41   S    
C47   H47   S    
Cu2   O7    S    
C34   H16   S    
C23   C25   A    
C41   H32   S    
C16   C18   S    
C32   C33   S    
C49   H53   S    
C28   H52   S    
C4    C30   A    
C3    C4    S    
C48   H49   S    
