data_mof_unit_9055.cif
_audit_creation_date              2012-12-10T16:54:55-0500
_audit_creation_method            fapswitch 2.2
_symmetry_space_group_name_H-M    P1
_symmetry_Int_Tables_number       1
_space_group_crystal_system       triclinic
_cell_length_a                    7.795275
_cell_length_b                    8.569658
_cell_length_c                    15.714962
_cell_angle_alpha                 91.230672
_cell_angle_beta                  85.464148
_cell_angle_gamma                 93.499151
_cell_volume                      1044.4188762

loop_
_atom_site_label
_atom_site_type_symbol
_atom_type_description
_atom_site_fract_x
_atom_site_fract_y
_atom_site_fract_z
_atom_type_partial_charge
C1    C     C_R   0.545581 0.794610 0.497785 0.960367
C2    C     C_3   0.340074 0.582992 0.055012 -0.401782
C3    C     C_3   0.499792 0.503690 0.082686 0.358216
C4    C     C_3   0.493208 0.333068 0.047781 -0.464864
C5    C     C_3   0.495168 0.332403 0.949507 -0.403643
C6    C     C_1   0.496374 0.502370 0.174311 -0.091556
C7    C     C_1   0.505444 0.501224 0.825699 -0.117454
C8    C     C_1   0.504620 0.500509 0.750357 -0.184080
C9    C     C_2   0.569625 0.958044 0.496414 -0.380968
C10   C     C_2   0.430370 0.041966 0.503192 -0.382730
C11   C     C_R   0.501452 0.500129 0.661557 0.901181
C12   C     C_R   0.454417 0.205395 0.502068 0.958905
C13   C     C_R   0.498555 0.499853 0.338446 0.903719
C14   C     C_3   0.345606 0.586110 0.956735 -0.407601
C15   C     C_3   0.670430 0.590139 0.945365 -0.445914
C16   C     C_3   0.669468 0.590003 0.044209 -0.034078
C17   C     C_1   0.495897 0.501146 0.249669 -0.181284
C18   C     C_3   0.504332 0.502368 0.917186 0.355751
H1    H     H_    0.334361 0.703850 0.081820 0.169433
H2    H     H_    0.224740 0.527680 0.935069 0.167188
H3    H     H_    0.219922 0.517014 0.080230 0.164986
H4    H     H_    0.605518 0.271672 0.067048 0.165472
H5    H     H_    0.701278 0.008776 0.489907 0.175037
H6    H     H_    0.298714 0.991247 0.509660 0.179033
H7    H     H_    0.986740 0.618670 0.563698 0.168840
H8    H     H_    0.352000 0.709525 0.935402 0.164480
H9    H     H_    0.785879 0.531850 0.916980 0.154659
H10   H     H_    0.680215 0.711550 0.920838 0.165460
H11   H     H_    0.780153 0.523664 0.061411 0.136534
H12   H     H_    0.376761 0.267332 0.929292 0.170925
H13   H     H_    0.608030 0.270172 0.921358 0.167042
H14   H     H_    0.374472 0.267275 0.074872 0.176911
N1    N     N_2   0.950340 0.457950 0.477370 -0.047218
N2    N     N_2   0.049660 0.542050 0.522630 -0.121592
O1    O     O_R   0.389240 0.738570 0.505550 -0.616003
O2    O     O_R   0.678400 0.711630 0.491050 -0.635576
O3    O     O_R   0.355360 0.513470 0.630110 -0.616806
O4    O     O_R   0.644510 0.486530 0.615610 -0.626253
O5    O     O_R   0.321600 0.288370 0.508950 -0.609459
O6    O     O_R   0.610760 0.261430 0.494450 -0.621587
O7    O     O_R   0.355490 0.513470 0.384390 -0.601166
O8    O     O_R   0.644640 0.486530 0.369890 -0.621473
Zn1   Zn    Zn3+2 0.306930 0.517990 0.509680 0.961379
Zn2   Zn    Zn3+2 0.693070 0.482010 0.490320 0.941824
N3    N     N_3   0.031561 0.353641 0.421554 -0.305010
H15   H     H_    0.975462 0.242548 0.435904 0.171200
H16   H     H_    0.999021 0.379363 0.360395 0.178196
N4    N     N_3   0.692460 0.749240 0.079653 -0.464536
H17   H     H_    0.816812 0.793889 0.059950 0.176479
H18   H     H_    0.606602 0.821872 0.054640 0.189416

loop_
_geom_bond_atom_site_label_1
_geom_bond_atom_site_label_2
_ccdc_geom_bond_type
O3    Zn1   S    
C11   O4    A    
C12   O6    A    
C15   C18   S    
N1    N3    S    
C9    C10   D    
C14   C18   S    
C15   H9    S    
C13   C17   S    
H7    N2    S    
C7    C18   S    
O1    Zn1   S    
C16   N4    S    
C12   O5    A    
N4    H18   S    
C2    C3    S    
C2    H1    S    
C7    C8    T    
N3    H15   S    
C14   H8    S    
O4    Zn2   S    
O7    Zn1   S    
C15   H10   S    
C4    H14   S    
O8    Zn2   S    
C2    H3    S    
C8    C11   S    
C10   C12   S    
C13   O7    A    
N4    H17   S    
N1    N2    D    
N3    H16   S    
C2    C14   S    
O2    Zn2   S    
N2    Zn1   S    
C3    C4    S    
C14   H2    S    
O6    Zn2   S    
C1    C9    S    
C1    O1    A    
C5    H12   S    
C3    C6    S    
C11   O3    A    
C6    C17   T    
C4    H4    S    
C13   O8    A    
O5    Zn1   S    
C5    C18   S    
C10   H6    S    
C16   H11   S    
N1    Zn2   S    
C9    H5    S    
C3    C16   S    
C15   C16   S    
C1    O2    A    
C4    C5    S    
C5    H13   S    
