data_mof_unit_17174.cif
_audit_creation_date              2012-12-10T16:48:43-0500
_audit_creation_method            fapswitch 2.2
_symmetry_space_group_name_H-M    P1
_symmetry_Int_Tables_number       1
_space_group_crystal_system       triclinic
_cell_length_a                    17.209681
_cell_length_b                    8.681843
_cell_length_c                    7.43845
_cell_angle_alpha                 103.074367
_cell_angle_beta                  89.595771
_cell_angle_gamma                 92.808031
_cell_volume                      1081.2723695

loop_
_atom_site_label
_atom_site_type_symbol
_atom_type_description
_atom_site_fract_x
_atom_site_fract_y
_atom_site_fract_z
_atom_type_partial_charge
C1    C     C_R   0.497605 0.199723 0.453571 0.878197
C2    C     C_R   0.502395 0.800277 0.546429 0.878203
C3    C     C_2   0.496349 0.031764 0.427492 -0.373922
C4    C     C_2   0.503649 0.968236 0.572508 -0.373915
C5    C     C_R   0.351181 0.496659 0.526459 0.776169
C6    C     C_R   0.648821 0.503338 0.473540 0.776147
C7    C     C_R   0.266898 0.486334 0.546275 -0.077751
C8    C     C_R   0.733108 0.513626 0.453733 -0.077761
C9    C     C_R   0.220193 0.369129 0.424817 0.123690
C10   C     C_R   0.779830 0.630646 0.575385 0.123725
C11   C     C_R   0.139105 0.376650 0.439962 -0.133699
C12   C     C_R   0.860915 0.622965 0.560377 -0.133713
C13   C     C_R   0.105522 0.495605 0.573021 0.133804
C14   C     C_R   0.894484 0.504077 0.427199 0.133850
C15   C     C_R   0.152478 0.601328 0.701225 -0.171055
C16   C     C_R   0.847519 0.398600 0.298764 -0.171134
C17   C     C_R   0.232823 0.597094 0.687588 -0.215717
C18   C     C_R   0.767175 0.402963 0.312302 -0.215767
C19   C     C_2   0.021317 0.513735 0.577807 -0.223937
C20   C     C_2   0.978683 0.485814 0.422455 -0.223853
Cu1   Cu    Cu3+1 0.508700 0.517250 0.683000 0.942639
Cu2   Cu    Cu3+1 0.491300 0.482750 0.317000 0.942639
H1    H     H_    0.731463 0.315674 0.216660 0.153152
H2    H     H_    0.268524 0.684541 0.783068 0.153090
H3    H     H_    0.005321 0.442667 0.288861 0.147597
H4    H     H_    0.994689 0.556878 0.711408 0.147579
H5    H     H_    0.126983 0.691625 0.806847 0.134427
H6    H     H_    0.873001 0.308382 0.193032 0.134425
H7    H     H_    0.898565 0.708377 0.652118 0.141331
H8    H     H_    0.101455 0.291077 0.348418 0.141369
H9    H     H_    0.489416 0.960063 0.287809 0.179718
H10   H     H_    0.510582 0.039937 0.712191 0.179710
H11   H     H_    0.439102 0.379609 0.958618 0.223441
H12   H     H_    0.560898 0.620391 0.041382 0.223439
N1    N     N_2   0.478180 0.456750 0.041980 -0.217094
N2    N     N_2   0.521820 0.543250 0.958020 -0.217093
O1    O     O_R   0.505650 0.286040 0.618880 -0.579390
O2    O     O_R   0.494350 0.713960 0.381120 -0.579382
O3    O     O_R   0.490960 0.256910 0.309800 -0.590459
O4    O     O_R   0.509040 0.743090 0.690200 -0.590470
O5    O     O_R   0.394600 0.516230 0.672450 -0.584975
O6    O     O_R   0.605400 0.483770 0.327550 -0.584997
O7    O     O_R   0.379910 0.487100 0.363380 -0.587118
O8    O     O_R   0.620090 0.512900 0.636620 -0.587107
C21   C     C_3   0.257675 0.239460 0.281944 -0.370198
C22   C     C_3   0.204482 0.094942 0.197961 -0.878926
H13   H     H_    0.175807 0.045580 0.308349 0.258908
H14   H     H_    0.160028 0.126553 0.106737 0.246310
H15   H     H_    0.239672 0.001919 0.112408 0.247167
H16   H     H_    0.281407 0.290923 0.167962 0.220811
H17   H     H_    0.306957 0.195058 0.348425 0.196880
C23   C     C_3   0.742383 0.760257 0.718400 -0.370134
C24   C     C_3   0.795555 0.904915 0.802000 -0.878902
H18   H     H_    0.840073 0.873533 0.893232 0.246261
H19   H     H_    0.824152 0.954115 0.691397 0.258959
H20   H     H_    0.760365 0.997983 0.887474 0.247157
H21   H     H_    0.692994 0.804534 0.652154 0.196975
H22   H     H_    0.718806 0.708782 0.832520 0.220702

loop_
_geom_bond_atom_site_label_1
_geom_bond_atom_site_label_2
_ccdc_geom_bond_type
C16   H6    S    
C2    C4    S    
C9    C21   S    
C2    O4    A    
C12   H7    S    
C4    H10   S    
Cu1   O8    S    
C11   C13   A    
C2    O2    A    
C15   H5    S    
Cu2   O7    S    
C1    O1    A    
C10   C23   S    
Cu1   Cu2   S    
C19   C20   D    
C24   H19   S    
C5    O7    A    
Cu1   N2    S    
C6    O8    A    
C21   C22   S    
C3    H9    S    
Cu2   N1    S    
C9    C11   A    
C22   H15   S    
Cu2   O6    S    
Cu1   O4    S    
C10   C12   A    
C21   H16   S    
Cu1   O5    S    
Cu2   O3    S    
C6    C8    S    
C8    C10   A    
H11   N1    S    
C12   C14   A    
H12   N2    S    
C13   C15   A    
C6    O6    A    
C23   H22   S    
C14   C16   A    
C17   H2    S    
C20   H3    S    
C1    O3    A    
C18   H1    S    
Cu2   O2    S    
C22   H14   S    
C14   C20   S    
Cu1   O1    S    
C23   C24   S    
C11   H8    S    
C7    C9    A    
C23   H21   S    
C24   H20   S    
C5    C7    S    
C19   H4    S    
C21   H17   S    
C22   H13   S    
C13   C19   S    
C5    O5    A    
C1    C3    S    
C15   C17   A    
C16   C18   A    
C8    C18   A    
C3    C4    D    
C24   H18   S    
C7    C17   A    
N1    N2    D    
