data_mof_unit_20654.cif
_audit_creation_date              2012-12-10T20:28:00-0500
_audit_creation_method            fapswitch 2.2
_symmetry_space_group_name_H-M    P1
_symmetry_Int_Tables_number       1
_space_group_crystal_system       triclinic
_cell_length_a                    12.855762
_cell_length_b                    10.636815
_cell_length_c                    9.874964
_cell_angle_alpha                 89.378888
_cell_angle_beta                  97.472696
_cell_angle_gamma                 90.206216
_cell_volume                      1338.79516741

loop_
_atom_site_label
_atom_site_type_symbol
_atom_type_description
_atom_site_fract_x
_atom_site_fract_y
_atom_site_fract_z
_atom_type_partial_charge
C1    C     C_R   0.506292 0.259950 0.501557 0.918112
C2    C     C_R   0.550065 0.938135 0.381282 0.202709
C3    C     C_R   0.533590 0.870991 0.501667 -0.133713
C4    C     C_R   0.298123 0.500746 0.473022 0.901622
C5    C     C_R   0.545256 0.934390 0.625479 0.060505
C6    C     C_3   0.489892 0.924562 0.749477 -0.550689
C7    C     C_3   0.494734 0.067781 0.754084 -0.168260
C8    C     C_R   0.407779 0.499875 0.055304 0.125250
C9    C     C_R   0.590986 0.511461 0.086947 -0.106875
C10   C     C_R   0.590948 0.511829 0.943229 -0.065045
C11   C     C_R   0.407928 0.499489 0.913037 0.210089
C12   C     C_R   0.028569 0.529299 0.558628 0.191446
C13   C     C_3   0.323324 0.402695 0.892679 -0.536248
C14   C     C_3   0.321055 0.404745 0.046351 -0.262967
C15   C     C_R   0.507249 0.740128 0.500101 0.887380
C16   C     C_R   0.701813 0.499944 0.527137 0.860236
C17   C     C_R   0.814006 0.502883 0.543948 -0.042516
C18   C     C_R   0.185764 0.499262 0.456796 -0.054504
C19   C     C_R   0.021234 0.434551 0.333066 -0.221186
C20   C     C_R   0.128937 0.446244 0.340977 -0.178774
C21   C     C_R   0.135553 0.543276 0.563883 -0.291226
C22   C     C_2   0.569096 0.116864 0.871875 0.424940
C23   C     C_R   0.971110 0.474611 0.442095 0.185476
C24   C     C_2   0.351373 0.281667 0.116735 0.522602
C25   C     C_3   0.665671 0.831071 0.247893 -0.749524
C26   C     C_R   0.864244 0.461177 0.436100 -0.284544
C27   C     C_R   0.870552 0.554119 0.661283 -0.204904
C28   C     C_R   0.978321 0.567721 0.668466 -0.219667
C29   C     C_R   0.547016 0.062512 0.627724 0.046360
C30   C     C_R   0.531867 0.129606 0.505142 -0.141247
C31   C     C_R   0.546887 0.068714 0.383868 -0.259350
H1    H     H_    0.819932 0.419708 0.346434 0.153354
H2    H     H_    0.977627 0.392305 0.243560 0.145158
H3    H     H_    0.021991 0.608936 0.758519 0.138580
H4    H     H_    0.167816 0.409960 0.259412 0.189123
H5    H     H_    0.179986 0.586326 0.652413 0.149145
H6    H     H_    0.549500 0.120901 0.289526 0.173623
H7    H     H_    0.408515 0.887893 0.725617 0.210629
H8    H     H_    0.642221 0.068298 0.905556 0.066068
H9    H     H_    0.425870 0.238186 0.106210 0.113568
H10   H     H_    0.531408 0.927590 0.169912 0.220406
H11   H     H_    0.721774 0.910972 0.249569 0.225583
H12   H     H_    0.538226 0.875642 0.835790 0.194487
H13   H     H_    0.666330 0.779229 0.151029 0.221280
H14   H     H_    0.691328 0.765853 0.334367 0.250695
H15   H     H_    0.416648 0.114323 0.738012 0.172347
H16   H     H_    0.664794 0.518851 0.152511 0.144332
H17   H     H_    0.664523 0.519286 0.901727 0.132137
H18   H     H_    0.250273 0.440429 0.834275 0.194719
H19   H     H_    0.350864 0.313086 0.852661 0.227116
H20   H     H_    0.247153 0.445559 0.073032 0.163725
H21   H     H_    0.831248 0.586880 0.744855 0.150664
N1    N     N_R   0.499290 0.499140 0.142710 -0.111070
N2    N     N_R   0.499290 0.499180 0.857070 -0.083472
N3    N     N_2   0.560973 0.877129 0.256165 -0.274706
O1    O     O_R   0.500010 0.316790 0.614690 -0.597490
O2    O     O_2   0.292202 0.229718 0.186798 -0.602880
O3    O     O_R   0.500000 0.316760 0.385350 -0.618888
O4    O     O_R   0.346360 0.499990 0.595720 -0.625476
O5    O     O_R   0.346350 0.499960 0.366370 -0.615328
O6    O     O_R   0.500000 0.683240 0.614650 -0.624665
O7    O     O_R   0.499990 0.683210 0.385310 -0.583407
O8    O     O_R   0.653650 0.500040 0.633630 -0.631241
O9    O     O_R   0.653640 0.500010 0.404280 -0.640103
O10   O     O_2   0.548911 0.213040 0.928944 -0.620524
Zn1   Zn    Zn3+2 0.500010 0.500020 0.653130 0.963060
Zn2   Zn    Zn3+2 0.499990 0.499980 0.346870 0.963965

loop_
_geom_bond_atom_site_label_1
_geom_bond_atom_site_label_2
_ccdc_geom_bond_type
C8    N1    A    
C25   H11   S    
C19   C23   A    
C6    H7    S    
C22   O10   D    
C26   H1    S    
C6    C7    S    
C7    C29   S    
C16   O8    A    
C7    C22   S    
C9    C10   A    
C5    C29   A    
C19   C20   A    
C30   C31   A    
C6    H12   S    
C4    C18   S    
C4    O5    A    
C2    C3    A    
C15   O6    A    
O8    Zn1   S    
C28   H3    S    
C21   H5    S    
C1    O3    A    
C13   H18   S    
C11   C13   S    
C12   C23   A    
C29   C30   A    
C11   N2    A    
O7    Zn2   S    
C12   C28   A    
C8    C11   A    
N2    Zn1   S    
C22   H8    S    
C12   C21   A    
C25   H13   S    
C1    C30   S    
C24   H9    S    
C15   O7    A    
C9    H16   S    
C18   C20   A    
C2    N3    S    
O4    Zn1   S    
C10   H17   S    
C5    C6    S    
N1    Zn2   S    
C16   C17   S    
O1    Zn1   S    
C9    N1    A    
O9    Zn2   S    
C17   C26   A    
C10   N2    A    
C13   H19   S    
C18   C21   A    
C7    H15   S    
C25   H14   S    
O3    Zn2   S    
C3    C15   S    
C27   H21   S    
C4    O4    A    
C14   H20   S    
C19   H2    S    
C23   C26   A    
C14   C24   S    
C27   C28   A    
C24   O2    D    
C8    C14   S    
C16   O9    A    
C13   C14   S    
C20   H4    S    
O6    Zn1   S    
C1    O1    A    
H10   N3    S    
C25   N3    S    
O5    Zn2   S    
C31   H6    S    
C2    C31   A    
C3    C5    A    
C17   C27   A    
