data_mof_unit_13148.cif
_audit_creation_date              2012-12-10T16:57:41-0500
_audit_creation_method            fapswitch 2.2
_symmetry_space_group_name_H-M    P1
_symmetry_Int_Tables_number       1
_space_group_crystal_system       triclinic
_cell_length_a                    7.748258
_cell_length_b                    8.630353
_cell_length_c                    19.190766
_cell_angle_alpha                 91.940213
_cell_angle_beta                  84.872547
_cell_angle_gamma                 93.349098
_cell_volume                      1275.4429163

loop_
_atom_site_label
_atom_site_type_symbol
_atom_type_description
_atom_site_fract_x
_atom_site_fract_y
_atom_site_fract_z
_atom_type_partial_charge
C1    C     C_R   0.545566 0.794154 0.499092 0.891230
C2    C     C_R   0.634120 0.423804 0.176761 0.238005
C3    C     C_R   0.480970 0.487786 0.854981 0.028489
C4    C     C_R   0.515426 0.510101 0.144863 0.029642
C5    C     C_R   0.599353 0.397939 0.814379 -0.283184
C6    C     C_R   0.395511 0.598025 0.185593 -0.283310
C7    C     C_R   0.610249 0.401343 0.741705 0.189430
C8    C     C_R   0.386023 0.595422 0.258253 0.190198
C9    C     C_R   0.498926 0.494696 0.709734 -0.086105
C10   C     C_R   0.500649 0.505152 0.290134 -0.087396
C11   C     C_R   0.508530 0.504697 0.069540 0.294854
C12   C     C_R   0.455428 0.205465 0.502572 0.886172
C13   C     C_R   0.486781 0.492645 0.930392 0.294904
C14   C     C_3   0.087054 0.571178 0.890849 -0.757052
C15   C     C_3   0.910251 0.432827 0.106976 -0.756433
C16   C     C_3   0.905483 0.361748 0.696149 -0.678370
C17   C     C_3   0.089131 0.630392 0.302966 -0.667840
C18   C     C_3   0.878789 0.025691 0.477132 -0.607956
C19   C     C_3   0.339303 0.982407 0.635554 -0.750013
C20   C     C_2   0.569712 0.955296 0.491189 -0.036844
C21   C     C_2   0.438593 0.045379 0.516180 -0.030269
C22   C     C_R   0.500330 0.498387 0.634299 0.868763
C23   C     C_R   0.499642 0.501647 0.365654 0.869126
C24   C     C_R   0.376969 0.580701 0.750254 -0.324477
C25   C     C_R   0.624302 0.421271 0.249401 -0.321114
C26   C     C_R   0.365369 0.577055 0.822853 0.240358
F1    F     F_    0.032571 0.362782 0.435000 -0.609072
F2    F     F_    0.968603 0.641985 0.563158 -0.598878
H1    H     H_    0.289413 0.650415 0.725342 0.173832
H2    H     H_    0.985325 0.485044 0.149356 0.228982
H3    H     H_    0.868213 0.526447 0.075090 0.247016
H4    H     H_    0.996295 0.358833 0.072466 0.245527
H5    H     H_    0.711652 0.189965 0.715441 0.217579
H6    H     H_    0.960674 0.351903 0.747156 0.206565
H7    H     H_    0.917754 0.484897 0.680498 0.287377
H8    H     H_    0.981271 0.291602 0.656021 0.231725
H9    H     H_    0.280705 0.804796 0.285218 0.215817
H10   H     H_    0.033938 0.643482 0.252199 0.201663
H11   H     H_    0.012058 0.696813 0.344095 0.236413
H12   H     H_    0.714196 0.353738 0.274157 0.176660
H13   H     H_    0.078740 0.505991 0.316652 0.287274
H14   H     H_    0.726652 0.949296 0.398215 0.205103
H15   H     H_    0.981389 0.074841 0.438834 0.259079
H16   H     H_    0.919633 0.911243 0.492040 0.251366
H17   H     H_    0.868380 0.103977 0.524298 0.248315
H18   H     H_    0.183313 0.045296 0.560464 0.241677
H19   H     H_    0.225322 0.932165 0.668099 0.243182
H20   H     H_    0.373941 0.100537 0.656763 0.216191
H21   H     H_    0.449340 0.906795 0.638886 0.233147
H22   H     H_    0.686806 0.327765 0.839065 0.166757
H23   H     H_    0.305749 0.665968 0.161005 0.166005
H24   H     H_    0.204340 0.760847 0.838701 0.225787
H25   H     H_    0.012977 0.521745 0.847604 0.230042
H26   H     H_    0.001395 0.645744 0.925238 0.245490
H27   H     H_    0.125461 0.475565 0.922507 0.246747
H28   H     H_    0.799442 0.243081 0.160902 0.226923
N1    N     N_R   0.455400 0.625354 0.967890 -0.137153
N2    N     N_2   0.268126 0.689888 0.298942 -0.307645
N3    N     N_2   0.715371 0.010133 0.445485 -0.297716
N4    N     N_2   0.296948 0.990638 0.563868 -0.270379
N5    N     N_R   0.539884 0.371946 0.032068 -0.137172
N6    N     N_R   0.465261 0.631129 0.036522 -0.181765
N7    N     N_R   0.529971 0.366169 0.963427 -0.181882
N8    N     N_2   0.950330 0.457950 0.481240 0.245851
N9    N     N_2   0.049670 0.542050 0.518760 0.251032
N10   N     N_2   0.237931 0.663373 0.862912 -0.294122
N11   N     N_2   0.762410 0.338903 0.136433 -0.294329
N12   N     N_2   0.725682 0.304438 0.701086 -0.310901
O1    O     O_R   0.389250 0.738570 0.504600 -0.584248
O2    O     O_R   0.610750 0.261430 0.495400 -0.585961
O3    O     O_R   0.678400 0.711620 0.492580 -0.602071
O4    O     O_R   0.321600 0.288380 0.507420 -0.610157
O5    O     O_R   0.355380 0.513500 0.607880 -0.623646
O6    O     O_R   0.644620 0.486500 0.392120 -0.625719
O7    O     O_R   0.644530 0.486550 0.595850 -0.560988
O8    O     O_R   0.355470 0.513450 0.404150 -0.554818
Zn1   Zn    Zn3+2 0.306930 0.517990 0.508030 1.082347
Zn2   Zn    Zn3+2 0.693070 0.482010 0.491970 1.076345

loop_
_geom_bond_atom_site_label_1
_geom_bond_atom_site_label_2
_ccdc_geom_bond_type
O2    Zn2   S    
O1    Zn1   S    
C23   O8    A    
C11   N6    A    
N1    N6    A    
C1    O3    A    
C24   C26   A    
C16   H7    S    
C19   H19   S    
C9    C22   S    
C13   N1    A    
C17   H11   S    
N5    N7    A    
C24   H1    S    
C16   H6    S    
C7    N12   S    
C16   N12   S    
C6    H23   S    
H9    N2    S    
C3    C13   S    
C17   N2    S    
C8    N2    S    
C14   H27   S    
C12   O4    A    
C22   O7    A    
N9    Zn1   S    
C26   N10   S    
C15   H4    S    
O8    Zn1   S    
C21   N4    S    
C4    C6    A    
C2    N11   S    
C5    C7    A    
C19   H20   S    
C6    C8    A    
C3    C5    A    
C12   C21   S    
C1    O1    A    
C4    C11   S    
C2    C4    A    
O4    Zn1   S    
C18   H16   S    
C19   H21   S    
C13   N7    A    
C15   N11   S    
C14   N10   S    
C20   N3    S    
C10   C25   A    
C14   H26   S    
C19   N4    S    
C5    H22   S    
C23   O6    A    
C18   H17   S    
H24   N10   S    
C15   H2    S    
C7    C9    A    
C12   O2    A    
C1    C20   S    
H18   N4    S    
N8    Zn2   S    
C3    C26   A    
C11   N5    A    
H14   N3    S    
C9    C24   A    
C15   H3    S    
C10   C23   S    
H28   N11   S    
N8    N9    D    
F2    N9    S    
C25   H12   S    
C18   H15   S    
C16   H8    S    
C2    C25   A    
C17   H10   S    
O7    Zn2   S    
C17   H13   S    
F1    N8    S    
C18   N3    S    
C14   H25   S    
C20   C21   D    
C8    C10   A    
O6    Zn2   S    
O5    Zn1   S    
C22   O5    A    
O3    Zn2   S    
H5    N12   S    
