data_mof_unit_27248.cif
_audit_creation_date              2012-12-10T19:42:56-0500
_audit_creation_method            fapswitch 2.2
_symmetry_space_group_name_H-M    P1
_symmetry_Int_Tables_number       1
_space_group_crystal_system       triclinic
_cell_length_a                    10.821385
_cell_length_b                    12.956499
_cell_length_c                    11.657703
_cell_angle_alpha                 100.268931
_cell_angle_beta                  94.131894
_cell_angle_gamma                 90.421499
_cell_volume                      1603.79292211

loop_
_atom_site_label
_atom_site_type_symbol
_atom_type_description
_atom_site_fract_x
_atom_site_fract_y
_atom_site_fract_z
_atom_type_partial_charge
C1    C     C_R   0.498849 0.299014 0.478268 0.872953
C2    C     C_R   0.501154 0.700986 0.521732 0.872954
C3    C     C_R   0.871682 0.495254 0.500290 -0.034392
C4    C     C_R   0.128314 0.504738 0.499707 -0.034413
C5    C     C_R   0.945662 0.462266 0.591526 0.084280
C6    C     C_R   0.054332 0.537714 0.408464 0.084329
C7    C     C_R   0.497816 0.814392 0.534571 -0.103871
C8    C     C_R   0.502202 0.185609 0.465429 -0.103817
C9    C     C_R   0.555137 0.016220 0.354820 0.518901
C10   C     C_R   0.444922 0.983785 0.645187 0.518872
C11   C     C_R   0.546550 0.125661 0.365542 -0.292876
C12   C     C_R   0.453494 0.874346 0.634467 -0.292954
C13   C     C_R   0.466502 0.138247 0.556433 -0.150341
C14   C     C_R   0.533516 0.861752 0.443563 -0.150389
C15   C     C_R   0.477272 0.030556 0.550615 0.008669
C16   C     C_R   0.522762 0.969446 0.449385 0.008629
C17   C     C_R   0.386450 0.398974 0.019313 -0.395457
C18   C     C_R   0.613555 0.601022 0.980686 -0.395486
C19   C     C_R   0.398022 0.406859 0.142678 0.726908
C20   C     C_R   0.601982 0.593138 0.857321 0.726893
C21   C     C_R   0.548258 0.544275 0.158111 -0.038482
C22   C     C_R   0.451742 0.455725 0.841889 -0.038497
C23   C     C_R   0.262187 0.502585 0.500087 0.839082
C24   C     C_R   0.737811 0.497412 0.499912 0.839135
C25   C     C_R   0.540985 0.536747 0.035042 0.000964
C26   C     C_R   0.459018 0.463251 0.964958 0.000979
C27   C     C_R   0.226603 0.716278 0.244349 0.493028
C28   C     C_R   0.773409 0.283606 0.755539 0.493091
C29   C     C_R   0.175133 0.677432 0.336185 0.444224
C30   C     C_R   0.824854 0.322500 0.663723 0.444102
C31   C     C_R   0.106438 0.581916 0.312742 -0.040874
C32   C     C_R   0.893555 0.418016 0.687217 -0.040876
C33   C     C_R   0.086968 0.527824 0.197238 -0.187107
C34   C     C_R   0.913033 0.472056 0.802744 -0.187130
C35   C     C_R   0.139078 0.565712 0.106465 -0.226497
C36   C     C_R   0.860933 0.434115 0.893490 -0.226616
C37   C     C_R   0.209947 0.658463 0.129659 -0.291815
C38   C     C_R   0.790075 0.341357 0.870247 -0.291600
C39   C     C_R   0.926479 0.531543 0.409540 -0.293906
C40   C     C_R   0.073517 0.468448 0.590457 -0.293949
Cu1   Cu    Cu3+1 0.509250 0.507730 0.615930 0.993306
Cu2   Cu    Cu3+1 0.490750 0.492270 0.384070 0.993311
H1    H     H_    0.252884 0.684429 0.058475 0.160052
H2    H     H_    0.747149 0.315327 0.941400 0.160086
H3    H     H_    0.388887 0.398962 0.787277 0.141163
H4    H     H_    0.611111 0.601039 0.212723 0.141167
H5    H     H_    0.320487 0.343914 0.966341 0.151023
H6    H     H_    0.679520 0.656081 0.033659 0.151037
H7    H     H_    0.033834 0.454814 0.177951 0.165146
H8    H     H_    0.966167 0.545066 0.822070 0.165168
H9    H     H_    0.126313 0.522064 0.018059 0.168199
H10   H     H_    0.873707 0.477723 0.981915 0.168211
H11   H     H_    0.869499 0.558596 0.340794 0.151133
H12   H     H_    0.130498 0.441392 0.659200 0.151140
H13   H     H_    0.567830 0.813592 0.367068 0.199644
H14   H     H_    0.432177 0.186403 0.632926 0.199612
H15   H     H_    0.421945 0.834961 0.701706 0.160420
H16   H     H_    0.578106 0.165061 0.298318 0.160390
N1    N     N_R   0.523180 0.519350 0.790130 -0.223949
N2    N     N_R   0.476820 0.480650 0.209870 -0.223949
O1    O     O_R   0.506570 0.354460 0.582000 -0.588577
O2    O     O_R   0.493430 0.645540 0.418000 -0.588559
O3    O     O_R   0.490940 0.341410 0.386200 -0.560593
O4    O     O_R   0.509060 0.658590 0.613800 -0.560596
O5    O     O_R   0.327460 0.506540 0.597900 -0.611182
O6    O     O_R   0.672540 0.493460 0.402100 -0.611191
O7    O     O_R   0.311830 0.493480 0.402100 -0.541791
O8    O     O_R   0.688170 0.506520 0.597900 -0.541777
O9    O     O_3   0.675968 0.653612 0.801689 -0.547358
C41   C     C_3   0.667559 0.761247 0.849483 -0.378445
H17   H     H_    0.731792 0.782610 0.929047 0.161976
H18   H     H_    0.571109 0.784205 0.868763 0.138406
H19   H     H_    0.696801 0.807654 0.784434 0.188015
O10   O     O_3   0.324037 0.346384 0.198309 -0.547375
C42   C     C_3   0.332462 0.238748 0.150523 -0.378420
H20   H     H_    0.428917 0.215798 0.131255 0.138422
H21   H     H_    0.268240 0.217377 0.070953 0.161986
H22   H     H_    0.303217 0.192343 0.215572 0.188028
O11   O     O_3   0.299772 0.806849 0.271127 -0.549411
C43   C     C_3   0.258291 0.880632 0.202051 -0.352986
H23   H     H_    0.297084 0.863931 0.115155 0.164146
H24   H     H_    0.292799 0.959573 0.246266 0.186246
H25   H     H_    0.155240 0.884193 0.192030 0.138556
O12   O     O_3   0.700245 0.193043 0.728770 -0.549346
C44   C     C_3   0.742328 0.119023 0.797297 -0.352948
H26   H     H_    0.704345 0.135546 0.884560 0.163838
H27   H     H_    0.845400 0.115366 0.806490 0.138515
H28   H     H_    0.707490 0.040175 0.753107 0.186223
O13   O     O_3   0.198374 0.729820 0.449954 -0.580755
C45   C     C_3   0.107081 0.806034 0.474055 -0.324092
H29   H     H_    0.012672 0.769448 0.465399 0.150406
H30   H     H_    0.111107 0.866007 0.416893 0.175837
H31   H     H_    0.124968 0.847148 0.565798 0.195965
O14   O     O_3   0.801560 0.270172 0.549935 -0.580758
C46   C     C_3   0.892927 0.194050 0.525688 -0.324224
H32   H     H_    0.889035 0.134008 0.582775 0.175669
H33   H     H_    0.987294 0.230712 0.534317 0.150465
H34   H     H_    0.875004 0.153001 0.433923 0.195995
O15   O     O_3   0.604085 0.953578 0.259256 -0.582864
C47   C     C_3   0.570092 0.986719 0.152470 -0.368239
H35   H     H_    0.634612 0.049635 0.138551 0.161913
H36   H     H_    0.472376 0.012681 0.146608 0.141316
H37   H     H_    0.578529 0.919365 0.080156 0.184068
O16   O     O_3   0.395999 0.046416 0.740768 -0.582863
C48   C     C_3   0.430279 0.013393 0.847562 -0.367817
H38   H     H_    0.528048 0.987541 0.853297 0.141408
H39   H     H_    0.365922 0.950430 0.861650 0.161716
H40   H     H_    0.421864 0.080778 0.919843 0.184098

loop_
_geom_bond_atom_site_label_1
_geom_bond_atom_site_label_2
_ccdc_geom_bond_type
C8    C13   A    
C28   O12   S    
C1    C8    S    
Cu1   Cu2   S    
C2    C7    S    
Cu1   O1    S    
C29   O13   S    
C46   H34   S    
C44   H26   S    
C48   H39   S    
C17   C26   A    
C35   C37   A    
C9    C16   A    
C27   O11   S    
C10   C15   A    
C27   C29   A    
C33   H7    S    
C15   C16   A    
C23   O7    A    
C33   C35   A    
C7    C14   A    
C4    C40   A    
C31   C33   A    
C41   H17   S    
C11   H16   S    
Cu2   O2    S    
C18   C20   A    
C36   H10   S    
C24   O6    A    
C13   H14   S    
C6    C31   S    
C3    C39   A    
C9    O15   S    
C3    C24   S    
O9    C41   S    
C18   C25   A    
C43   H25   S    
C1    O3    A    
O16   C48   S    
C2    O4    A    
Cu1   O8    S    
C44   H27   S    
C7    C12   A    
C48   H40   S    
C34   H8    S    
O10   C42   S    
O12   C44   S    
Cu1   N1    S    
C21   N2    A    
C4    C6    A    
Cu2   N2    S    
C22   N1    A    
C4    C23   S    
Cu1   O5    S    
C25   C26   A    
C47   H37   S    
C1    O1    A    
C32   C34   A    
C37   H1    S    
C42   H20   S    
C38   H2    S    
C42   H21   S    
C45   H30   S    
O15   C47   S    
C28   C38   A    
C41   H19   S    
C47   H36   S    
C20   N1    A    
C9    C11   A    
C10   C12   A    
C12   H15   S    
C43   H24   S    
C40   H12   S    
C13   C15   A    
C35   H9    S    
Cu2   O7    S    
C14   C16   A    
C20   O9    S    
C36   C38   A    
C45   H31   S    
C21   H4    S    
C44   H28   S    
C21   C25   A    
C19   O10   S    
C17   H5    S    
C43   H23   S    
C3    C5    A    
C18   H6    S    
C46   H33   S    
C19   N2    A    
C48   H38   S    
C5    C32   S    
C10   O16   S    
C29   C31   A    
C30   C32   A    
C23   O5    A    
C45   H29   S    
C39   H11   S    
C27   C37   A    
C8    C11   A    
C28   C30   A    
C47   H35   S    
C17   C19   A    
C14   H13   S    
C34   C36   A    
O14   C46   S    
C42   H22   S    
C24   O8    A    
O11   C43   S    
C22   H3    S    
C30   O14   S    
C22   C26   A    
C5    C40   A    
C46   H32   S    
Cu2   O6    S    
C6    C39   A    
C41   H18   S    
Cu1   O4    S    
O13   C45   S    
Cu2   O3    S    
C2    O2    A    
