data_mof_unit_60234.cif
_audit_creation_date              2012-12-10T19:52:18-0500
_audit_creation_method            fapswitch 2.2
_symmetry_space_group_name_H-M    P1
_symmetry_Int_Tables_number       1
_space_group_crystal_system       triclinic
_cell_length_a                    18.277001
_cell_length_b                    18.277304
_cell_length_c                    31.8666
_cell_angle_alpha                 90.00004
_cell_angle_beta                  90.0
_cell_angle_gamma                 90.000777
_cell_volume                      10645.1748665

loop_
_atom_site_label
_atom_site_type_symbol
_atom_type_description
_atom_site_fract_x
_atom_site_fract_y
_atom_site_fract_z
_atom_type_partial_charge
C1    C     C_R   0.641225 0.500021 0.000000 0.936228
C2    C     C_1   0.500014 0.499597 0.163380 0.045241
C3    C     C_3   0.231304 0.133908 0.731867 -0.802617
C4    C     C_3   0.833683 0.094305 0.248818 0.109497
C5    C     C_3   0.766986 0.130906 0.268134 -0.802587
C6    C     C_3   0.833683 0.094306 0.751182 0.109493
C7    C     C_3   0.766981 0.130899 0.731867 -0.802588
C8    C     C_1   0.000003 0.999598 0.336620 0.045241
C9    C     C_1   0.000002 0.999598 0.663380 0.045241
C10   C     C_1   0.500002 0.499910 0.663384 -0.027385
C11   C     C_1   0.500002 0.499910 0.336616 -0.027385
C12   C     C_1   0.999999 0.999911 0.163384 -0.027384
C13   C     C_1   0.999999 0.999911 0.836616 -0.027385
C14   C     C_1   0.717645 0.500058 0.000000 -0.183026
C15   C     C_1   0.282355 0.500055 0.000000 -0.182905
C16   C     C_1   0.217645 0.000057 0.500000 -0.182993
C17   C     C_R   0.358775 0.500020 0.000000 0.936365
C18   C     C_1   0.782355 0.000055 0.500000 -0.182938
C19   C     C_1   0.782386 0.500050 0.000000 -0.182950
C20   C     C_1   0.217614 0.500048 0.000000 -0.182866
C21   C     C_1   0.282386 0.000050 0.500000 -0.182925
C22   C     C_1   0.717614 0.000048 0.500000 -0.182891
C23   C     C_R   0.500000 0.358653 0.500000 0.935966
C24   C     C_R   1.000000 0.858653 0.000000 0.935966
C25   C     C_R   0.500000 0.499890 0.581399 0.906696
C26   C     C_R   0.500000 0.499890 0.418600 0.906694
C27   C     C_R   1.000000 0.999890 0.081399 0.906696
C28   C     C_R   0.141225 0.000021 0.500000 0.936267
C29   C     C_R   1.000000 0.999890 0.918600 0.906694
C30   C     C_R   0.500000 0.641067 0.500000 0.931590
C31   C     C_R   0.000000 0.141067 1.000000 0.931590
C32   C     C_R   1.000000 0.641160 0.000000 0.933060
C33   C     C_R   0.500000 0.141160 0.500000 0.933061
C34   C     C_R   0.858806 0.500019 0.000000 0.931922
C35   C     C_R   0.141194 0.500018 0.000000 0.931930
C36   C     C_R   0.358806 0.000019 0.500000 0.931924
C37   C     C_R   0.641194 0.000018 0.500000 0.931928
C38   C     C_R   0.500001 0.499991 0.918601 0.903565
C39   C     C_R   0.858775 0.000020 0.500000 0.936327
C40   C     C_R   0.500001 0.499992 0.081399 0.903565
C41   C     C_R   1.000000 0.999992 0.418601 0.903564
C42   C     C_R   1.000000 0.999992 0.581399 0.903565
C43   C     C_R   0.000000 0.358787 1.000000 0.931250
C44   C     C_R   0.500000 0.858787 0.500000 0.931250
C45   C     C_1   0.499999 0.282267 0.500000 -0.188451
C46   C     C_1   0.999999 0.782267 0.000000 -0.188451
C47   C     C_1   0.999999 0.717546 0.000000 -0.184288
C48   C     C_1   0.499999 0.217546 0.500000 -0.184288
C49   C     C_1   0.500001 0.717540 0.500000 -0.192204
C50   C     C_3   0.499095 0.570109 0.736041 -0.383094
C51   C     C_1   0.000001 0.217540 1.000000 -0.192204
C52   C     C_1   0.000001 0.282313 1.000000 -0.188009
C53   C     C_1   0.500001 0.782313 0.500000 -0.188009
C54   C     C_3   0.560920 0.465134 0.735822 -0.226965
C55   C     C_3   0.560946 0.465179 0.264178 -0.226970
C56   C     C_3   0.440016 0.463562 0.735825 -0.227007
C57   C     C_3   0.440042 0.463519 0.264175 -0.227002
C58   C     C_3   0.060685 0.964738 0.235823 -0.226954
C59   C     C_3   0.060685 0.964740 0.764176 -0.226961
C60   C     C_3   0.939772 0.963957 0.235824 -0.227018
C61   C     C_3   0.499043 0.570109 0.263959 -0.383094
C62   C     C_3   0.939773 0.963955 0.764176 -0.227012
C63   C     C_3   0.558571 0.534260 0.763502 0.498970
C64   C     C_3   0.558545 0.534304 0.236498 0.498972
C65   C     C_3   0.440574 0.532726 0.763505 0.498993
C66   C     C_3   0.440550 0.532683 0.236495 0.498992
C67   C     C_3   0.058785 0.033878 0.263503 0.498972
C68   C     C_3   0.058784 0.033880 0.736496 0.498974
C69   C     C_3   0.940781 0.033115 0.263504 0.498990
C70   C     C_3   0.940780 0.033114 0.736496 0.498989
C71   C     C_1   0.500007 0.499900 0.874122 -0.160070
C72   C     C_3   0.999546 0.070115 0.236041 -0.383093
C73   C     C_1   0.500007 0.499900 0.125878 -0.160071
C74   C     C_1   0.000001 0.999900 0.374122 -0.160071
C75   C     C_1   0.000000 0.999901 0.625878 -0.160071
C76   C     C_1   0.500000 0.499910 0.625881 -0.191615
C77   C     C_1   0.500000 0.499911 0.374119 -0.191615
C78   C     C_1   1.000000 0.999912 0.125881 -0.191615
C79   C     C_1   1.000000 0.999912 0.874119 -0.191615
C80   C     C_3   0.500920 0.429676 0.763768 -0.271634
C81   C     C_3   0.500972 0.429677 0.236232 -0.271634
C82   C     C_3   0.000453 0.929673 0.263768 -0.271634
C83   C     C_3   0.999544 0.070116 0.763959 -0.383093
C84   C     C_3   0.000454 0.929673 0.736232 -0.271634
C85   C     C_3   0.500021 0.499095 0.791160 0.072807
C86   C     C_3   0.500022 0.499096 0.208840 0.072807
C87   C     C_3   0.000005 0.999096 0.291160 0.072808
C88   C     C_3   0.000005 0.999097 0.708840 0.072808
C89   C     C_3   0.500005 0.499909 0.708804 0.075995
C90   C     C_3   0.500005 0.499909 0.291196 0.075996
C91   C     C_3   0.999999 0.999910 0.208804 0.075996
C92   C     C_3   0.999999 0.999911 0.791196 0.075996
C93   C     C_3   0.664449 0.597537 0.748813 0.109544
C94   C     C_1   0.500014 0.499597 0.836620 0.045242
C95   C     C_3   0.730439 0.635405 0.768127 -0.802618
C96   C     C_3   0.664379 0.597656 0.251187 0.109545
C97   C     C_3   0.730338 0.635578 0.231873 -0.802621
C98   C     C_3   0.333077 0.593214 0.748821 0.109495
C99   C     C_3   0.266146 0.629382 0.768139 -0.802586
C100  C     C_3   0.333011 0.593095 0.251179 0.109494
C101  C     C_3   0.266049 0.629208 0.231861 -0.802586
C102  C     C_3   0.165076 0.096461 0.248817 0.109550
C103  C     C_3   0.231309 0.133900 0.268132 -0.802618
C104  C     C_3   0.165076 0.096461 0.751183 0.109548
H1    H     H_    0.610665 0.437599 0.723576 0.144280
H2    H     H_    0.498259 0.627171 0.275875 0.142982
H3    H     H_    0.999177 0.127182 0.224126 0.142982
H4    H     H_    0.999175 0.127182 0.775874 0.142982
H5    H     H_    0.501660 0.372759 0.775915 0.168834
H6    H     H_    0.501753 0.372761 0.224084 0.168834
H7    H     H_    0.000820 0.872752 0.275915 0.168835
H8    H     H_    0.000822 0.872753 0.724084 0.168835
H9    H     H_    0.634316 0.638398 0.729515 0.140756
H10   H     H_    0.684650 0.552601 0.728270 0.135153
H11   H     H_    0.762312 0.595863 0.787267 0.258219
H12   H     H_    0.610711 0.437681 0.276424 0.144280
H13   H     H_    0.766167 0.657412 0.742923 0.201905
H14   H     H_    0.712235 0.681298 0.788451 0.259493
H15   H     H_    0.684616 0.552731 0.271727 0.135153
H16   H     H_    0.634217 0.638490 0.270488 0.140755
H17   H     H_    0.712097 0.681459 0.211552 0.259492
H18   H     H_    0.766052 0.657608 0.257077 0.201906
H19   H     H_    0.762240 0.596062 0.212730 0.258219
H20   H     H_    0.314030 0.547752 0.728296 0.135165
H21   H     H_    0.362133 0.634822 0.729505 0.140769
H22   H     H_    0.283173 0.675751 0.788443 0.259530
H23   H     H_    0.391002 0.434743 0.723580 0.144231
H24   H     H_    0.229842 0.650432 0.742936 0.201864
H25   H     H_    0.235318 0.589046 0.787299 0.258199
H26   H     H_    0.362037 0.634729 0.270491 0.140771
H27   H     H_    0.314001 0.547622 0.271708 0.135164
H28   H     H_    0.235251 0.588845 0.212704 0.258199
H29   H     H_    0.229732 0.650233 0.257064 0.201864
H30   H     H_    0.283037 0.675587 0.211554 0.259530
H31   H     H_    0.135213 0.137516 0.229517 0.140761
H32   H     H_    0.184986 0.051393 0.228276 0.135163
H33   H     H_    0.262921 0.094151 0.287276 0.258216
H34   H     H_    0.391050 0.434663 0.276420 0.144232
H35   H     H_    0.267184 0.155670 0.242930 0.201911
H36   H     H_    0.213402 0.179912 0.288455 0.259490
H37   H     H_    0.184992 0.051389 0.771720 0.135164
H38   H     H_    0.135213 0.137510 0.770488 0.140759
H39   H     H_    0.213391 0.179923 0.711549 0.259490
H40   H     H_    0.267181 0.155676 0.757070 0.201910
H41   H     H_    0.262916 0.094166 0.712720 0.258216
H42   H     H_    0.814343 0.048970 0.228290 0.135152
H43   H     H_    0.863012 0.135725 0.229504 0.140763
H44   H     H_    0.784312 0.177160 0.288442 0.259533
H45   H     H_    0.110250 0.936880 0.223578 0.144279
H46   H     H_    0.730824 0.152195 0.242931 0.201856
H47   H     H_    0.735893 0.090770 0.287291 0.258201
H48   H     H_    0.863012 0.135731 0.770492 0.140766
H49   H     H_    0.814348 0.048974 0.771714 0.135153
H50   H     H_    0.735890 0.090758 0.712713 0.258202
H51   H     H_    0.730821 0.152190 0.757070 0.201859
H52   H     H_    0.784302 0.177151 0.711556 0.259532
H53   H     H_    0.110251 0.936882 0.776422 0.144276
H54   H     H_    0.890573 0.935458 0.223578 0.144233
H55   H     H_    0.890574 0.935456 0.776422 0.144236
H56   H     H_    0.498353 0.627172 0.724125 0.142982
O1    O     O_R   0.607370 0.439420 0.000000 -0.620937
O2    O     O_R   0.392710 0.560580 0.000000 -0.616904
O3    O     O_R   0.107290 0.060580 0.500000 -0.616894
O4    O     O_R   0.892710 0.060580 0.500000 -0.616894
O5    O     O_R   0.500000 0.439420 0.938390 -0.622323
O6    O     O_R   0.500000 0.439420 0.061610 -0.622323
O7    O     O_R   1.000000 0.939420 0.438390 -0.622323
O8    O     O_R   1.000000 0.939420 0.561610 -0.622323
O9    O     O_R   0.500000 0.560580 0.938390 -0.609063
O10   O     O_R   0.500000 0.560580 0.061610 -0.609063
O11   O     O_R   1.000000 0.060580 0.438390 -0.609062
O12   O     O_R   0.392630 0.439420 0.000000 -0.620870
O13   O     O_R   1.000000 0.060580 0.561610 -0.609063
O14   O     O_R   0.560550 0.392540 0.500000 -0.618675
O15   O     O_R   0.439450 0.392540 0.500000 -0.618717
O16   O     O_R   0.060550 0.892540 0.000000 -0.618684
O17   O     O_R   0.939450 0.892540 0.000000 -0.618707
O18   O     O_R   0.560580 0.499860 0.561610 -0.618383
O19   O     O_R   0.560580 0.499860 0.438390 -0.618381
O20   O     O_R   0.439420 0.499860 0.561610 -0.618442
O21   O     O_R   0.439420 0.499860 0.438390 -0.618443
O22   O     O_R   0.060580 0.999860 0.061610 -0.618393
O23   O     O_R   0.107370 0.939420 0.500000 -0.620914
O24   O     O_R   0.060580 0.999860 0.938390 -0.618393
O25   O     O_R   0.939420 0.999860 0.061610 -0.618433
O26   O     O_R   0.939420 0.999860 0.938390 -0.618432
O27   O     O_R   0.560630 0.607160 0.500000 -0.620050
O28   O     O_R   0.439370 0.607160 0.500000 -0.620043
O29   O     O_R   0.060630 0.107160 0.000000 -0.620040
O30   O     O_R   0.939370 0.107160 0.000000 -0.620054
O31   O     O_R   0.000000 0.607310 0.965210 -0.620119
O32   O     O_R   1.000000 0.607310 0.034790 -0.620119
O33   O     O_R   0.500000 0.107310 0.465210 -0.620119
O34   O     O_R   0.892630 0.939420 0.500000 -0.620893
O35   O     O_R   0.500000 0.107310 0.534790 -0.620120
O36   O     O_R   0.892680 0.500000 0.965220 -0.619770
O37   O     O_R   0.892680 0.500000 0.034780 -0.619772
O38   O     O_R   0.107320 0.500000 0.965220 -0.619750
O39   O     O_R   0.107320 0.500000 0.034780 -0.619749
O40   O     O_R   0.392680 1.000000 0.465220 -0.619763
O41   O     O_R   0.392680 0.000000 0.534780 -0.619764
O42   O     O_R   0.607320 1.000000 0.465220 -0.619757
O43   O     O_R   0.607320 0.000000 0.534780 -0.619757
O44   O     O_3   0.619694 0.569904 0.781182 -0.601809
O45   O     O_R   1.000000 0.392690 0.965220 -0.621257
O46   O     O_3   0.619641 0.569994 0.218818 -0.601808
O47   O     O_3   0.378551 0.566773 0.781188 -0.601860
O48   O     O_3   0.378502 0.566683 0.218812 -0.601861
O49   O     O_3   0.120138 0.069123 0.281184 -0.601823
O50   O     O_3   0.120135 0.069127 0.718816 -0.601823
O51   O     O_3   0.878980 0.067566 0.281185 -0.601848
O52   O     O_3   0.878978 0.067563 0.718815 -0.601847
O53   O     O_R   0.000000 0.392690 0.034780 -0.621257
O54   O     O_R   0.500000 0.892690 0.465220 -0.621257
O55   O     O_R   0.500000 0.892690 0.534780 -0.621257
O56   O     O_R   0.607290 0.560580 0.000000 -0.616884
Zn1   Zn    Zn3+2 0.500000 0.419100 0.000000 0.969719
Zn2   Zn    Zn3+2 0.000000 0.500000 0.046450 0.970538
Zn3   Zn    Zn3+2 0.500000 0.000000 0.453550 0.970538
Zn4   Zn    Zn3+2 0.500000 1.000000 0.546450 0.970538
Zn5   Zn    Zn3+2 1.000000 0.919100 0.500000 0.969719
Zn6   Zn    Zn3+2 0.500000 0.580900 0.000000 0.989720
Zn7   Zn    Zn3+2 0.000000 0.080900 0.500000 0.989720
Zn8   Zn    Zn3+2 0.580910 0.499830 0.500000 0.967596
Zn9   Zn    Zn3+2 0.419090 0.499830 0.500000 0.967484
Zn10  Zn    Zn3+2 0.080910 0.999830 0.000000 0.967585
Zn11  Zn    Zn3+2 0.919090 0.999830 0.000000 0.967496
Zn12  Zn    Zn3+2 1.000000 0.500000 0.953550 0.970538

loop_
_geom_bond_atom_site_label_1
_geom_bond_atom_site_label_2
_ccdc_geom_bond_type
C3    C104  S    
C16   C28   S    
C38   O5    A    
O36   Zn12  S    
C16   C21   T    
C23   C45   S    
C29   O24   A    
O1    Zn1   S    
C61   C64   S    
C44   O55   A    
C70   O52   S    
C96   H15   S    
O29   Zn10  S    
C11   C90   S    
C104  O50   S    
O8    Zn5   S    
C27   C78   S    
C70   C88   S    
C40   O10   A    
C100  O48   S    
C25   O20   A    
C35   O39   A    
C21   C36   S    
C26   O19   A    
C29   O26   A    
C23   O15   A    
C98   H20   S    
C83   C92   S    
C41   O11   A    
C31   O30   A    
C32   O32   A    
C42   C75   S    
C84   H8    S    
C4    O51   S    
O43   Zn4   S    
C44   O54   A    
C55   H12   S    
C28   O23   A    
C60   H54   S    
C55   C90   S    
O24   Zn10  S    
O54   Zn3   S    
C58   C82   S    
C9    C88   S    
C100  H26   S    
C43   C52   S    
C60   C91   S    
C6    O52   S    
O27   Zn8   S    
C56   C65   S    
O25   Zn11  S    
O20   Zn9   S    
C83   H4    S    
C62   C70   S    
O45   Zn12  S    
O33   Zn3   S    
C67   C72   S    
C27   O25   A    
C56   H23   S    
C93   O44   S    
C102  H31   S    
O7    Zn5   S    
C97   H17   S    
C11   C77   T    
C41   C74   S    
O10   Zn6   S    
C20   C35   S    
C60   C82   S    
C44   C53   S    
C98   H21   S    
O26   Zn11  S    
O2    Zn6   S    
C10   C89   S    
O38   Zn12  S    
C62   C92   S    
C80   H5    S    
C37   O42   A    
C24   O16   A    
C67   O49   S    
C69   O51   S    
O32   Zn2   S    
C55   C81   S    
C58   C91   S    
C57   C66   S    
C40   O6    A    
C81   C86   S    
C69   C87   S    
C58   H45   S    
O5    Zn1   S    
C93   H10   S    
C6    H48   S    
C68   O50   S    
C93   C95   S    
C5    H44   S    
C55   C64   S    
C50   C63   S    
C9    C75   T    
C97   H18   S    
O18   Zn8   S    
C38   C71   S    
O39   Zn2   S    
C10   C76   T    
C61   C66   S    
C64   C86   S    
O35   Zn4   S    
C42   O8    A    
C99   H22   S    
C54   C80   S    
C95   H14   S    
C15   C20   T    
C39   O34   A    
C100  H27   S    
C26   C77   S    
C57   C90   S    
C99   H25   S    
C51   C52   T    
C6    H49   S    
O31   Zn12  S    
C36   O40   A    
O14   Zn8   S    
C59   C84   S    
C54   C89   S    
O28   Zn9   S    
C63   O44   S    
C95   H11   S    
C23   O14   A    
C72   C91   S    
C34   O37   A    
C25   O18   A    
O22   Zn10  S    
O21   Zn9   S    
C101  H30   S    
C22   C37   S    
C64   O46   S    
C19   C34   S    
C95   H13   S    
C5    H46   S    
O30   Zn11  S    
C32   O31   A    
C12   C78   T    
C30   O28   A    
O42   Zn3   S    
C69   C72   S    
C18   C39   S    
C26   O21   A    
C80   C85   S    
C61   H2    S    
C103  H35   S    
C59   C68   S    
O17   Zn11  S    
C66   O48   S    
C85   C94   S    
C50   C89   S    
C96   O46   S    
O9    Zn6   S    
C29   C79   S    
C72   H3    S    
O23   Zn5   S    
C4    H42   S    
C96   C97   S    
C1    O56   A    
C8    C74   T    
C37   O43   A    
C12   C91   S    
C3    H39   S    
C93   H9    S    
C7    H52   S    
C70   C83   S    
O6    Zn1   S    
C6    C7    S    
C2    C73   T    
O34   Zn5   S    
C56   C89   S    
C30   C49   S    
C3    H41   S    
O3    Zn7   S    
C104  H37   S    
C13   C92   S    
C68   C88   S    
C32   C47   S    
C104  H38   S    
C98   O47   S    
C36   O41   A    
O37   Zn2   S    
O13   Zn7   S    
C13   C79   T    
C61   C90   S    
C38   O9    A    
C59   H53   S    
C45   C48   T    
C34   O36   A    
C15   C17   S    
C62   C84   S    
C46   C47   T    
C71   C94   T    
C33   O33   A    
C54   H1    S    
C18   C22   T    
C68   C83   S    
C14   C19   T    
C96   H16   S    
C3    H40   S    
C84   C88   S    
O41   Zn4   S    
C31   C51   S    
C4    C5    S    
C42   O13   A    
C56   C80   S    
C66   C86   S    
O11   Zn7   S    
O53   Zn2   S    
C102  O49   S    
C65   C85   S    
C99   H24   S    
C65   O47   S    
C101  H29   S    
O16   Zn10  S    
C31   O29   A    
C67   C87   S    
C5    H47   S    
O19   Zn8   S    
C25   C76   S    
C50   H56   S    
C82   H7    S    
C8    C87   S    
C103  H33   S    
C39   O4    A    
C27   O22   A    
C24   C46   S    
C97   H19   S    
O55   Zn4   S    
C30   O27   A    
C4    H43   S    
O4    Zn7   S    
O15   Zn9   S    
C7    H50   S    
C60   C69   S    
C49   C53   T    
C41   O7    A    
C43   O45   A    
C57   H34   S    
C2    C86   S    
C57   C81   S    
C59   C92   S    
C102  C103  S    
C50   C65   S    
C102  H32   S    
O56   Zn6   S    
C17   O2    A    
C35   O38   A    
C1    O1    A    
C101  H28   S    
C58   C67   S    
C7    H51   S    
C81   H6    S    
C33   O35   A    
C98   C99   S    
C54   C63   S    
C17   O12   A    
C24   O17   A    
C33   C48   S    
C62   H55   S    
C100  C101  S    
C1    C14   S    
O40   Zn3   S    
C40   C73   S    
C103  H36   S    
C63   C85   S    
O12   Zn1   S    
C82   C87   S    
C28   O3    A    
C43   O53   A    
