data_mof_unit_38228.cif
_audit_creation_date              2012-10-26T18:32:21-0400
_audit_creation_method            fapswitch 2.2
_symmetry_space_group_name_H-M    P1
_symmetry_Int_Tables_number       1
_space_group_crystal_system       triclinic
_cell_length_a                    12.319629
_cell_length_b                    13.198956
_cell_length_c                    15.858652
_cell_angle_alpha                 77.807169
_cell_angle_beta                  101.05935
_cell_angle_gamma                 116.562408
_cell_volume                      2240.46753734

loop_
_atom_site_label
_atom_site_type_symbol
_atom_type_description
_atom_site_fract_x
_atom_site_fract_y
_atom_site_fract_z
_atom_type_partial_charge
C1    C     C_R   0.854436 0.286454 0.508908 0.530235
C2    C     C_R   0.227171 0.835024 0.476520 -0.005554
C3    C     C_R   0.810531 0.091100 0.583366 -0.149777
C4    C     C_R   0.999732 0.500083 0.659557 0.547039
C5    C     C_R   0.727212 0.989718 0.623951 -0.134682
C6    C     C_R   0.601131 0.957366 0.604486 0.007004
C7    C     C_R   0.558685 0.018820 0.529733 0.037098
C8    C     C_R   0.644647 0.125261 0.491115 0.010340
C9    C     C_R   0.434330 0.982709 0.493931 0.017929
C10   C     C_R   0.394024 0.061422 0.438432 0.045989
C11   C     C_R   0.479399 0.165919 0.403057 -0.137959
C12   C     C_3   0.003350 0.389382 0.068492 -0.213120
C13   C     C_R   0.602692 0.192238 0.423046 -0.122919
C14   C     C_R   0.351479 0.868066 0.503553 -0.140743
C15   C     C_R   0.185184 0.917444 0.434188 -0.140491
C16   C     C_R   0.145031 0.713311 0.487686 0.546227
C17   C     C_R   0.770146 0.164234 0.523065 -0.009957
C18   C     C_R   0.343875 0.325389 0.635394 -0.151429
C19   C     C_R   0.762540 0.648209 0.385551 0.065813
C20   C     C_R   0.667576 0.683443 0.360699 -0.028645
C21   C     C_R   0.562605 0.625531 0.404052 -0.137449
C22   C     C_R   0.552158 0.535080 0.472472 -0.017458
C23   C     C_3   0.001645 0.501216 0.082776 0.073883
C24   C     C_R   0.652574 0.504704 0.495728 0.173671
C25   C     C_R   0.446850 0.474747 0.519409 -0.012207
C26   C     C_R   0.444833 0.385814 0.588181 0.037335
C27   C     C_R   0.543978 0.358209 0.610125 -0.172827
C28   C     C_R   0.000544 0.500313 0.340394 0.546855
C29   C     C_R   0.645850 0.417005 0.565508 -0.090386
C30   C     C_R   0.342708 0.498454 0.501680 0.039434
C31   C     C_R   0.244974 0.353241 0.614870 0.041867
C32   C     C_3   0.002765 0.389498 0.970683 -0.214390
C33   C     C_3   0.884976 0.510236 0.932580 -0.212644
C34   C     C_3   0.115426 0.604268 0.047452 -0.213954
C35   C     C_3   0.885572 0.510122 0.030391 -0.213713
C36   C     C_1   0.001538 0.500640 0.250729 -0.044068
C37   C     C_3   0.000626 0.501394 0.916978 0.074111
C38   C     C_3   0.521740 0.871587 0.673815 -0.250251
C39   C     C_3   0.453362 0.921911 0.711313 -0.289940
C40   C     C_3   0.374665 0.834639 0.780091 -0.459853
C41   C     C_3   0.672858 0.781984 0.289367 -0.269719
C42   C     C_3   0.793163 0.846441 0.247887 -0.306283
C43   C     C_3   0.790124 0.945913 0.179421 -0.453979
C44   C     C_3   0.114827 0.604395 0.949599 -0.214358
C45   C     C_1   0.001914 0.500981 0.175089 -0.082379
C46   C     C_1   0.999938 0.501265 0.824705 -0.082401
C47   C     C_1   0.999547 0.500814 0.749113 -0.044692
C48   C     C_R   0.269113 0.029926 0.412475 -0.135313
Cu1   Cu    Cu3+1 0.098280 0.475420 0.519630 0.920927
Cu2   Cu    Cu3+1 0.901720 0.524580 0.480370 0.909062
H1    H     H_    0.922303 0.313900 0.093260 0.110043
H2    H     H_    0.762376 0.941817 0.676909 0.104767
H3    H     H_    0.921436 0.314066 0.948525 0.108688
H4    H     H_    0.664318 0.266599 0.384757 0.147997
H5    H     H_    0.166566 0.306920 0.650949 0.117236
H6    H     H_    0.543432 0.290872 0.663075 0.102633
H7    H     H_    0.341649 0.257245 0.687975 0.085420
H8    H     H_    0.335666 0.563949 0.450440 0.117690
H9    H     H_    0.490929 0.654029 0.383399 0.090699
H10   H     H_    0.717933 0.391263 0.588935 0.183668
H11   H     H_    0.881394 0.590169 0.894746 0.112960
H12   H     H_    0.085265 0.381197 0.960668 0.110567
H13   H     H_    0.801512 0.437005 0.909712 0.110677
H14   H     H_    0.802387 0.436829 0.054454 0.110908
H15   H     H_    0.882240 0.589992 0.039498 0.110072
H16   H     H_    0.199350 0.600011 0.939143 0.110911
H17   H     H_    0.115394 0.686022 0.912053 0.110140
H18   H     H_    0.200216 0.599764 0.083981 0.110252
H19   H     H_    0.304817 0.758278 0.751160 0.162527
H20   H     H_    0.432265 0.807635 0.834372 0.143748
H21   H     H_    0.327153 0.873521 0.806409 0.134236
H22   H     H_    0.520579 0.998560 0.741181 0.156150
H23   H     H_    0.086127 0.381026 0.105411 0.112064
H24   H     H_    0.393056 0.948879 0.659711 0.176543
H25   H     H_    0.459015 0.788846 0.651729 0.139692
H26   H     H_    0.580135 0.847353 0.729303 0.130429
H27   H     H_    0.844646 0.690000 0.353569 0.126932
H28   H     H_    0.714675 0.913994 0.126989 0.146248
H29   H     H_    0.777199 0.008127 0.209292 0.151141
H30   H     H_    0.877848 0.990614 0.150436 0.136359
H31   H     H_    0.870508 0.881185 0.298625 0.153796
H32   H     H_    0.808595 0.787180 0.216203 0.152067
H33   H     H_    0.596671 0.747922 0.237736 0.140344
H34   H     H_    0.116264 0.685840 0.056872 0.109300
H35   H     H_    0.656937 0.844149 0.317253 0.150653
H36   H     H_    0.089238 0.893464 0.412115 0.120142
H37   H     H_    0.450859 0.223573 0.354987 0.106524
H38   H     H_    0.237127 0.090856 0.372624 0.106196
H39   H     H_    0.384923 0.803314 0.524926 0.128417
H40   H     H_    0.906509 0.118101 0.606846 0.125095
N1    N     N_R   0.246300 0.438200 0.549400 -0.232605
N2    N     N_R   0.754300 0.561180 0.451130 -0.248101
O1    O     O_R   0.972520 0.318130 0.524690 -0.500808
O2    O     O_R   0.806530 0.359650 0.491530 -0.525859
O3    O     O_R   0.083030 0.479240 0.637150 -0.496061
O4    O     O_R   0.917040 0.520750 0.603990 -0.510102
O5    O     O_R   0.193470 0.640350 0.508470 -0.512353
O6    O     O_R   0.027480 0.681870 0.475310 -0.506476
O7    O     O_R   0.082960 0.479250 0.396010 -0.495241
O8    O     O_R   0.916970 0.520760 0.362850 -0.507607

loop_
_geom_bond_atom_site_label_1
_geom_bond_atom_site_label_2
_ccdc_geom_bond_type
C8    C13   A    
C23   C45   S    
C40   H21   S    
C27   C29   A    
C41   C42   S    
C44   H16   S    
C19   C20   A    
C18   C26   A    
C16   O6    A    
C20   C41   S    
C7    C8    A    
C38   H26   S    
C43   H28   S    
C12   C23   S    
C26   C27   A    
C40   H20   S    
C3    H40   S    
C21   H9    S    
C38   C39   S    
C16   O5    A    
C35   H15   S    
C43   H29   S    
C41   H33   S    
C39   H24   S    
C19   H27   S    
C24   C29   A    
C19   N2    A    
C4    O4    A    
C11   H37   S    
C1    O2    A    
C22   C25   A    
C42   H32   S    
C39   H22   S    
C48   H38   S    
C5    H2    S    
C35   H14   S    
C2    C16   S    
C9    C10   A    
C28   O8    A    
C21   C22   A    
C12   C32   S    
C42   H31   S    
C34   H34   S    
C15   C48   A    
Cu1   N1    S    
C24   N2    A    
C38   H25   S    
Cu2   O6    S    
C40   H19   S    
C34   C44   S    
C34   H18   S    
C39   C40   S    
C27   H6    S    
Cu2   O2    S    
C43   H30   S    
C33   C37   S    
C9    C14   A    
C14   H39   S    
Cu1   O7    S    
C4    O3    A    
C18   H7    S    
C29   H10   S    
C33   H13   S    
C23   C34   S    
C6    C38   S    
C36   C45   T    
C32   C37   S    
Cu1   O3    S    
C2    C15   A    
C15   H36   S    
C28   O7    A    
Cu2   N2    S    
C31   N1    A    
C10   C48   A    
C22   C24   A    
C42   C43   S    
C32   H3    S    
C12   H1    S    
C13   H4    S    
C25   C30   A    
C7    C9    A    
C46   C47   T    
C1    C17   S    
C30   N1    A    
C3    C5    A    
C6    C7    A    
C41   H35   S    
C23   C35   S    
C8    C17   A    
C31   H5    S    
C37   C44   S    
C25   C26   A    
C32   H12   S    
C11   C13   A    
Cu2   O4    S    
C5    C6    A    
C33   H11   S    
C30   H8    S    
C33   C35   S    
C3    C17   A    
C2    C14   A    
Cu2   O8    S    
C10   C11   A    
Cu1   O5    S    
C20   C21   A    
C28   C36   S    
C1    O1    A    
Cu1   Cu2   S    
C44   H17   S    
C18   C31   A    
Cu1   O1    S    
C37   C46   S    
C12   H23   S    
C4    C47   S    
