data_mof_unit_49112.cif
_audit_creation_date              2012-12-10T20:26:24-0500
_audit_creation_method            fapswitch 2.2
_symmetry_space_group_name_H-M    P1
_symmetry_Int_Tables_number       1
_space_group_crystal_system       triclinic
_cell_length_a                    10.708848
_cell_length_b                    10.647694
_cell_length_c                    9.903973
_cell_angle_alpha                 89.629957
_cell_angle_beta                  89.990116
_cell_angle_gamma                 90.15329
_cell_volume                      1129.26831746

loop_
_atom_site_label
_atom_site_type_symbol
_atom_type_description
_atom_site_fract_x
_atom_site_fract_y
_atom_site_fract_z
_atom_type_partial_charge
C1    C     C_R   0.499611 0.260358 0.500345 0.874809
C2    C     C_R   0.493306 0.128378 0.502168 -0.073669
C3    C     C_R   0.415825 0.065291 0.411036 -0.234543
C4    C     C_R   0.416593 0.935331 0.409787 -0.229067
C5    C     C_R   0.493460 0.871321 0.501169 -0.085434
C6    C     C_R   0.557835 0.935006 0.601450 0.122603
C7    C     C_3   0.693197 0.927086 0.636979 -0.492803
C8    C     C_3   0.694798 0.069422 0.634802 -0.510337
C9    C     C_R   0.486990 0.390684 0.071673 0.111830
C10   C     C_R   0.523179 0.606922 0.071054 -0.122913
C11   C     C_R   0.522904 0.607020 0.927444 -0.127857
C12   C     C_R   0.262711 0.500008 0.499844 0.944431
C13   C     C_R   0.488473 0.390181 0.929967 0.022823
C14   C     C_3   0.385956 0.293059 0.922999 0.398238
C15   C     C_3   0.383615 0.295327 0.078766 -0.226165
C16   C     C_R   0.499461 0.739547 0.499709 0.869701
C17   C     C_R   0.737263 0.507957 0.499645 0.934432
C18   C     C_2   0.935756 0.550640 0.387099 0.148772
C19   C     C_2   0.868453 0.532286 0.500170 -0.352132
C20   C     C_2   0.070699 0.555959 0.396550 -0.228963
C21   C     C_2   0.130638 0.499851 0.498493 -0.351919
C22   C     C_R   0.558899 0.063142 0.600835 0.145714
H1    H     H_    0.752045 0.109830 0.551376 0.200925
H2    H     H_    0.540175 0.693784 0.123969 0.150726
H3    H     H_    0.539607 0.694015 0.873451 0.150068
H4    H     H_    0.415256 0.207430 0.128736 0.169376
H5    H     H_    0.910321 0.538150 0.599645 0.130427
H6    H     H_    0.121689 0.600501 0.314087 0.163340
H7    H     H_    0.084553 0.450215 0.580306 0.144007
H8    H     H_    0.357949 0.115990 0.339771 0.148350
H9    H     H_    0.360239 0.885361 0.336708 0.155889
H10   H     H_    0.707819 0.886422 0.739417 0.201505
H11   H     H_    0.750481 0.884328 0.555696 0.200343
H12   H     H_    0.712503 0.110905 0.735642 0.197684
N1    N     N_R   0.499170 0.499140 0.142800 -0.097683
N2    N     N_R   0.499170 0.499180 0.857150 -0.108434
O1    O     O_R   0.500020 0.316790 0.614690 -0.604529
O2    O     O_R   0.500000 0.316760 0.385350 -0.628339
O3    O     O_R   0.319080 0.500020 0.614640 -0.602185
O4    O     O_R   0.319070 0.499980 0.385300 -0.635896
O5    O     O_R   0.500000 0.683240 0.614650 -0.628517
O6    O     O_R   0.499980 0.683210 0.385310 -0.631313
O7    O     O_R   0.680930 0.500020 0.614700 -0.626986
O8    O     O_R   0.680920 0.499980 0.385360 -0.574099
Zn1   Zn    Zn3+2 0.500010 0.500020 0.653130 0.949125
Zn2   Zn    Zn3+2 0.499990 0.499980 0.346870 0.938954
N3    N     N_3   0.878960 0.563504 0.256357 -0.411587
H13   H     H_    0.905512 0.650509 0.215951 0.166156
H14   H     H_    0.915332 0.493636 0.194051 0.184537
N4    N     N_2   0.275600 0.342796 0.854245 -0.238608
H15   H     H_    0.250485 0.432621 0.881654 0.218827
C23   C     C_3   0.169552 0.260252 0.835679 -0.743896
H16   H     H_    0.093122 0.312429 0.784730 0.209475
H17   H     H_    0.134311 0.225730 0.934614 0.239935
H18   H     H_    0.195207 0.180344 0.769949 0.260021
N5    N     N_2   0.431136 0.175670 0.864914 -0.272277
H19   H     H_    0.525702 0.173005 0.846032 0.219450
C24   C     C_3   0.384484 0.057267 0.918273 -0.837857
H20   H     H_    0.446159 0.023374 0.000918 0.223631
H21   H     H_    0.384636 0.986172 0.836861 0.252094
H22   H     H_    0.288120 0.065768 0.957882 0.255843
N6    N     N_3   0.265926 0.342545 0.134448 -0.452987
H23   H     H_    0.263001 0.319505 0.237024 0.220821
H24   H     H_    0.260392 0.440300 0.125361 0.206133

loop_
_geom_bond_atom_site_label_1
_geom_bond_atom_site_label_2
_ccdc_geom_bond_type
C2    C22   A    
C3    H8    S    
C14   N5    S    
C17   O7    A    
C12   O4    A    
C10   N1    A    
O1    Zn1   S    
C7    H11   S    
C8    C22   S    
N3    H13   S    
C23   H18   S    
C1    O1    A    
O3    Zn1   S    
C18   N3    S    
C24   H22   S    
N6    H24   S    
N4    H15   S    
C9    C15   S    
C17   O8    A    
N2    Zn1   S    
N3    H14   S    
C8    H12   S    
C13   C14   S    
C23   H16   S    
O4    Zn2   S    
O7    Zn1   S    
N6    H23   S    
C1    O2    A    
C12   O3    A    
C12   C21   S    
C11   N2    A    
C17   C19   S    
C15   N6    S    
C23   H17   S    
C2    C3    A    
C6    C7    S    
C18   C20   S    
N5    C24   S    
C5    C6    A    
O2    Zn2   S    
C4    H9    S    
C10   C11   A    
C14   N4    S    
C24   H21   S    
C3    C4    A    
C6    C22   A    
C11   H3    S    
C16   O6    A    
C7    C8    S    
C8    H1    S    
C19   H5    S    
C20   C21   D    
C13   N2    A    
C9    N1    A    
C1    C2    S    
O6    Zn2   S    
N4    C23   S    
N5    H19   S    
O5    Zn1   S    
C14   C15   S    
C18   C19   D    
C15   H4    S    
C9    C13   A    
C7    H10   S    
C20   H6    S    
C10   H2    S    
C24   H20   S    
N1    Zn2   S    
C21   H7    S    
C16   O5    A    
O8    Zn2   S    
C4    C5    A    
C5    C16   S    
