data_mof_unit_8403.cif
_audit_creation_date              2012-12-10T16:32:38-0500
_audit_creation_method            fapswitch 2.2
_symmetry_space_group_name_H-M    P1
_symmetry_Int_Tables_number       1
_space_group_crystal_system       triclinic
_cell_length_a                    16.846618
_cell_length_b                    16.846266
_cell_length_c                    16.854972
_cell_angle_alpha                 65.481249
_cell_angle_beta                  65.483732
_cell_angle_gamma                 65.452902
_cell_volume                      3784.95868161

loop_
_atom_site_label
_atom_site_type_symbol
_atom_type_description
_atom_site_fract_x
_atom_site_fract_y
_atom_site_fract_z
_atom_type_partial_charge
C1    C     C_R   0.590185 0.035525 0.590295 0.223764
C2    C     C_R   0.821067 0.563042 0.036519 0.925834
C3    C     C_R   0.254546 0.254776 0.746711 -0.097470
C4    C     C_R   0.310797 0.311078 0.709713 -0.099595
C5    C     C_R   0.333333 0.333509 0.767222 -0.206769
C6    C     C_R   0.436885 0.963658 0.178888 0.927684
C7    C     C_R   0.563114 0.036343 0.821112 0.927676
C8    C     C_R   0.563038 0.821065 0.036529 0.925730
C9    C     C_R   0.436963 0.178935 0.963469 0.925728
C10   C     C_R   0.036299 0.563134 0.821113 0.927657
C11   C     C_R   0.963701 0.436866 0.178887 0.927644
C12   C     C_R   0.821063 0.036650 0.562999 0.923070
C13   C     C_R   0.178937 0.963347 0.437001 0.923067
C14   C     C_R   0.544101 0.017165 0.544049 -0.258358
C15   C     C_R   0.409817 0.964463 0.409710 0.223772
C16   C     C_R   0.455903 0.982820 0.455956 -0.258324
C17   C     C_R   0.017186 0.544124 0.544009 -0.258639
C18   C     C_R   0.982816 0.455875 0.455991 -0.258618
C19   C     C_R   0.543865 0.543870 0.017666 -0.273655
C20   C     C_R   0.456132 0.456122 0.982354 -0.273646
C21   C     C_R   0.510395 0.087067 0.472802 0.308273
C22   C     C_R   0.489604 0.912924 0.527205 0.308283
C23   C     C_R   0.929733 0.534500 0.570308 0.311425
C24   C     C_R   0.070268 0.465500 0.429691 0.311410
C25   C     C_R   0.553885 0.553386 0.927133 0.325174
C26   C     C_R   0.035555 0.590199 0.590251 0.224005
C27   C     C_R   0.446114 0.446604 0.072886 0.325175
C28   C     C_R   0.466355 0.070036 0.429034 0.311559
C29   C     C_R   0.533649 0.929950 0.570971 0.311593
C30   C     C_R   0.510186 0.509673 0.909533 0.306003
C31   C     C_R   0.489809 0.490320 0.090488 0.306005
C32   C     C_R   0.912690 0.490426 0.526582 0.308054
C33   C     C_R   0.087314 0.509571 0.473420 0.308047
C34   C     C_R   0.548843 0.039345 0.679851 -0.134186
C35   C     C_R   0.451157 0.960649 0.320151 -0.134209
C36   C     C_R   0.040162 0.679541 0.548574 -0.125465
C37   C     C_R   0.964445 0.409801 0.409749 0.224010
C38   C     C_R   0.959838 0.320460 0.451427 -0.125462
C39   C     C_R   0.679515 0.548468 0.040123 -0.129679
C40   C     C_R   0.320482 0.451524 0.959898 -0.129687
C41   C     C_R   0.320446 0.959953 0.451353 -0.125005
C42   C     C_R   0.679557 0.040037 0.548650 -0.125028
C43   C     C_R   0.451542 0.320490 0.959855 -0.129102
C44   C     C_R   0.548458 0.679506 0.040152 -0.129120
C45   C     C_R   0.960760 0.451103 0.320146 -0.134132
C46   C     C_R   0.039242 0.548896 0.679854 -0.134130
C47   C     C_R   0.594129 0.055671 0.723382 -0.125567
C48   C     C_R   0.589895 0.589895 0.036318 0.225160
C49   C     C_R   0.405871 0.944327 0.276618 -0.125572
C50   C     C_R   0.056288 0.723195 0.593945 -0.122099
C51   C     C_R   0.943711 0.276806 0.406056 -0.122105
C52   C     C_R   0.723200 0.593904 0.056165 -0.123722
C53   C     C_R   0.276799 0.406092 0.943847 -0.123719
C54   C     C_R   0.276795 0.943781 0.406016 -0.122117
C55   C     C_R   0.723205 0.056212 0.593985 -0.122112
C56   C     C_R   0.406101 0.276806 0.943818 -0.123756
C57   C     C_R   0.593900 0.723194 0.056184 -0.123758
C58   C     C_R   0.944397 0.405843 0.276614 -0.125481
C59   C     C_R   0.410103 0.410098 0.963699 0.225160
C60   C     C_R   0.055603 0.594157 0.723386 -0.125484
C61   C     C_R   0.674748 0.078490 0.674896 -0.073966
C62   C     C_R   0.325252 0.921508 0.325103 -0.073965
C63   C     C_R   0.078495 0.674739 0.674894 -0.073968
C64   C     C_R   0.921504 0.325262 0.325107 -0.073967
C65   C     C_R   0.674705 0.674699 0.078715 -0.076930
C66   C     C_R   0.325295 0.325301 0.921288 -0.076922
C67   C     C_R   0.699529 0.138061 0.700424 0.122080
C68   C     C_R   0.663308 0.233146 0.668543 -0.220947
C69   C     C_R   0.683952 0.291252 0.692025 -0.065813
C70   C     C_R   0.963308 0.178939 0.437020 0.923115
C71   C     C_R   0.741028 0.254931 0.747390 -0.068430
C72   C     C_R   0.777381 0.160401 0.779537 -0.208586
C73   C     C_R   0.756717 0.102028 0.756392 -0.023347
C74   C     C_R   0.300470 0.861942 0.299567 0.122082
C75   C     C_R   0.243274 0.897981 0.243606 -0.023338
C76   C     C_R   0.222619 0.839615 0.220443 -0.208575
C77   C     C_R   0.258992 0.745086 0.252563 -0.068457
C78   C     C_R   0.316076 0.708757 0.307921 -0.065813
C79   C     C_R   0.336709 0.766857 0.331423 -0.220938
C80   C     C_R   0.138062 0.699469 0.700478 0.122091
C81   C     C_R   0.036691 0.821061 0.562980 0.923108
C82   C     C_R   0.102030 0.756716 0.756384 -0.023396
C83   C     C_R   0.160396 0.777247 0.779668 -0.208647
C84   C     C_R   0.254915 0.740682 0.747741 -0.067795
C85   C     C_R   0.291233 0.683532 0.692453 -0.065592
C86   C     C_R   0.233136 0.663034 0.668819 -0.221045
C87   C     C_R   0.861937 0.300532 0.299523 0.122089
C88   C     C_R   0.766863 0.336963 0.331186 -0.221046
C89   C     C_R   0.708766 0.316458 0.307558 -0.065600
C90   C     C_R   0.745084 0.259305 0.252274 -0.067809
C91   C     C_R   0.839602 0.222745 0.220342 -0.208646
C92   C     C_R   0.178933 0.436956 0.963486 0.925840
C93   C     C_R   0.897968 0.243284 0.243618 -0.023397
C94   C     C_R   0.700300 0.700273 0.137632 0.121078
C95   C     C_R   0.756918 0.756923 0.100928 -0.021919
C96   C     C_R   0.779273 0.779225 0.158665 -0.190111
C97   C     C_R   0.745444 0.745294 0.253247 -0.097493
C98   C     C_R   0.689190 0.688993 0.290265 -0.099617
C99   C     C_R   0.666667 0.666535 0.232771 -0.206721
C100  C     C_R   0.299706 0.299743 0.862354 0.121078
C101  C     C_R   0.243093 0.243089 0.899041 -0.021937
C102  C     C_R   0.220729 0.220815 0.841288 -0.190127
Cl1   Cl    Cl    0.578013 0.840756 0.658253 -0.427559
Cl2   Cl    Cl    0.621451 0.620395 0.835349 -0.377357
Cl3   Cl    Cl    0.159687 0.420110 0.343213 -0.426752
Cl4   Cl    Cl    0.840313 0.579892 0.656786 -0.426744
Cl5   Cl    Cl    0.421993 0.159228 0.341752 -0.427569
Cl6   Cl    Cl    0.197690 0.519711 0.440851 -0.535910
Cl7   Cl    Cl    0.802325 0.480268 0.559161 -0.535973
Cl8   Cl    Cl    0.476784 0.477927 0.204281 -0.508984
Cl9   Cl    Cl    0.523207 0.522069 0.795742 -0.508979
Cl10  Cl    Cl    0.478500 0.802817 0.560522 -0.536586
Cl11  Cl    Cl    0.521478 0.197194 0.439491 -0.536524
Cl12  Cl    Cl    0.378557 0.379588 0.164668 -0.377353
H1    H     H_    0.483160 0.026357 0.716121 0.173284
H2    H     H_    0.482795 0.715777 0.027067 0.169046
H3    H     H_    0.973855 0.516738 0.283855 0.173001
H4    H     H_    0.026148 0.483260 0.716145 0.172999
H5    H     H_    0.618834 0.262183 0.625685 0.158345
H6    H     H_    0.655587 0.364450 0.667381 0.208961
H7    H     H_    0.756954 0.300033 0.765474 0.177935
H8    H     H_    0.821418 0.132320 0.822598 0.121183
H9    H     H_    0.784893 0.028906 0.782279 0.135501
H10   H     H_    0.215088 0.971104 0.217734 0.135500
H11   H     H_    0.178576 0.867701 0.177385 0.121176
H12   H     H_    0.516839 0.973638 0.283881 0.173286
H13   H     H_    0.243075 0.699989 0.234462 0.177907
H14   H     H_    0.344457 0.635560 0.332542 0.208964
H15   H     H_    0.381193 0.737815 0.374273 0.158336
H16   H     H_    0.028914 0.785011 0.782147 0.135527
H17   H     H_    0.132317 0.821328 0.822684 0.121200
H18   H     H_    0.300010 0.756494 0.765945 0.178220
H19   H     H_    0.364422 0.654990 0.667992 0.208849
H20   H     H_    0.262170 0.618487 0.626036 0.158304
H21   H     H_    0.737830 0.381510 0.373968 0.158304
H22   H     H_    0.635578 0.344998 0.332022 0.208853
H23   H     H_    0.027391 0.715723 0.482808 0.168677
H24   H     H_    0.699987 0.243486 0.234077 0.178219
H25   H     H_    0.867681 0.178662 0.177328 0.121201
H26   H     H_    0.971084 0.214991 0.217853 0.135529
H27   H     H_    0.783638 0.783698 0.027765 0.134380
H28   H     H_    0.822850 0.822827 0.130060 0.117655
H29   H     H_    0.762814 0.762617 0.297847 0.153823
H30   H     H_    0.663024 0.662738 0.363531 0.185770
H31   H     H_    0.622989 0.622810 0.262327 0.154845
H32   H     H_    0.216379 0.216294 0.972202 0.134380
H33   H     H_    0.177155 0.177212 0.869880 0.117666
H34   H     H_    0.972608 0.284277 0.517192 0.168680
H35   H     H_    0.237167 0.237476 0.702100 0.153845
H36   H     H_    0.336953 0.337355 0.636452 0.185776
H37   H     H_    0.377000 0.377238 0.737681 0.154867
H38   H     H_    0.715789 0.482813 0.027020 0.169004
H39   H     H_    0.284205 0.517176 0.973007 0.169005
H40   H     H_    0.284249 0.972803 0.517079 0.168905
H41   H     H_    0.715754 0.027182 0.482926 0.168899
H42   H     H_    0.517206 0.284219 0.972938 0.169048
O1    O     O_R   0.982940 0.138950 0.510160 -0.627472
O2    O     O_R   0.982940 0.510160 0.138950 -0.623536
O3    O     O_R   0.861050 0.017060 0.489840 -0.627456
O4    O     O_R   0.138950 0.982940 0.510160 -0.627453
O5    O     O_R   0.867700 0.025880 0.612340 -0.633690
O6    O     O_R   0.132300 0.974120 0.387660 -0.633696
O7    O     O_R   0.025880 0.612340 0.867700 -0.634613
O8    O     O_R   0.974120 0.387660 0.132300 -0.634616
O9    O     O_R   0.612340 0.867700 0.025880 -0.634885
O10   O     O_R   0.387660 0.132300 0.974120 -0.634889
O11   O     O_R   0.387660 0.974120 0.132300 -0.634673
O12   O     O_R   0.017060 0.861050 0.489840 -0.627474
O13   O     O_R   0.612340 0.025880 0.867700 -0.634680
O14   O     O_R   0.132300 0.387660 0.974120 -0.634820
O15   O     O_R   0.867700 0.612340 0.025880 -0.634826
O16   O     O_R   0.974120 0.132300 0.387660 -0.633703
O17   O     O_R   0.025880 0.867700 0.612340 -0.633705
O18   O     O_R   0.138950 0.510160 0.982940 -0.624258
O19   O     O_R   0.861050 0.489840 0.017060 -0.624251
O20   O     O_R   0.510160 0.982940 0.138950 -0.623381
O21   O     O_R   0.489840 0.017060 0.861050 -0.623384
O22   O     O_R   0.489840 0.861050 0.017060 -0.624160
O23   O     O_R   0.510160 0.138950 0.982940 -0.624161
O24   O     O_R   0.017060 0.489840 0.861050 -0.623532
Zn1   Zn    Zn3+2 0.004880 0.004880 0.583590 0.949931
Zn2   Zn    Zn3+2 0.995120 0.995120 0.416410 0.949926
Zn3   Zn    Zn3+2 0.004880 0.583590 0.004880 0.955426
Zn4   Zn    Zn3+2 0.995120 0.416410 0.995120 0.955431
Zn5   Zn    Zn3+2 0.583590 0.004880 0.004880 0.955573
Zn6   Zn    Zn3+2 0.416410 0.995120 0.995120 0.955572

loop_
_geom_bond_atom_site_label_1
_geom_bond_atom_site_label_2
_ccdc_geom_bond_type
C16   C28   A    
C24   Cl3   S    
C72   H8    S    
C87   C88   A    
C78   C79   A    
C10   O7    A    
C50   C63   A    
C22   C29   A    
C95   C96   A    
C43   C56   A    
C78   H14   S    
C97   C98   A    
C13   O6    A    
C20   C30   A    
C77   C78   A    
C29   Cl1   S    
C101  C102  A    
C46   C60   A    
C17   C33   A    
C60   C63   A    
C18   C24   A    
C17   C26   S    
C14   C21   A    
O15   Zn3   S    
C9    O10   A    
C18   C37   S    
O6    Zn2   S    
C68   H5    S    
C102  H33   S    
C28   Cl5   S    
C15   C16   S    
C79   H15   S    
C87   C93   A    
C7    O21   A    
C66   C100  S    
C69   C71   A    
C70   O16   A    
C97   H29   S    
C80   C86   A    
C12   O5    A    
C86   H20   S    
C92   O14   A    
C68   C69   A    
C73   H9    S    
C35   C49   A    
C67   C73   A    
C51   C70   S    
C82   H16   S    
C11   C58   S    
O2    Zn3   S    
C64   C87   S    
C9    O23   A    
C43   C59   A    
C2    O15   A    
C98   H30   S    
C39   C52   A    
C99   H31   S    
C19   C31   A    
O3    Zn2   S    
C40   C59   A    
C76   H11   S    
C33   Cl6   S    
O1    Zn1   S    
C15   C35   A    
C90   H24   S    
C96   H28   S    
C1    C34   A    
C63   C80   S    
C58   C64   A    
C45   C58   A    
C101  H32   S    
C3    H35   S    
C32   Cl7   S    
C27   C31   A    
C67   C68   A    
O20   Zn5   S    
C84   C85   A    
C15   C41   A    
C21   Cl11  S    
C74   C75   A    
C19   C48   S    
C4    C5    A    
C38   C51   A    
C54   C62   A    
C92   O18   A    
C34   H1    S    
C85   C86   A    
O11   Zn6   S    
O7    Zn3   S    
C39   H38   S    
C84   H18   S    
O9    Zn5   S    
O21   Zn6   S    
C75   H10   S    
C7    C47   S    
C35   H12   S    
C10   C60   S    
C75   C76   A    
C83   H17   S    
C37   C38   A    
O8    Zn4   S    
C8    O22   A    
C8    C57   S    
C91   C93   A    
C61   C67   S    
C83   C84   A    
C5    C100  A    
C80   C82   A    
C44   C57   A    
C96   C97   A    
C53   C92   S    
C3    C4    A    
C9    C56   S    
C17   C23   A    
C76   C77   A    
C20   C59   S    
C53   C66   A    
C38   H34   S    
C2    C52   S    
C91   H25   S    
C3    C102  A    
C26   C36   A    
C65   C94   S    
C21   C28   A    
C40   C53   A    
O12   Zn2   S    
C74   C79   A    
C7    O13   A    
C2    O19   A    
C40   H39   S    
C46   H4    S    
C18   C32   A    
C14   C29   A    
C37   C45   A    
C43   H42   S    
O4    Zn1   S    
C31   Cl8   S    
C36   C50   A    
C41   H40   S    
C36   H23   S    
C45   H3    S    
C25   C30   A    
O16   Zn2   S    
C6    O11   A    
C16   C22   A    
C49   C62   A    
C13   O4    A    
O14   Zn4   S    
O10   Zn6   S    
C71   H7    S    
C51   C64   A    
C88   H21   S    
C57   C65   A    
C72   C73   A    
C39   C48   A    
C77   H13   S    
O18   Zn3   S    
C47   C61   A    
C25   Cl2   S    
C95   H27   S    
O23   Zn5   S    
C20   C27   A    
C1    C14   S    
C4    H36   S    
C13   C54   S    
C69   H6    S    
C22   Cl10  S    
C24   C33   A    
C5    H37   S    
C30   Cl9   S    
C70   O1    A    
C10   O24   A    
C23   C32   A    
C42   H41   S    
O13   Zn5   S    
C71   C72   A    
C93   H26   S    
C23   Cl4   S    
C90   C91   A    
C6    O20   A    
C94   C99   A    
C42   C55   A    
C56   C66   A    
C55   C61   A    
C11   O8    A    
C81   O12   A    
C81   O17   A    
C6    C49   S    
O5    Zn1   S    
C94   C95   A    
C19   C25   A    
C41   C54   A    
C12   C55   S    
C8    O9    A    
C26   C46   A    
O17   Zn1   S    
O22   Zn6   S    
C27   Cl12  S    
C44   C48   A    
C1    C42   A    
C88   C89   A    
C44   H2    S    
C98   C99   A    
C89   H22   S    
C62   C74   S    
C100  C101  A    
C34   C47   A    
C82   C83   A    
C89   C90   A    
C50   C81   S    
C52   C65   A    
O24   Zn4   S    
C11   O2    A    
C85   H19   S    
O19   Zn4   S    
C12   O3    A    
