data_mof_unit_25923.cif
_audit_creation_date              2012-12-11T16:09:01-0500
_audit_creation_method            fapswitch 2.2
_symmetry_space_group_name_H-M    P1
_symmetry_Int_Tables_number       1
_space_group_crystal_system       triclinic
_cell_length_a                    12.969738
_cell_length_b                    13.257956
_cell_length_c                    27.76432
_cell_angle_alpha                 94.442365
_cell_angle_beta                  90.63152
_cell_angle_gamma                 119.320573
_cell_volume                      4143.44759349

loop_
_atom_site_label
_atom_site_type_symbol
_atom_type_description
_atom_site_fract_x
_atom_site_fract_y
_atom_site_fract_z
_atom_type_partial_charge
C1    C     C_R   0.627938 0.893965 0.428008 0.549266
C2    C     C_R   0.101335 0.732522 0.308031 0.039108
C3    C     C_1   0.561785 0.418300 0.611137 0.199368
C4    C     C_3   0.215889 0.046215 0.815882 -0.382922
C5    C     C_3   0.837997 0.701562 0.769963 -0.396294
C6    C     C_3   0.069973 0.640632 0.387698 -0.376550
C7    C     C_R   0.075391 0.709055 0.207108 0.012686
C8    C     C_R   0.600897 0.222265 0.440593 0.546530
C9    C     C_R   0.031565 0.610432 0.232337 -0.116152
C10   C     C_R   0.043030 0.621746 0.282296 -0.101703
C11   C     C_R   0.063956 0.695886 0.157271 -0.109826
C12   C     C_R   0.099395 0.792434 0.131047 0.001850
C13   C     C_R   0.227546 0.955187 0.356599 -0.137068
C14   C     C_R   0.201009 0.945649 0.307105 -0.001378
C15   C     C_R   0.143091 0.833364 0.282333 0.030382
C16   C     C_R   0.620328 0.393319 0.234443 -0.086876
C17   C     C_R   0.238335 0.046039 0.281681 -0.014005
C18   C     C_R   0.222681 0.032717 0.230637 -0.001432
C19   C     C_R   0.168837 0.920468 0.205607 -0.019747
C20   C     C_R   0.266591 0.875992 0.426534 0.541827
C21   C     C_R   0.128847 0.821298 0.231757 0.041406
C22   C     C_R   0.151093 0.904003 0.154845 -0.142333
C23   C     C_R   0.199203 0.856951 0.381016 0.013313
C24   C     C_R   0.763111 0.892580 0.363991 -0.025768
C25   C     C_R   0.773267 0.871714 0.314269 0.007425
C26   C     C_R   0.789021 0.854833 0.214095 0.009973
C27   C     C_R   0.612399 0.378992 0.283892 -0.106334
C28   C     C_R   0.891533 0.917479 0.244372 -0.126254
C29   C     C_R   0.884191 0.925280 0.293961 -0.122753
C30   C     C_R   0.799105 0.853393 0.164874 -0.135044
C31   C     C_R   0.699391 0.792668 0.132993 -0.014673
C32   C     C_R   0.627509 0.898136 0.564728 0.549746
C33   C     C_R   0.550057 0.766123 0.352652 -0.141550
C34   C     C_R   0.557963 0.742883 0.303392 -0.022593
C35   C     C_R   0.669292 0.801251 0.283588 0.036522
C36   C     C_R   0.456018 0.667226 0.273406 -0.026360
C37   C     C_R   0.463257 0.657499 0.222810 -0.033923
C38   C     C_R   0.673636 0.330528 0.305768 0.030995
C39   C     C_R   0.573163 0.726313 0.201659 -0.026868
C40   C     C_R   0.676826 0.792952 0.233075 0.036594
C41   C     C_R   0.585605 0.731355 0.150679 -0.035773
C42   C     C_R   0.649591 0.847619 0.381871 -0.019873
C43   C     C_R   0.729923 0.280130 0.652192 -0.147928
C44   C     C_R   0.604978 0.229295 0.577651 0.547800
C45   C     C_R   0.746979 0.312118 0.701465 -0.007976
C46   C     C_R   0.762626 0.348228 0.802536 0.003671
C47   C     C_R   0.833655 0.308957 0.778672 -0.013352
C48   C     C_R   0.824029 0.289876 0.728498 -0.132795
C49   C     C_R   0.688979 0.358671 0.206472 0.036407
C50   C     C_R   0.767897 0.365037 0.853264 -0.129952
C51   C     C_R   0.694624 0.400428 0.876231 -0.011533
C52   C     C_R   0.603071 0.365400 0.644666 -0.018474
C53   C     C_R   0.605995 0.386068 0.695949 -0.002721
C54   C     C_R   0.679730 0.357894 0.724133 0.021644
C55   C     C_R   0.534207 0.426568 0.720182 -0.017406
C56   C     C_R   0.272543 0.879430 0.563628 0.544397
C57   C     C_R   0.539288 0.439158 0.771336 0.003193
C58   C     C_R   0.612711 0.410312 0.798283 -0.021967
C59   C     C_R   0.685145 0.372516 0.774923 0.026069
C60   C     C_1   0.698165 0.376405 0.155793 -0.049992
C61   C     C_R   0.615951 0.419806 0.848724 -0.133452
C62   C     C_R   0.650863 0.297806 0.624593 -0.016275
C63   C     C_1   0.225390 0.862792 0.610732 -0.007151
C64   C     C_R   0.142318 0.739467 0.722792 -0.119775
C65   C     C_R   0.130782 0.733059 0.772581 -0.125776
C66   C     C_R   0.190647 0.938805 0.783848 0.008446
C67   C     C_R   0.202393 0.944300 0.733623 -0.086634
C68   C     C_1   0.634320 0.273035 0.395552 -0.015310
C69   C     C_R   0.177681 0.844832 0.703131 0.016517
C70   C     C_R   0.154676 0.831928 0.803370 0.041201
C71   C     C_1   0.655423 0.304062 0.355376 -0.063959
C72   C     C_1   0.131986 0.818512 0.853982 -0.053909
C73   C     C_1   0.198738 0.853203 0.652318 -0.056451
C74   C     C_1   0.104119 0.799981 0.895048 -0.009644
C75   C     C_1   0.646402 0.859263 0.609017 -0.002602
C76   C     C_R   0.600626 0.827538 0.732227 -0.111959
C77   C     C_R   0.614021 0.811154 0.780405 -0.096375
C78   C     C_R   0.753697 0.744800 0.758209 0.015559
C79   C     C_R   0.739457 0.761866 0.709772 -0.088456
C80   C     C_R   0.743658 0.297384 0.277953 -0.107636
C81   C     C_R   0.664432 0.804538 0.696957 0.016624
C82   C     C_1   0.706079 0.399466 0.114328 -0.005889
C83   C     C_R   0.691416 0.771646 0.793934 0.063192
C84   C     C_1   0.708809 0.764630 0.844697 -0.041993
C85   C     C_1   0.656542 0.831391 0.648319 -0.051537
C86   C     C_1   0.725369 0.760205 0.887091 -0.009242
C87   C     C_R   0.060784 0.769692 0.080205 0.548151
C88   C     C_R   0.717508 0.441978 0.067578 0.546933
C89   C     C_R   0.723020 0.780831 0.082068 0.557072
C90   C     C_R   0.056690 0.766640 0.941304 0.542242
C91   C     C_R   0.711525 0.438811 0.927919 0.534092
C92   C     C_R   0.751579 0.311699 0.228442 -0.113638
C93   C     C_R   0.124215 0.744937 0.358455 -0.005713
C94   C     C_R   0.748820 0.754218 0.937057 0.555966
C95   C     C_1   0.264038 0.134202 0.203840 0.179227
C96   C     C_3   0.295259 0.166233 0.309220 -0.393142
C97   C     C_1   0.867661 0.961993 0.396189 0.210081
C98   C     C_1   0.485107 0.683776 0.115885 0.229009
C99   C     C_1   0.357529 0.571883 0.194232 0.224479
C100  C     C_1   0.342674 0.598772 0.294383 0.195072
C101  C     C_1   0.914673 0.284009 0.804592 0.182390
C102  C     C_1   0.469840 0.483632 0.796502 0.176309
C103  C     C_3   0.446166 0.448585 0.692531 -0.371946
Cr1   Cr    Cr6+3 0.416430 0.829200 0.492370 1.037681
Cr2   Cr    Cr6+3 0.674630 0.087020 0.504170 1.046220
Cr3   Cr    Cr6+3 0.408920 0.083740 0.503490 1.049920
Cr4   Cr    Cr6+3 0.914010 0.832750 0.013970 1.038206
Cr5   Cr    Cr6+3 0.922310 0.578600 0.003000 1.044895
Cr6   Cr    Cr6+3 0.656280 0.574630 0.003870 1.065807
H1    H     H_    0.790446 0.258688 0.294358 0.122363
H2    H     H_    0.875642 0.255535 0.710381 0.118307
H3    H     H_    0.560980 0.449027 0.867170 0.163538
H4    H     H_    0.124403 0.662349 0.699665 0.123468
H5    H     H_    0.572427 0.430860 0.217966 0.134419
H6    H     H_    0.101587 0.650259 0.787066 0.130068
H7    H     H_    0.231534 0.026116 0.718247 0.117780
H8    H     H_    0.542326 0.860674 0.722634 0.122575
H9    H     H_    0.565666 0.831714 0.807378 0.130826
H10   H     H_    0.788583 0.743955 0.682274 0.120145
H11   H     H_    0.557006 0.403829 0.304839 0.114608
H12   H     H_    0.280387 0.040188 0.375819 0.149008
H13   H     H_    0.020105 0.608577 0.139016 0.145037
H14   H     H_    0.988997 0.524078 0.213314 0.122167
H15   H     H_    0.009896 0.542799 0.300123 0.132201
H16   H     H_    0.175037 0.976539 0.133492 0.140534
H17   H     H_    0.235661 0.168620 0.337156 0.139987
H18   H     H_    0.381450 0.186668 0.326811 0.137061
H19   H     H_    0.312837 0.237216 0.286366 0.154154
H20   H     H_    0.383713 0.462110 0.715297 0.145637
H21   H     H_    0.494462 0.528298 0.673601 0.159428
H22   H     H_    0.388731 0.371847 0.666856 0.145830
H23   H     H_    0.887205 0.897982 0.151330 0.146019
H24   H     H_    0.243970 0.122609 0.794853 0.137371
H25   H     H_    0.134936 0.031313 0.834497 0.153123
H26   H     H_    0.287974 0.066814 0.843368 0.146797
H27   H     H_    0.841145 0.687207 0.808637 0.136471
H28   H     H_    0.811273 0.618088 0.748036 0.140261
H29   H     H_    0.928106 0.766203 0.760638 0.150396
H30   H     H_    0.973178 0.588502 0.378610 0.120790
H31   H     H_    0.111768 0.585887 0.379864 0.168374
H32   H     H_    0.079391 0.665977 0.427194 0.148922
H33   H     H_    0.977637 0.963614 0.229531 0.123746
H34   H     H_    0.965667 0.977626 0.315928 0.134366
H35   H     H_    0.805915 0.285771 0.207330 0.119780
H36   H     H_    0.463734 0.727956 0.367645 0.162073
H37   H     H_    0.829495 0.352303 0.875145 0.145422
H38   H     H_    0.772247 0.233683 0.635955 0.141013
N1    N     N_1   0.297108 0.215121 0.182484 -0.288009
N2    N     N_1   0.951138 0.017187 0.421801 -0.294558
N3    N     N_1   0.405719 0.646669 0.087713 -0.251751
N4    N     N_1   0.272577 0.503027 0.172016 -0.252273
N5    N     N_1   0.252514 0.544102 0.310997 -0.318990
N6    N     N_1   0.979527 0.263999 0.825283 -0.285686
N7    N     N_1   0.414707 0.519094 0.816563 -0.293102
N8    N     N_1   0.529699 0.460332 0.583905 -0.300347
O1    O     O_R   0.296680 0.802170 0.437540 -0.512105
O2    O     O_R   0.637200 0.461990 0.052510 -0.491759
O3    O     O_R   0.664790 0.681920 0.057970 -0.479019
O4    O     O_R   0.525380 0.838530 0.443500 -0.507878
O5    O     O_R   0.815840 0.852920 0.961840 -0.491664
O6    O     O_R   0.012100 0.822630 0.963670 -0.511779
O7    O     O_R   0.037010 0.668460 0.953040 -0.494014
O8    O     O_R   0.813390 0.478970 0.949660 -0.498768
O9    O     O_R   0.632250 0.456930 0.945520 -0.523079
O10   O     O_R   0.660200 0.677230 0.958780 -0.480731
O11   O     O_3   0.830870 0.661990 0.006950 -0.285312
O12   O     O_R   0.662610 0.183990 0.557860 -0.510468
O13   O     O_R   0.702130 0.995190 0.446810 -0.490977
O14   O     O_R   0.661770 0.181390 0.458760 -0.491956
O15   O     O_R   0.499820 0.198480 0.455280 -0.507244
O16   O     O_R   0.311660 0.976250 0.449080 -0.506030
O17   O     O_R   0.297580 0.804960 0.544440 -0.508835
O18   O     O_R   0.526220 0.841130 0.542590 -0.490112
O19   O     O_R   0.703030 0.997990 0.553710 -0.508446
O20   O     O_R   0.500730 0.201280 0.562180 -0.493235
O21   O     O_R   0.312500 0.978850 0.548170 -0.491075
O22   O     O_3   0.499990 0.999990 0.500010 -0.253714
O23   O     O_R   0.820790 0.857990 0.068830 -0.513796
O24   O     O_R   0.016700 0.827330 0.062850 -0.504009
O25   O     O_R   0.041970 0.673520 0.060040 -0.504022
O26   O     O_R   0.817980 0.483660 0.048840 -0.498174

loop_
_geom_bond_atom_site_label_1
_geom_bond_atom_site_label_2
_ccdc_geom_bond_type
C5    H27   S    
C47   C101  S    
C55   C103  S    
C46   C59   A    
C24   C42   A    
Cr3   O16   S    
C51   C61   A    
C44   O20   A    
Cr6   O2    S    
C32   C75   S    
Cr4   O5    S    
C88   O26   A    
C5    H29   S    
C39   C41   A    
C27   H11   S    
C100  N5    T    
C7    C11   A    
C57   C102  S    
C13   C23   A    
C49   C60   S    
Cr2   O14   S    
Cr5   O26   S    
C90   O7    A    
C33   C42   A    
C1    O4    A    
C36   C37   A    
C19   C21   A    
C84   C86   T    
C34   C35   A    
C10   H15   S    
C30   C31   A    
C30   H23   S    
C77   C83   A    
C27   C38   A    
C65   C70   A    
C29   H34   S    
C12   C22   A    
C96   H19   S    
C18   C19   A    
C6    H30   S    
C86   C94   S    
C51   C91   S    
C87   O25   A    
C46   C47   A    
C60   C82   T    
C78   C83   A    
C75   C85   T    
Cr1   O22   S    
C47   C48   A    
C53   C54   A    
C31   C89   S    
C79   H10   S    
Cr3   O21   S    
Cr3   O20   S    
C69   C73   S    
C31   C41   A    
C9    C10   A    
C102  N7    T    
Cr3   O22   S    
Cr1   O17   S    
C50   H37   S    
C58   C61   A    
C66   C67   A    
Cr4   O11   S    
C13   C14   A    
C56   O17   A    
C18   C95   S    
C65   H6    S    
C14   C17   A    
C91   O8    A    
Cr6   O3    S    
C94   O10   A    
C8    O15   A    
C50   C51   A    
C54   C59   A    
C53   C55   A    
C25   C29   A    
Cr5   O8    S    
C90   O6    A    
C24   C97   S    
Cr4   O6    S    
C89   O3    A    
C19   C22   A    
C24   C25   A    
C72   C74   T    
C77   H9    S    
C39   C40   A    
C79   C81   A    
C78   C79   A    
C22   H16   S    
C63   C73   T    
C1    O13   A    
C44   C62   S    
C58   C59   A    
C88   O2    A    
Cr5   O7    S    
Cr1   O1    S    
Cr2   O12   S    
C96   H18   S    
C67   C69   A    
C44   O12   A    
C80   C92   A    
C67   H7    S    
C13   H12   S    
C83   C84   S    
C20   C23   S    
C101  N6    T    
C3    C52   S    
C6    C93   S    
C48   H2    S    
C3    N8    T    
C17   C18   A    
C56   C63   S    
C96   H17   S    
C36   C100  S    
C17   C96   S    
C89   O23   A    
C16   C49   A    
C6    H32   S    
C2    C15   A    
C103  H20   S    
Cr6   O10   S    
C25   C35   A    
C4    H26   S    
C56   O21   A    
C45   C54   A    
C26   C30   A    
Cr2   O19   S    
C55   C57   A    
Cr4   O23   S    
C91   O9    A    
C11   H13   S    
C28   H33   S    
Cr1   O4    S    
C2    C10   A    
C37   C99   S    
C8    O14   A    
Cr5   O25   S    
C4    H25   S    
C98   N3    T    
C45   C48   A    
C7    C9    A    
Cr5   O11   S    
C38   C71   S    
C28   C29   A    
C94   O5    A    
C64   H4    S    
C20   O1    A    
C12   C87   S    
Cr4   O24   S    
C41   C98   S    
C2    C93   A    
C99   N4    T    
C95   N1    T    
Cr2   O22   S    
Cr6   O9    S    
C16   H5    S    
C76   C81   A    
C70   C72   S    
C11   C12   A    
C5    H28   S    
Cr1   O18   S    
C64   C69   A    
C32   O18   A    
C46   C50   A    
C26   C28   A    
C76   H8    S    
Cr2   O13   S    
C64   C65   A    
C74   C90   S    
C8    C68   S    
C35   C40   A    
C43   C45   A    
C7    C21   A    
C4    C66   S    
C76   C77   A    
C26   C40   A    
C57   C58   A    
C66   C70   A    
C32   O19   A    
C16   C27   A    
C68   C71   T    
C82   C88   S    
C9    H14   S    
C33   C34   A    
C34   C36   A    
C6    H31   S    
C92   H35   S    
C103  H21   S    
C43   H38   S    
Cr6   O11   S    
C87   O24   A    
C23   C93   A    
C1    C42   S    
C15   C21   A    
C20   O16   A    
C38   C80   A    
C37   C39   A    
Cr3   O15   S    
C80   H1    S    
C97   N2    T    
C14   C15   A    
C52   C62   A    
C49   C92   A    
C5    C78   S    
C61   H3    S    
C103  H22   S    
C81   C85   S    
C33   H36   S    
C43   C62   A    
C52   C53   A    
C4    H24   S    
