data_mof_unit_38676.cif
_audit_creation_date              2012-10-26T20:17:34-0400
_audit_creation_method            fapswitch 2.2
_symmetry_space_group_name_H-M    P1
_symmetry_Int_Tables_number       1
_space_group_crystal_system       triclinic
_cell_length_a                    27.715672
_cell_length_b                    8.693738
_cell_length_c                    7.453302
_cell_angle_alpha                 102.748052
_cell_angle_beta                  94.446441
_cell_angle_gamma                 93.909808
_cell_volume                      1739.62200247

loop_
_atom_site_label
_atom_site_type_symbol
_atom_type_description
_atom_site_fract_x
_atom_site_fract_y
_atom_site_fract_z
_atom_type_partial_charge
C1    C     C_R   0.498479 0.199721 0.453306 0.553913
C2    C     C_R   0.865225 0.395992 0.377740 -0.013331
C3    C     C_R   0.354378 0.481902 0.503550 -0.013635
C4    C     C_R   0.645620 0.518085 0.496458 -0.013636
C5    C     C_R   0.967526 0.369451 0.397886 -0.002425
C6    C     C_R   0.032473 0.630525 0.602222 -0.002420
C7    C     C_R   0.981155 0.635927 0.603586 0.025628
C8    C     C_R   0.018843 0.364045 0.396528 0.025624
C9    C     C_R   0.949059 0.509201 0.493690 -0.019848
C10   C     C_R   0.050940 0.490775 0.506416 -0.019848
C11   C     C_R   0.933675 0.237318 0.314392 0.251115
C12   C     C_R   0.501522 0.800279 0.546693 0.553915
C13   C     C_R   0.066324 0.762660 0.685714 0.251110
C14   C     C_R   0.883997 0.255888 0.285737 0.138108
C15   C     C_R   0.116002 0.744094 0.714354 0.138100
C16   C     C_R   0.407447 0.495795 0.501284 0.553329
C17   C     C_R   0.592552 0.504201 0.498716 0.553317
C18   C     C_R   0.039460 0.240733 0.278458 -0.123768
C19   C     C_R   0.960539 0.759231 0.721668 -0.123762
C20   C     C_2   0.497801 0.031889 0.427029 -0.145427
C21   C     C_2   0.502202 0.968112 0.572971 -0.145427
C22   C     C_R   0.170894 0.333233 0.416761 0.431642
C23   C     C_R   0.102112 0.479916 0.513302 -0.063020
C24   C     C_R   0.829105 0.666744 0.583340 0.431618
C25   C     C_R   0.185218 0.586957 0.622727 0.444076
C26   C     C_R   0.814782 0.413043 0.377324 0.444073
C27   C     C_R   0.282888 0.417650 0.650106 -0.057635
C28   C     C_R   0.717118 0.582466 0.350019 -0.057636
C29   C     C_R   0.333264 0.433774 0.649795 -0.138730
C30   C     C_R   0.666742 0.566344 0.350309 -0.138734
C31   C     C_R   0.324384 0.512662 0.357209 -0.117819
C32   C     C_R   0.675608 0.487188 0.642724 -0.117822
C33   C     C_R   0.273979 0.499855 0.359158 0.139804
C34   C     C_R   0.897887 0.520064 0.486796 -0.063023
C35   C     C_R   0.726013 0.500002 0.640799 0.139789
C36   C     C_R   0.253082 0.451800 0.506129 0.243668
C37   C     C_R   0.746918 0.548188 0.493924 0.243655
C38   C     C_3   0.940200 0.013380 0.419987 -0.108138
C39   C     C_3   0.059797 0.986618 0.580161 -0.108134
C40   C     C_R   0.120663 0.344718 0.408856 0.032569
C41   C     C_R   0.879336 0.655256 0.591253 0.032564
C42   C     C_R   0.089060 0.228265 0.289749 -0.134037
C43   C     C_R   0.910938 0.771699 0.710378 -0.134040
C44   C     C_R   0.134775 0.603995 0.622339 -0.013325
Cu1   Cu    Cu3+1 0.505380 0.517380 0.684380 0.972903
Cu2   Cu    Cu3+1 0.494620 0.482620 0.315620 0.972902
H1    H     H_    0.340067 0.550465 0.243673 0.148902
H2    H     H_    0.266957 0.381761 0.764119 0.164837
H3    H     H_    0.018403 0.154835 0.169367 0.200664
H4    H     H_    0.981595 0.845122 0.830766 0.200664
H5    H     H_    0.493690 0.960431 0.286312 0.138182
H6    H     H_    0.506313 0.039569 0.713688 0.138182
H7    H     H_    0.901072 0.001568 0.442838 0.164752
H8    H     H_    0.961396 0.080142 0.549874 0.125111
H9    H     H_    0.952123 0.892047 0.385944 0.156232
H10   H     H_    0.038606 0.919859 0.450256 0.125115
H11   H     H_    0.098927 0.998448 0.557341 0.164769
H12   H     H_    0.659918 0.449276 0.756181 0.148919
H13   H     H_    0.047868 0.107950 0.614212 0.156219
H14   H     H_    0.461785 0.376434 0.948767 0.238032
H15   H     H_    0.538215 0.623566 0.051233 0.238035
H16   H     H_    0.102589 0.128106 0.200506 0.194920
H17   H     H_    0.897409 0.871851 0.799632 0.194922
H18   H     H_    0.644347 0.592495 0.236953 0.135667
H19   H     H_    0.355663 0.407731 0.763216 0.135678
H20   H     H_    0.733056 0.618457 0.236080 0.164813
I1    I     I_    0.230862 0.564143 0.144365 -0.252162
I2    I     I_    0.769120 0.435553 0.855495 -0.252020
I3    I     I_    0.841648 0.057764 0.104100 -0.157931
I4    I     I_    0.158350 0.942201 0.896022 -0.157902
N1    N     N_R   0.201814 0.454676 0.519476 -0.391123
N2    N     N_R   0.798185 0.545316 0.480590 -0.391135
N3    N     N_2   0.486510 0.456430 0.038510 -0.256310
N4    N     N_2   0.513490 0.543570 0.961490 -0.256306
O1    O     O_R   0.503500 0.286120 0.619780 -0.506013
O2    O     O_2   0.811087 0.796749 0.680093 -0.444352
O3    O     O_2   0.781963 0.297589 0.280459 -0.419706
O4    O     O_2   0.218037 0.702432 0.719544 -0.419718
O5    O     O_3   0.948010 0.085320 0.271168 -0.592304
O6    O     O_3   0.051986 0.914655 0.728960 -0.592305
O7    O     O_R   0.496500 0.713880 0.380220 -0.506012
O8    O     O_R   0.494410 0.256780 0.308360 -0.493268
O9    O     O_R   0.505590 0.743220 0.691640 -0.493267
O10   O     O_R   0.434810 0.514700 0.655690 -0.502858
O11   O     O_R   0.565190 0.485300 0.344310 -0.502848
O12   O     O_R   0.425720 0.485350 0.344280 -0.500273
O13   O     O_R   0.574280 0.514650 0.655720 -0.500269
O14   O     O_2   0.188911 0.203216 0.320033 -0.444340

loop_
_geom_bond_atom_site_label_1
_geom_bond_atom_site_label_2
_ccdc_geom_bond_type
C27   H2    S    
C30   H18   S    
C27   C29   A    
C26   N2    A    
N3    N4    D    
C32   H12   S    
C43   H17   S    
Cu1   Cu2   S    
C24   N2    A    
C17   O11   A    
C35   I2    S    
C35   C37   A    
C15   C44   A    
C5    C11   A    
C20   H5    S    
C18   C42   A    
C11   C14   A    
C38   O5    S    
C23   C40   A    
C39   H11   S    
H14   N3    S    
C16   O10   A    
C33   C36   A    
C3    C29   A    
Cu2   O8    S    
C38   H9    S    
C31   C33   A    
C25   N1    A    
C22   O14   S    
C42   H16   S    
C36   N1    S    
Cu2   O11   S    
C2    C34   A    
C40   C42   A    
C13   O6    S    
C22   C40   A    
C31   H1    S    
C16   O12   A    
C24   C41   A    
C41   C43   A    
Cu1   O9    S    
C34   C41   A    
C25   C44   A    
C19   C43   A    
C26   O3    S    
C25   O4    S    
C1    O1    A    
C32   C35   A    
C24   O2    S    
C1    O8    A    
C12   C21   S    
C8    C18   A    
C23   C44   A    
C12   O9    A    
Cu1   N4    S    
C28   H20   S    
C5    C9    A    
Cu2   O7    S    
C39   H10   S    
C38   H8    S    
C39   H13   S    
C2    C26   A    
C3    C31   A    
C4    C32   A    
C11   O5    S    
C29   H19   S    
C4    C17   S    
C7    C19   A    
C13   C15   A    
C9    C34   A    
H15   N4    S    
C14   I3    S    
Cu1   O10   S    
C22   N1    A    
C33   I1    S    
C7    C9    A    
C15   I4    S    
C1    C20   S    
Cu1   O13   S    
C17   O13   A    
C6    C10   A    
C5    C8    A    
C6    C7    A    
C10   C23   A    
Cu1   O1    S    
C27   C36   A    
C39   O6    S    
C28   C30   A    
C6    C13   A    
C19   H4    S    
C38   H7    S    
C28   C37   A    
C12   O7    A    
Cu2   N3    S    
C2    C14   A    
C20   C21   D    
C8    C10   A    
C37   N2    S    
C21   H6    S    
C4    C30   A    
C3    C16   S    
C18   H3    S    
Cu2   O12   S    
