data_mof_unit_51190.cif
_audit_creation_date              2013-03-05T16:06:55-0500
_audit_creation_method            fapswitch 2.2
_symmetry_space_group_name_H-M    P1
_symmetry_Int_Tables_number       1
_space_group_crystal_system       monoclinic
_cell_length_a                    10.912488
_cell_length_b                    9.607209
_cell_length_c                    10.916518
_cell_angle_alpha                 90.0
_cell_angle_beta                  94.700469
_cell_angle_gamma                 90.0
_cell_volume                      1140.62276599

loop_
_atom_site_label
_atom_site_type_symbol
_atom_site_description
_atom_site_fract_x
_atom_site_fract_y
_atom_site_fract_z
_atom_type_partial_charge
O1    O     O_R   0.319640 0.618740 0.499990 -0.506182
O2    O     O_R   0.680360 0.618740 0.500010 -0.506182
O3    O     O_R   0.319620 0.381170 0.499990 -0.596268
O4    O     O_R   0.680380 0.381170 0.500010 -0.596268
C1    C     C_R   0.262520 0.500712 0.502732 0.855929
C2    C     C_R   0.737479 0.500712 0.497268 0.855928
O5    O     O_R   0.499990 0.618810 0.319660 -0.535414
O6    O     O_R   0.500010 0.618810 0.680340 -0.535414
O7    O     O_R   0.499960 0.381240 0.319650 -0.598184
O8    O     O_R   0.500040 0.381240 0.680350 -0.598183
C3    C     C_R   0.500242 0.499673 0.262857 0.828516
C4    C     C_R   0.499758 0.499673 0.737143 0.828516
Cu1   Cu    Cu3+1 0.500000 0.640660 0.500000 1.150553
Cu2   Cu    Cu3+1 0.500000 0.359340 0.500000 1.008918
C5    C     C_R   0.501361 0.618799 0.062054 0.024847
C6    C     C_R   0.498640 0.618799 0.937946 0.024847
C7    C     C_R   0.500874 0.497256 0.130233 -0.071436
C8    C     C_R   0.499126 0.497256 0.869767 -0.071436
C9    C     C_R   0.500242 0.370345 0.064514 -0.142228
C10   C     C_R   0.499758 0.370345 0.935486 -0.142229
C11   C     C_3   0.498599 0.773704 0.929490 0.062352
C12   C     C_3   0.501401 0.773704 0.070510 0.062351
C13   C     C_R   0.063544 0.378685 0.501699 -0.161752
C14   C     C_R   0.936456 0.378685 0.498300 -0.161752
C15   C     C_R   0.871357 0.504433 0.494637 -0.198140
C16   C     C_R   0.128643 0.504433 0.505363 -0.198140
C17   C     C_R   0.935882 0.632539 0.494176 0.279762
C18   C     C_R   0.064117 0.632539 0.505824 0.279762
C19   C     C_R   0.423123 0.077502 0.420349 -0.022270
C20   C     C_R   0.576877 0.077502 0.579651 -0.022270
C21   C     C_R   0.422621 0.929973 0.415597 0.428244
C22   C     C_R   0.577378 0.929973 0.584403 0.428244
N1    N     N_R   0.500000 0.852070 0.500000 -0.258665
N2    N     N_R   0.500000 0.147940 0.500000 -0.238935
H1    H     H_    0.500130 0.271360 0.111999 0.198174
H2    H     H_    0.499869 0.271360 0.888001 0.198174
H3    H     H_    0.582143 0.816660 0.893575 0.212596
H4    H     H_    0.417858 0.816660 0.106425 0.212596
N3    N     N_R   0.383814 0.829169 0.870100 0.155889
O9    O     O_R   0.277868 0.779602 0.895878 -0.263317
O10   O     O_R   0.387128 0.933572 0.794651 -0.319563
N4    N     N_R   0.616187 0.829169 0.129900 0.155889
O11   O     O_R   0.722133 0.779602 0.104122 -0.263318
O12   O     O_R   0.612872 0.933571 0.205350 -0.319562
H5    H     H_    0.110815 0.279517 0.501869 0.213539
H6    H     H_    0.889185 0.279517 0.498131 0.213539
N5    N     N_R   0.873079 0.763732 0.480325 0.164947
O13   O     O_R   0.816279 0.796098 0.374763 -0.254440
O14   O     O_R   0.891978 0.859882 0.563699 -0.248773
N6    N     N_R   0.126921 0.763732 0.519676 0.164947
O15   O     O_R   0.183721 0.796098 0.625238 -0.254440
O16   O     O_R   0.108022 0.859882 0.436302 -0.248774
H7    H     H_    0.362430 0.138603 0.358298 0.187534
H8    H     H_    0.637570 0.138603 0.641702 0.187534
N7    N     N_R   0.341089 0.872198 0.316115 0.128668
O17   O     O_R   0.289511 0.955025 0.232483 -0.345276
O18   O     O_R   0.304672 0.744362 0.311457 -0.308690
N8    N     N_R   0.658911 0.872198 0.683885 0.128668
O19   O     O_R   0.710489 0.955025 0.767517 -0.345275
O20   O     O_R   0.695327 0.744362 0.688543 -0.308690

loop_
_geom_bond_atom_site_label_1
_geom_bond_atom_site_label_2
_geom_bond_distance
_ccdc_geom_bond_type
C17   N5    1.436725 S    
Cu2   N2    2.030964 S    
N6    O16   1.301315 A    
N7    O17   1.303571 A    
C21   N1    1.412301 A    
Cu1   N1    2.031060 S    
C6    C11   1.491061 S    
C13   H5    1.083340 S    
O6    C4    1.301864 A    
C15   C17   1.418146 A    
C20   H8    1.080996 S    
C16   C18   1.418146 A    
N5    O13   1.300685 A    
C11   N3    1.462939 S    
C22   N8    1.456272 S    
O7    Cu2   1.979970 S    
C17   C18   1.394713 A    
C14   H6    1.083339 S    
C22   N1    1.412299 A    
N6    O15   1.300684 A    
N5    O14   1.301316 A    
C12   N4    1.462939 S    
Cu1   Cu2   2.702700 S    
C20   C22   1.418277 A    
O7    C3    1.295881 A    
O2    C2    1.295470 A    
O3    Cu2   1.979527 S    
N4    O12   1.300243 A    
C19   C21   1.418276 A    
O1    C1    1.295470 A    
O8    C4    1.295881 A    
C6    C8    1.384959 A    
C7    C9    1.414402 A    
O5    C3    1.301865 A    
C8    C10   1.414402 A    
N7    O18   1.290559 A    
O4    Cu2   1.979526 S    
C2    C15   1.464007 S    
O1    Cu1   1.979402 S    
N4    O11   1.302274 A    
C20   N2    1.340981 A    
C13   C14   1.384301 A    
N8    O20   1.290558 A    
C5    C6    1.352719 A    
C10   H2    1.083122 S    
O6    Cu1   1.979836 S    
O5    Cu1   1.979836 S    
C11   H3    1.101706 S    
C14   C15   1.400382 A    
N3    O10   1.300243 A    
O4    C2    1.308122 A    
O8    Cu2   1.979968 S    
C13   C16   1.400382 A    
C4    C8    1.448564 S    
N3    O9    1.302275 A    
C5    C7    1.384958 A    
O2    Cu1   1.979401 S    
C3    C7    1.448564 S    
C9    H1    1.083122 S    
C21   N7    1.456272 S    
N8    O19   1.303571 A    
C11   C12   1.537238 S    
C18   N6    1.436725 S    
C19   N2    1.340982 A    
C5    C12   1.491062 S    
C1    C16   1.464007 S    
C9    C10   1.408109 A    
C19   H7    1.080997 S    
O3    C1    1.308122 A    
C12   H4    1.101705 S    
