data_mof_unit_34277.cif
_audit_creation_date              2012-12-10T17:31:06-0500
_audit_creation_method            fapswitch 2.2
_symmetry_space_group_name_H-M    P1
_symmetry_Int_Tables_number       1
_space_group_crystal_system       triclinic
_cell_length_a                    12.057652
_cell_length_b                    12.785924
_cell_length_c                    15.470779
_cell_angle_alpha                 87.783827
_cell_angle_beta                  115.802069
_cell_angle_gamma                 93.634263
_cell_volume                      2142.83386877

loop_
_atom_site_label
_atom_site_type_symbol
_atom_type_description
_atom_site_fract_x
_atom_site_fract_y
_atom_site_fract_z
_atom_type_partial_charge
C1    C     C_R   0.474454 0.299994 0.493475 0.974251
C2    C     C_R   0.642764 0.966724 0.607477 -0.212856
C3    C     C_R   0.358659 0.140887 0.403031 0.440529
C4    C     C_R   0.641729 0.859081 0.597159 0.393837
C5    C     C_R   0.547642 0.130474 0.552424 -0.217980
C6    C     C_R   0.452491 0.869481 0.447914 -0.192963
C7    C     C_R   0.547921 0.024385 0.540324 0.115786
C8    C     C_R   0.452198 0.975556 0.460018 0.087761
C9    C     C_R   0.056136 0.637401 0.492032 0.341840
C10   C     C_R   0.944047 0.362554 0.508284 0.300239
C11   C     C_R   0.163606 0.618608 0.481903 -0.074886
C12   C     C_R   0.525660 0.699978 0.506725 0.965418
C13   C     C_R   0.836359 0.381386 0.518082 -0.096540
C14   C     C_R   0.129922 0.435555 0.490422 0.105202
C15   C     C_R   0.870173 0.564429 0.509713 0.115935
C16   C     C_R   0.575965 0.491187 0.680097 0.973008
C17   C     C_R   0.424054 0.508936 0.319910 0.977072
C18   C     C_R   0.018666 0.448583 0.499425 -0.127567
C19   C     C_R   0.981516 0.551376 0.500863 -0.147679
C20   C     C_R   0.624376 0.482882 0.784208 -0.159787
C21   C     C_R   0.375633 0.517311 0.215794 -0.149248
C22   C     C_R   0.785731 0.519388 0.942908 -0.160290
C23   C     C_R   0.645245 0.509396 0.112669 -0.124901
C24   C     C_R   0.214278 0.480818 0.057088 -0.168017
C25   C     C_R   0.747087 0.514256 0.844133 -0.135968
C26   C     C_R   0.252904 0.485986 0.155855 -0.143259
C27   C     C_R   0.544172 0.449280 0.824292 0.309349
C28   C     C_R   0.455859 0.550874 0.175723 0.305960
C29   C     C_R   0.572847 0.481555 0.917666 -0.011102
C30   C     C_R   0.427180 0.518598 0.082346 -0.011427
C31   C     C_R   0.698308 0.506057 0.979927 0.124969
C32   C     C_R   0.301715 0.494106 0.020081 0.131063
C33   C     C_R   0.481507 0.491475 0.950692 0.098651
C34   C     C_R   0.354781 0.490718 0.887344 -0.126582
C35   C     C_R   0.518520 0.508658 0.049322 0.096622
C36   C     C_R   0.734113 0.514831 0.078003 -0.159384
C37   C     C_R   0.265914 0.485300 0.922009 -0.163392
C38   C     C_R   0.544783 0.811216 0.516293 -0.150991
C39   C     C_R   0.455434 0.188740 0.483971 -0.169459
C40   C     C_R   0.357380 0.033222 0.392829 -0.179928
H1    H     H_    0.187675 0.465038 0.185288 0.198900
H2    H     H_    0.219869 0.684794 0.476355 0.209576
H3    H     H_    0.108840 0.923208 0.497343 0.425494
H4    H     H_    0.885598 0.143052 0.577171 0.350110
H5    H     H_    0.755984 0.655892 0.291030 0.385368
H6    H     H_    0.244074 0.343890 0.709021 0.382286
H7    H     H_    0.378276 0.831032 0.386763 0.179119
H8    H     H_    0.621839 0.168936 0.613577 0.171827
H9    H     H_    0.909405 0.895973 0.744381 0.377042
H10   H     H_    0.095123 0.178483 0.170481 0.395311
H11   H     H_    0.285438 0.994669 0.330818 0.212316
H12   H     H_    0.812298 0.535221 0.814688 0.205395
H13   H     H_    0.714579 0.005299 0.669535 0.181113
H14   H     H_    0.836893 0.641343 0.506998 0.233933
H15   H     H_    0.163153 0.358652 0.493016 0.236299
H16   H     H_    0.881613 0.540003 0.989273 0.153588
H17   H     H_    0.118396 0.460206 0.010721 0.147847
H18   H     H_    0.676669 0.506232 0.189277 0.182298
H19   H     H_    0.323353 0.493860 0.810736 0.182525
H20   H     H_    0.830728 0.524287 0.127987 0.154302
H21   H     H_    0.169300 0.475839 0.872024 0.153217
H22   H     H_    0.779842 0.315249 0.523290 0.186488
N1    N     N_R   0.799120 0.480200 0.517090 -0.130288
N2    N     N_R   0.200880 0.519800 0.482910 -0.140338
O1    O     O_R   0.580150 0.341050 0.504560 -0.656883
O2    O     O_2   0.017786 0.784758 0.592844 -0.253368
O3    O     O_3   0.134569 0.852253 0.493124 -0.545405
O4    O     O_2   0.980851 0.214812 0.407047 -0.194711
O5    O     O_2   0.099294 0.206029 0.581307 -0.281736
O6    O     O_3   0.866896 0.146758 0.508132 -0.503020
O7    O     O_2   0.577263 0.724036 0.147851 -0.254106
O8    O     O_2   0.499649 0.733177 0.269031 -0.271386
O9    O     O_3   0.692951 0.627811 0.311879 -0.558304
O10   O     O_2   0.500439 0.266975 0.730987 -0.274562
O11   O     O_2   0.422955 0.276048 0.852252 -0.262139
O12   O     O_R   0.419850 0.658950 0.495440 -0.655747
O13   O     O_3   0.307073 0.372228 0.688233 -0.557830
O14   O     O_2   0.682436 0.724171 0.741279 -0.303870
O15   O     O_2   0.814487 0.713918 0.658932 -0.287794
O16   O     O_3   0.856799 0.867766 0.775240 -0.495637
O17   O     O_2   0.184020 0.283395 0.341345 -0.281506
O18   O     O_2   0.319759 0.278240 0.261083 -0.352244
O19   O     O_3   0.146720 0.131939 0.223647 -0.510501
O20   O     O_R   0.388090 0.353760 0.493600 -0.551585
O21   O     O_R   0.611910 0.646240 0.506400 -0.552124
O22   O     O_R   0.650890 0.490020 0.640860 -0.615094
O23   O     O_R   0.349110 0.509980 0.359140 -0.613199
O24   O     O_R   0.458830 0.502730 0.629890 -0.562898
O25   O     O_R   0.541170 0.497270 0.370110 -0.562408
O26   O     O_2   0.902042 0.793780 0.417797 -0.249468
S1    S     S_3+6 0.023866 0.769490 0.499183 0.048425
S2    S     S_3+6 0.976411 0.230418 0.501235 0.050563
S3    S     S_3+6 0.556854 0.663305 0.225404 0.055535
S4    S     S_3+6 0.443241 0.336801 0.774656 0.049806
S5    S     S_3+6 0.750264 0.787006 0.693680 0.052038
S6    S     S_3+6 0.250742 0.213117 0.306413 0.039525
Zn1   Zn    Zn3+2 0.628240 0.491510 0.507320 1.051248
Zn2   Zn    Zn3+2 0.371760 0.508490 0.492680 1.053374

loop_
_geom_bond_atom_site_label_1
_geom_bond_atom_site_label_2
_ccdc_geom_bond_type
C23   H18   S    
C21   C26   A    
C27   C29   A    
C34   C37   A    
O10   S4    D    
C2    C7    A    
O9    S3    S    
C9    S1    S    
C7    C8    A    
C1    O20   A    
C15   C19   A    
C30   C35   A    
C24   C26   A    
C20   C25   A    
O12   Zn2   S    
C29   C33   A    
O13   S4    S    
C11   H2    S    
H5    O9    S    
C18   C19   A    
O22   Zn1   S    
C14   C18   A    
O4    S2    D    
C9    C19   A    
C13   H22   S    
C24   H17   S    
C22   C25   A    
C1    O1    A    
C6    C38   A    
H4    O6    S    
C3    S6    S    
O5    S2    D    
O23   Zn2   S    
N2    Zn2   S    
C14   H15   S    
C10   S2    S    
C16   O22   A    
H10   O19   S    
C5    H8    S    
O18   S6    D    
C6    H7    S    
C15   H14   S    
C17   O25   A    
C11   N2    A    
C22   C31   A    
C5    C7    A    
O17   S6    D    
C6    C8    A    
C2    H13   S    
C17   C21   S    
O25   Zn1   S    
C28   S3    S    
C2    C4    A    
C24   C32   A    
O15   S5    D    
C4    S5    S    
C13   N1    A    
O14   S5    D    
C16   C20   S    
C14   N2    A    
O3    S1    S    
C33   C34   A    
C32   C37   A    
O16   S5    S    
C9    C11   A    
O8    S3    D    
C12   O21   A    
H3    O3    S    
C21   C28   A    
C4    C38   A    
C3    C40   A    
C23   C35   A    
C5    C39   A    
C34   H19   S    
C17   O23   A    
O6    S2    S    
C36   H20   S    
C10   C13   A    
H6    O13   S    
C37   H21   S    
O2    S1    D    
O7    S3    D    
C20   C27   A    
C40   H11   S    
H9    O16   S    
C22   H16   S    
O20   Zn2   S    
C12   O12   A    
C25   H12   S    
O1    Zn1   S    
C29   C31   A    
C30   C32   A    
O26   S1    D    
C10   C18   A    
O19   S6    S    
C28   C30   A    
C33   C35   A    
C12   C38   S    
O21   Zn1   S    
C1    C39   S    
C3    C39   A    
C26   H1    S    
N1    Zn1   S    
C23   C36   A    
C16   O24   A    
C15   N1    A    
C31   C36   A    
C27   S4    S    
C8    C40   A    
O24   Zn2   S    
O11   S4    D    
