data_mof_unit_41061.cif
_audit_creation_date              2012-10-26T21:02:56-0400
_audit_creation_method            fapswitch 2.2
_symmetry_space_group_name_H-M    P1
_symmetry_Int_Tables_number       1
_space_group_crystal_system       triclinic
_cell_length_a                    12.329222
_cell_length_b                    13.165313
_cell_length_c                    23.476833
_cell_angle_alpha                 77.851063
_cell_angle_beta                  101.140216
_cell_angle_gamma                 116.550485
_cell_volume                      3311.01031934

loop_
_atom_site_label
_atom_site_type_symbol
_atom_type_description
_atom_site_fract_x
_atom_site_fract_y
_atom_site_fract_z
_atom_type_partial_charge
C1    C     C_R   0.854837 0.286508 0.505561 0.546354
C2    C     C_R   0.967208 0.577327 0.868494 0.399014
C3    C     C_R   0.106880 0.524036 0.769040 -0.062807
C4    C     C_R   0.999835 0.500423 0.608814 0.539100
C5    C     C_R   0.107159 0.523500 0.709783 -0.156505
C6    C     C_R   0.999471 0.501509 0.671174 -0.003272
C7    C     C_R   0.891484 0.480069 0.692684 -0.151707
C8    C     C_R   0.890980 0.479200 0.752127 -0.058758
C9    C     C_R   0.998723 0.501396 0.790621 0.236008
C10   C     C_R   0.928728 0.400209 0.244208 -0.053983
C11   C     C_R   0.930407 0.396714 0.304771 0.239945
C12   C     C_R   0.069957 0.349483 0.054777 -0.123958
C13   C     C_R   0.000520 0.498265 0.329691 0.035384
C14   C     C_R   0.073542 0.598708 0.295912 -0.201376
C15   C     C_R   0.075365 0.599675 0.236683 -0.071559
C16   C     C_R   0.145039 0.713403 0.491477 0.538244
C17   C     C_R   0.002219 0.500768 0.210400 0.195784
C18   C     C_R   0.276770 0.020551 0.421082 -0.126902
C19   C     C_R   0.227950 0.834532 0.479492 0.000610
C20   C     C_R   0.814308 0.085888 0.546335 -0.146856
C21   C     C_R   0.735146 0.971320 0.558634 -0.143255
C22   C     C_R   0.612141 0.933373 0.537523 -0.119492
C23   C     C_R   0.067672 0.348344 0.995272 -0.124056
C24   C     C_R   0.566086 0.009480 0.501381 0.028820
C25   C     C_R   0.649986 0.123385 0.483490 0.016784
C26   C     C_R   0.439820 0.975990 0.481781 0.028126
C27   C     C_R   0.401067 0.052553 0.440715 0.048636
C28   C     C_R   0.000203 0.499630 0.391499 0.585186
C29   C     C_R   0.486912 0.158958 0.418471 -0.136067
C30   C     C_R   0.609607 0.193155 0.438723 -0.109580
C31   C     C_R   0.350460 0.868709 0.501982 -0.132543
C32   C     C_R   0.190512 0.911582 0.440093 -0.135101
C33   C     C_R   0.772644 0.163509 0.510094 -0.009475
C34   C     C_R   0.033090 0.424157 0.952667 0.030425
C35   C     C_R   0.343868 0.323332 0.590224 -0.137297
C36   C     C_R   0.760963 0.647274 0.421917 0.055165
C37   C     C_R   0.665791 0.680868 0.405536 -0.155781
C38   C     C_R   0.562076 0.625874 0.435046 -0.131407
C39   C     C_R   0.552425 0.536147 0.481665 0.006291
C40   C     C_R   0.967328 0.575788 0.108333 0.403519
C41   C     C_R   0.652961 0.505308 0.497131 0.183198
C42   C     C_R   0.447506 0.475995 0.513537 -0.024367
C43   C     C_R   0.445374 0.386009 0.559254 -0.003856
C44   C     C_R   0.544449 0.358225 0.573942 -0.172782
C45   C     C_R   0.000244 0.501419 0.970378 -0.028635
C46   C     C_R   0.646342 0.417445 0.544112 -0.095873
C47   C     C_R   0.343417 0.499880 0.501945 -0.005090
C48   C     C_R   0.244483 0.351849 0.577648 0.416818
C49   C     C_R   0.038054 0.428256 0.132493 0.399247
C50   C     C_R   0.036731 0.425803 0.072914 0.030839
C51   C     C_R   0.001354 0.501764 0.030575 -0.028944
C52   C     C_R   0.967037 0.578020 0.048279 0.028645
C53   C     C_3   0.872922 0.201458 0.330668 -0.014326
C54   C     C_3   0.838117 0.109242 0.383671 -0.364139
C55   C     C_3   0.163038 0.283616 0.665689 -0.016356
C56   C     C_R   0.966286 0.578323 0.928046 0.029249
C57   C     C_3   0.042570 0.227885 0.692029 -0.351392
C58   C     C_R   0.932843 0.654495 0.946191 -0.124635
C59   C     C_R   0.932757 0.654037 0.005668 -0.124171
C60   C     C_R   0.030279 0.424642 0.892593 0.397903
Cu1   Cu    Cu3+1 0.098270 0.475410 0.513370 0.987484
Cu2   Cu    Cu3+1 0.901730 0.524590 0.486630 0.933246
H1    H     H_    0.097380 0.290098 0.086457 0.167311
H2    H     H_    0.768625 0.911982 0.586238 0.130616
H3    H     H_    0.093477 0.288167 0.982816 0.167352
H4    H     H_    0.672248 0.273798 0.417442 0.184883
H5    H     H_    0.543818 0.290242 0.609398 0.111190
H6    H     H_    0.341278 0.251175 0.623093 0.094359
H7    H     H_    0.337037 0.566444 0.467758 0.124783
H8    H     H_    0.841229 0.690695 0.398871 0.127423
H9    H     H_    0.491160 0.655265 0.420519 0.103141
H10   H     H_    0.672496 0.749852 0.369877 0.106598
H11   H     H_    0.718176 0.391338 0.559827 0.178118
H12   H     H_    0.129240 0.676227 0.315539 0.111485
H13   H     H_    0.906269 0.714448 0.914523 0.166814
H14   H     H_    0.906080 0.713621 0.018113 0.167836
H15   H     H_    0.190862 0.542311 0.798248 0.137353
H16   H     H_    0.191847 0.541733 0.694030 0.119989
H17   H     H_    0.807182 0.462344 0.663779 0.119650
H18   H     H_    0.806740 0.460888 0.768360 0.135533
H19   H     H_    0.870527 0.325383 0.222975 0.125784
H20   H     H_    0.968689 0.222590 0.324603 0.146014
H21   H     H_    0.810433 0.165395 0.291789 0.139884
H22   H     H_    0.741898 0.083000 0.390215 0.166391
H23   H     H_    0.133181 0.677487 0.211073 0.150201
H24   H     H_    0.847781 0.032962 0.376678 0.095642
H25   H     H_    0.899035 0.142319 0.423429 0.171137
H26   H     H_    0.214878 0.371984 0.677478 0.131618
H27   H     H_    0.214856 0.231691 0.685567 0.117375
H28   H     H_    0.992612 0.137051 0.684193 0.148557
H29   H     H_    0.060004 0.230675 0.740010 0.133687
H30   H     H_    0.984845 0.273764 0.671735 0.166174
H31   H     H_    0.095776 0.886010 0.422126 0.121603
H32   H     H_    0.459165 0.216111 0.385105 0.121385
H33   H     H_    0.246778 0.078618 0.389677 0.114945
H34   H     H_    0.373513 0.808692 0.534815 0.117765
H35   H     H_    0.907977 0.114185 0.566344 0.170785
H36   H     H_    0.556405 0.843393 0.549289 0.105712
N1    N     N_R   0.002855 0.501913 0.149092 -0.392844
N2    N     N_R   0.998457 0.500964 0.851873 -0.396425
N3    N     N_R   0.246280 0.438190 0.533650 -0.223557
N4    N     N_R   0.754320 0.561190 0.466710 -0.238426
O1    O     O_R   0.972510 0.318130 0.516820 -0.446840
O2    O     O_R   0.082990 0.479280 0.429170 -0.502127
O3    O     O_R   0.917010 0.520800 0.406580 -0.498841
O4    O     O_2   0.931089 0.645952 0.125829 -0.499320
O5    O     O_3   0.860136 0.298196 0.339967 -0.571181
O6    O     O_3   0.138697 0.285637 0.604225 -0.532770
O7    O     O_2   0.075152 0.358204 0.173559 -0.516221
O8    O     O_2   0.058120 0.348781 0.874971 -0.511977
O9    O     O_2   0.938393 0.652894 0.827554 -0.504866
O10   O     O_R   0.806530 0.359650 0.494230 -0.533901
O11   O     O_R   0.082990 0.479200 0.593420 -0.475251
O12   O     O_R   0.917010 0.520720 0.570830 -0.519407
O13   O     O_R   0.193470 0.640350 0.505770 -0.521166
O14   O     O_R   0.027490 0.681870 0.483180 -0.507695

loop_
_geom_bond_atom_site_label_1
_geom_bond_atom_site_label_2
_ccdc_geom_bond_type
C22   H36   S    
C57   H30   S    
C27   C29   A    
C19   C31   A    
C40   N1    A    
C54   H22   S    
C1    C33   S    
C7    C8    A    
C39   C41   A    
Cu2   O3    S    
C48   O6    S    
C53   C54   S    
C12   C23   A    
C26   C27   A    
C29   C30   A    
C47   N3    A    
C5    C6    A    
C14   H12   S    
C7    H17   S    
C36   C37   A    
Cu1   O1    S    
C24   C26   A    
Cu2   O12   S    
C1    O10   A    
C29   H32   S    
C35   C48   A    
C10   C17   A    
C31   H34   S    
C41   N4    A    
C36   N4    A    
C55   H26   S    
C28   O2    A    
C47   H7    S    
C21   H2    S    
C20   H35   S    
C45   C56   A    
C36   H8    S    
C8    C9    A    
Cu1   O13   S    
C41   C46   A    
C13   C28   S    
C35   C43   A    
C1    O1    A    
C15   H23   S    
C32   H31   S    
C2    N2    A    
C26   C31   A    
C13   C14   A    
C34   C60   A    
C18   H33   S    
C19   C32   A    
C16   O14   A    
C44   C46   A    
C58   H13   S    
C39   C42   A    
C38   C39   A    
C2    O9    S    
C57   H28   S    
C51   C52   A    
C4    O11   A    
Cu1   O2    S    
C24   C25   A    
C4    C6    S    
C54   H24   S    
C12   H1    S    
C3    C5    A    
C58   C59   A    
C40   C52   A    
C53   H20   S    
Cu1   N3    S    
C43   C44   A    
Cu2   O14   S    
C37   C38   A    
C3    C9    A    
C52   C59   A    
C49   N1    A    
C53   O5    S    
C28   O3    A    
C23   C34   A    
C50   C51   A    
C34   C45   A    
C17   N1    S    
C30   H4    S    
C20   C33   A    
C9    N2    S    
C55   C57   S    
C11   O5    S    
C22   C24   A    
C18   C32   A    
C42   C43   A    
C3    H15   S    
C16   O13   A    
C40   O4    S    
C4    O12   A    
C25   C30   A    
C15   C17   A    
C38   H9    S    
C57   H29   S    
C18   C27   A    
C60   N2    A    
C12   C50   A    
C6    C7    A    
C10   H19   S    
C55   O6    S    
C53   H21   S    
C23   H3    S    
C49   O7    S    
C55   H27   S    
C2    C56   A    
Cu1   O11   S    
C11   C13   A    
C54   H25   S    
C35   H6    S    
C16   C19   S    
C48   N3    A    
C56   C58   A    
C42   C47   A    
Cu1   Cu2   S    
C60   O8    S    
C10   C11   A    
Cu2   O10   S    
C20   C21   A    
C49   C50   A    
C37   H10   S    
C8    H18   S    
C45   C51   A    
C14   C15   A    
C44   H5    S    
C5    H16   S    
C21   C22   A    
C59   H14   S    
C46   H11   S    
C25   C33   A    
Cu2   N4    S    
