data_mof_unit_12841.cif
_audit_creation_date              2013-03-05T15:40:48-0500
_audit_creation_method            fapswitch 2.2
_symmetry_space_group_name_H-M    P1
_symmetry_Int_Tables_number       1
_space_group_crystal_system       triclinic
_cell_length_a                    7.776694
_cell_length_b                    8.55778
_cell_length_c                    14.869133
_cell_angle_alpha                 91.077061
_cell_angle_beta                  85.750041
_cell_angle_gamma                 93.623964
_cell_volume                      984.765807965

loop_
_atom_site_label
_atom_site_type_symbol
_atom_site_description
_atom_site_fract_x
_atom_site_fract_y
_atom_site_fract_z
_atom_type_partial_charge
O1    O     O_R   0.389250 0.738570 0.505970 -0.610621
O2    O     O_R   0.610750 0.261430 0.494030 -0.610621
O3    O     O_R   0.678390 0.711620 0.490370 -0.631636
O4    O     O_R   0.321610 0.288380 0.509630 -0.631636
C1    C     C_R   0.545730 0.794679 0.497664 0.961678
C2    C     C_R   0.454270 0.205320 0.502336 0.961680
O5    O     O_R   0.355420 0.513510 0.639950 -0.607888
O6    O     O_R   0.644580 0.486490 0.360050 -0.607891
O7    O     O_R   0.644560 0.486560 0.624350 -0.619915
O8    O     O_R   0.355440 0.513440 0.375650 -0.619917
C3    C     C_R   0.501900 0.499645 0.672756 0.880030
C4    C     C_R   0.498100 0.500356 0.327244 0.880035
Zn1   Zn    Zn3+2 0.306940 0.517990 0.510420 0.971110
Zn2   Zn    Zn3+2 0.693060 0.482010 0.489580 0.971107
C5    C     C_R   0.414378 0.374644 0.188906 -0.187857
C6    C     C_R   0.585633 0.625349 0.811093 -0.187870
C7    C     C_R   0.494663 0.501449 0.232162 -0.065995
C8    C     C_R   0.505340 0.498548 0.767838 -0.065983
C9    C     C_R   0.577855 0.626543 0.185280 -0.158799
C10   C     C_R   0.422165 0.373445 0.814719 -0.158810
C11   C     C_R   0.578328 0.627866 0.092332 0.081750
C12   C     C_R   0.421707 0.372115 0.907666 0.081741
C13   C     C_R   0.499664 0.499067 0.046806 0.024678
C14   C     C_R   0.500371 0.500913 0.953193 0.024687
C15   C     C_R   0.420604 0.368659 0.095160 0.007305
C16   C     C_R   0.579431 0.631320 0.904839 0.007305
C17   C     C_R   0.654349 0.756933 0.044928 -0.194257
C18   C     C_R   0.345707 0.243037 0.955069 -0.194262
C19   C     C_R   0.652760 0.761796 0.951360 0.304669
C20   C     C_R   0.347302 0.238170 0.048637 0.304632
H1    H     H_    0.349132 0.281709 0.229279 0.180938
H2    H     H_    0.650864 0.718294 0.770722 0.180929
H3    H     H_    0.639266 0.723476 0.221595 0.149813
H4    H     H_    0.360756 0.276512 0.778403 0.149809
H5    H     H_    0.710780 0.856387 0.081071 0.210140
H6    H     H_    0.289294 0.143579 0.918923 0.210174
C21   C     C_2   0.569840 0.958188 0.496311 -0.351756
C22   C     C_2   0.430160 0.041812 0.503689 -0.351753
H7    H     H_    0.701787 0.009187 0.489258 0.184000
H8    H     H_    0.298213 0.990813 0.510742 0.184000
N1    N     N_2   0.950330 0.457950 0.475660 -0.168017
N2    N     N_2   0.049670 0.542050 0.524340 -0.168015
H9    H     H_    0.013731 0.382434 0.431987 0.198348
H10   H     H_    0.986269 0.617566 0.568013 0.198351
N3    N     N_R   0.720536 0.901423 0.905568 0.203274
O9    O     O_R   0.859195 0.976764 0.931624 -0.345261
O10   O     O_R   0.627118 0.969331 0.850561 -0.415716
N4    N     N_R   0.279582 0.098518 0.094425 0.203284
O11   O     O_R   0.141032 0.023059 0.068320 -0.345253
O12   O     O_R   0.372991 0.030694 0.149472 -0.415740

loop_
_geom_bond_atom_site_label_1
_geom_bond_atom_site_label_2
_geom_bond_distance
_ccdc_geom_bond_type
C4    C7    1.416239 S    
O5    C3    1.285014 A    
O7    Zn2   2.011552 S    
C2    C22   1.400306 S    
C3    C8    1.416239 S    
C5    H1    1.082654 S    
C21   C22   1.334820 D    
C1    C21   1.400306 S    
C6    H2    1.082659 S    
N1    H9    1.029312 S    
N1    N2    1.277391 D    
O6    C4    1.285014 A    
C13   C14   1.391926 A    
C10   H4    1.085855 S    
C18   C20   1.393674 A    
C11   C17   1.396880 A    
C21   H7    1.087908 S    
C12   C18   1.396881 A    
N3    O9    1.301224 A    
C22   H8    1.087908 S    
O7    C3    1.286749 A    
C14   C16   1.420670 A    
O2    C2    1.277787 A    
O3    Zn2   1.975211 S    
N2    H10   1.029312 S    
Zn2   N1    2.019201 S    
O1    C1    1.277786 A    
O8    C4    1.286751 A    
N4    O12   1.301466 A    
N4    O11   1.301234 A    
C7    C9    1.387149 A    
C10   C12   1.382040 A    
C8    C10   1.387150 A    
C11   C13   1.412620 A    
C6    C16   1.391257 A    
O2    Zn2   1.955274 S    
C12   C14   1.412614 A    
C5    C15   1.391264 A    
O4    C2    1.286291 A    
O1    Zn1   1.955272 S    
O3    C1    1.286292 A    
O5    Zn1   1.991308 S    
C13   C15   1.420674 A    
C17   C19   1.393669 A    
C18   H6    1.084580 S    
C16   C19   1.413999 A    
C6    C8    1.388782 A    
C9    H3    1.085854 S    
N3    O10   1.301463 A    
C20   N4    1.437718 S    
C15   C20   1.414014 A    
C5    C7    1.388785 A    
Zn1   N2    2.019202 S    
O6    Zn2   1.991309 S    
C17   H5    1.084582 S    
O4    Zn1   1.975213 S    
C19   N3    1.437702 S    
C9    C11   1.382034 A    
O8    Zn1   2.011553 S    
