data_mof_unit_42349.cif
_audit_creation_date              2012-12-10T17:22:12-0500
_audit_creation_method            fapswitch 2.2
_symmetry_space_group_name_H-M    P1
_symmetry_Int_Tables_number       1
_space_group_crystal_system       triclinic
_cell_length_a                    10.131254
_cell_length_b                    10.837448
_cell_length_c                    15.773375
_cell_angle_alpha                 90.12841
_cell_angle_beta                  81.192088
_cell_angle_gamma                 95.178552
_cell_volume                      1704.34112544

loop_
_atom_site_label
_atom_site_type_symbol
_atom_type_description
_atom_site_fract_x
_atom_site_fract_y
_atom_site_fract_z
_atom_type_partial_charge
C1    C     C_R   0.556048 0.732556 0.496606 0.946031
C2    C     C_2   0.487546 0.934123 0.526460 -0.141346
C3    C     C_2   0.412162 0.135745 0.519187 -0.370389
C4    C     C_R   0.500215 0.500378 0.661519 0.911580
C5    C     C_2   0.512525 0.065994 0.523877 -0.157499
C6    C     C_2   0.922022 0.499873 0.514330 -0.058771
C7    C     C_2   0.069089 0.485862 0.497629 -0.174324
C8    C     C_R   0.443953 0.267439 0.507712 0.932955
C9    C     C_R   0.499752 0.499507 0.338485 0.907354
C10   C     C_3   0.381993 0.567222 0.962018 -0.092989
C11   C     C_3   0.642119 0.547137 0.938383 -0.167860
C12   C     C_3   0.378360 0.564954 0.061685 -0.105107
C13   C     C_3   0.635098 0.558800 0.037791 -0.175038
C14   C     C_1   0.498549 0.496424 0.250137 -0.206071
C15   C     C_3   0.502036 0.495182 0.916640 0.103152
C16   C     C_3   0.236787 0.526347 0.116974 -0.423273
C17   C     C_3   0.131653 0.445901 0.074905 -0.366210
C18   C     C_3   0.010400 0.400744 0.140915 -0.898530
C19   C     C_3   0.570993 0.266089 0.087811 -0.407446
C20   C     C_3   0.495320 0.185186 0.163182 -0.369908
C21   C     C_3   0.589306 0.106477 0.201730 -0.876091
C22   C     C_2   0.122801 0.656964 0.584061 1.015877
C23   C     C_3   0.496763 0.492438 0.083456 0.177866
C24   C     C_3   0.373193 0.700716 0.927766 -0.363833
C25   C     C_3   0.228455 0.737909 0.943731 -0.387978
C26   C     C_3   0.220704 0.869691 0.912472 -0.867323
C27   C     C_2   0.712940 0.655605 0.882876 0.921091
C28   C     C_3   0.667920 0.693386 0.069894 -0.395478
C29   C     C_3   0.820022 0.728971 0.062563 -0.338822
C30   C     C_3   0.849937 0.863851 0.086732 -0.891208
C31   C     C_3   0.563090 0.263650 0.896371 -0.378427
C32   C     C_3   0.493995 0.130962 0.902105 -0.426614
C33   C     C_3   0.585954 0.039718 0.856307 -0.789337
C34   C     C_3   0.477209 0.354817 0.051322 -0.080948
C35   C     C_3   0.475749 0.356574 0.950825 -0.134415
C36   C     C_1   0.497387 0.493534 0.175196 -0.101175
C37   C     C_1   0.501043 0.497843 0.824978 -0.088589
C38   C     C_1   0.500447 0.499517 0.749979 -0.160302
C39   C     C_2   0.587844 0.864291 0.501775 -0.369174
H1    H     H_    0.402061 0.661536 0.082324 0.147468
H2    H     H_    0.710380 0.473489 0.920426 0.124976
H3    H     H_    0.715370 0.505132 0.055795 0.153397
H4    H     H_    0.371101 0.325637 0.941369 0.136838
H5    H     H_    0.373671 0.318937 0.079549 0.153742
H6    H     H_    0.041041 0.340274 0.189850 0.260106
H7    H     H_    0.963489 0.480702 0.173185 0.262020
H8    H     H_    0.934783 0.346547 0.108344 0.245087
H9    H     H_    0.094319 0.501380 0.025950 0.217732
H10   H     H_    0.175081 0.363851 0.043803 0.210314
H11   H     H_    0.249197 0.478517 0.176915 0.224754
H12   H     H_    0.292471 0.513333 0.944490 0.157530
H13   H     H_    0.190438 0.612398 0.138897 0.194834
H14   H     H_    0.635741 0.043460 0.152590 0.259042
H15   H     H_    0.669340 0.166705 0.226360 0.266795
H16   H     H_    0.531686 0.049617 0.255815 0.255586
H17   H     H_    0.446693 0.243846 0.214362 0.231723
H18   H     H_    0.415527 0.122547 0.140134 0.212175
H19   H     H_    0.616219 0.201259 0.040692 0.221606
H20   H     H_    0.657351 0.319586 0.110136 0.205982
H21   H     H_    0.024600 0.811597 0.597027 0.328648
H22   H     H_    0.276092 0.936515 0.950671 0.248983
H23   H     H_    0.615924 0.105502 0.520199 0.191358
H24   H     H_    0.263684 0.880346 0.843453 0.279988
H25   H     H_    0.114244 0.890747 0.920832 0.258353
H26   H     H_    0.163535 0.673650 0.909361 0.244001
H27   H     H_    0.188487 0.732452 0.013263 0.226319
H28   H     H_    0.437352 0.769374 0.959021 0.229734
H29   H     H_    0.408145 0.707434 0.857619 0.245649
H30   H     H_    0.875560 0.718920 0.798658 0.351044
H31   H     H_    0.810401 0.926465 0.042914 0.265997
H32   H     H_    0.803699 0.879606 0.153934 0.261743
H33   H     H_    0.960096 0.886204 0.081207 0.251257
H34   H     H_    0.384197 0.894652 0.543466 0.206222
H35   H     H_    0.862918 0.668782 0.106334 0.215723
H36   H     H_    0.871657 0.715149 0.996507 0.244467
H37   H     H_    0.620416 0.762013 0.035537 0.232383
H38   H     H_    0.625665 0.702228 0.138547 0.206156
H39   H     H_    0.620994 0.069497 0.788646 0.257721
H40   H     H_    0.673962 0.032960 0.889724 0.267468
H41   H     H_    0.529897 0.947013 0.856338 0.280932
H42   H     H_    0.462378 0.100355 0.969800 0.229359
H43   H     H_    0.402297 0.128743 0.871167 0.226419
H44   H     H_    0.579155 0.288893 0.827322 0.215854
H45   H     H_    0.309046 0.095782 0.522708 0.156535
H46   H     H_    0.665757 0.266858 0.912976 0.197391
H47   H     H_    0.690890 0.904225 0.484676 0.159961
H48   H     H_    0.103751 0.413588 0.454274 0.153109
H49   H     H_    0.879253 0.553051 0.568273 0.199712
H50   H     H_    0.885041 0.399342 0.414120 0.159963
N1    N     N_2   0.842720 0.448890 0.465540 -0.208625
N2    N     N_2   0.157250 0.551040 0.534500 -0.153991
O1    O     O_R   0.431050 0.692470 0.506940 -0.612382
O2    O     O_R   0.038188 0.739014 0.556949 -0.844768
O3    O     O_2   0.662508 0.753159 0.879752 -0.683320
O4    O     O_R   0.837484 0.641641 0.833313 -0.822298
O5    O     O_R   0.651130 0.659650 0.484820 -0.598959
O6    O     O_R   0.389910 0.516410 0.633920 -0.579159
O7    O     O_R   0.609990 0.483590 0.611800 -0.621407
O8    O     O_R   0.348870 0.340350 0.515180 -0.625179
O9    O     O_R   0.568950 0.307530 0.493060 -0.613841
O10   O     O_R   0.390010 0.516410 0.388200 -0.623724
O11   O     O_R   0.610090 0.483590 0.366080 -0.606835
O12   O     O_2   0.175306 0.680480 0.647662 -0.623737
Zn1   Zn    Zn3+2 0.353060 0.521920 0.514770 0.980459
Zn2   Zn    Zn3+2 0.646940 0.478080 0.485230 0.952175

loop_
_geom_bond_atom_site_label_1
_geom_bond_atom_site_label_2
_ccdc_geom_bond_type
O5    Zn2   S    
C31   H46   S    
C4    O7    A    
C27   O4    S    
C19   C20   S    
C17   H9    S    
N2    Zn1   S    
C20   H17   S    
C18   H8    S    
C30   H32   S    
C6    H49   S    
C32   H42   S    
C12   C23   S    
O9    Zn2   S    
C37   C38   T    
O7    Zn2   S    
C28   C29   S    
C26   H22   S    
C16   H11   S    
C10   C15   S    
C14   C36   T    
C21   H15   S    
C33   H39   S    
C31   H44   S    
C13   C23   S    
O11   Zn2   S    
C34   C35   S    
C26   H25   S    
C15   C37   S    
C24   H28   S    
C11   C15   S    
C2    C39   D    
C7    H48   S    
C12   C16   S    
C9    O11   A    
C22   N2    S    
C13   C28   S    
C35   H4    S    
H21   O2    S    
O8    Zn1   S    
C4    O6    A    
C10   H12   S    
C18   H7    S    
C15   C35   S    
C13   H3    S    
C30   H31   S    
C19   H19   S    
C25   H26   S    
C24   C25   S    
C3    C8    S    
C17   H10   S    
C21   H16   S    
C1    C39   S    
C33   H40   S    
C29   H35   S    
C10   C24   S    
C25   C26   S    
C6    N1    D    
C24   H29   S    
C22   O12   D    
C12   H1    S    
C9    C14   S    
C29   C30   S    
C31   C32   S    
C11   C27   S    
C23   C34   S    
C7    N2    D    
C17   C18   S    
C34   H5    S    
C28   H38   S    
C2    H34   S    
C10   C12   S    
C4    C38   S    
O10   Zn1   S    
C22   O2    S    
C31   C35   S    
C2    C5    S    
C28   H37   S    
C18   H6    S    
C20   H18   S    
C26   H24   S    
C8    O8    A    
C25   H27   S    
C16   H13   S    
N1    Zn2   S    
C3    C5    D    
C19   C34   S    
C30   H33   S    
C33   H41   S    
C6    C7    S    
C29   H36   S    
C1    O1    A    
C32   H43   S    
C19   H20   S    
C32   C33   S    
C8    O9    A    
C21   H14   S    
C11   C13   S    
C16   C17   S    
C1    O5    A    
C5    H23   S    
C11   H2    S    
O6    Zn1   S    
O1    Zn1   S    
C20   C21   S    
C9    O10   A    
C23   C36   S    
H30   O4    S    
C3    H45   S    
C27   O3    D    
C39   H47   S    
H50   N1    S    
