data_mof_unit_44229.cif
_audit_creation_date              2012-12-11T14:01:45-0500
_audit_creation_method            fapswitch 2.2
_symmetry_space_group_name_H-M    P1
_symmetry_Int_Tables_number       1
_space_group_crystal_system       triclinic
_cell_length_a                    18.968999
_cell_length_b                    11.027308
_cell_length_c                    18.848188
_cell_angle_alpha                 89.628963
_cell_angle_beta                  90.504831
_cell_angle_gamma                 89.953969
_cell_volume                      3942.37015373

loop_
_atom_site_label
_atom_site_type_symbol
_atom_type_description
_atom_site_fract_x
_atom_site_fract_y
_atom_site_fract_z
_atom_type_partial_charge
C1    C     C_R   0.272299 0.040897 0.853495 0.574482
C2    C     C_R   0.727869 0.042267 0.146715 0.578017
C3    C     C_R   0.771898 0.542196 0.853116 0.575200
C4    C     C_R   0.229182 0.546977 0.149868 0.581310
C5    C     C_R   0.495681 0.058347 0.068694 -0.078230
C6    C     C_R   0.523035 0.048275 0.923879 -0.083159
C7    C     C_R   0.987807 0.553880 0.070847 -0.079082
C8    C     C_R   0.016297 0.551810 0.926163 -0.073885
C9    C     C_R   0.994975 0.662832 0.033656 -0.129233
C10   C     C_R   0.011180 0.661739 0.961891 -0.125086
C11   C     C_R   0.506337 0.165022 0.030124 -0.130099
C12   C     C_R   0.521871 0.159748 0.958279 -0.129653
C13   C     C_2   0.270311 0.632335 0.926589 -0.098531
C14   C     C_2   0.748605 0.583750 0.079056 -0.136475
C15   C     C_2   0.750216 0.079373 0.919580 -0.134544
C16   C     C_2   0.249874 0.078790 0.080819 -0.136857
C17   C     C_2   0.252483 0.598958 0.083909 0.016048
C18   C     C_2   0.743357 0.597013 0.917397 0.011861
C19   C     C_2   0.755280 0.095285 0.081235 0.013229
C20   C     C_2   0.245078 0.091803 0.919057 0.014157
C21   C     C_2   0.278286 0.522121 0.034389 -0.020676
C22   C     C_2   0.700878 0.533163 0.962319 -0.026446
C23   C     C_2   0.796564 0.029219 0.036759 -0.030583
C24   C     C_2   0.202944 0.026739 0.963660 -0.030498
C25   C     C_2   0.254678 0.533182 0.961121 -0.153740
C26   C     C_2   0.692435 0.570637 0.036076 -0.147024
C27   C     C_2   0.805782 0.066971 0.963175 -0.147358
C28   C     C_2   0.194138 0.063025 0.037651 -0.147253
C29   C     C_2   0.510647 0.839277 0.583892 -0.112941
C30   C     C_2   0.513371 0.829085 0.427811 -0.093788
C31   C     C_2   0.010647 0.339276 0.583892 -0.112775
C32   C     C_2   0.013372 0.329085 0.427811 -0.093598
C33   C     C_2   0.543832 0.747769 0.472040 -0.154093
C34   C     C_2   0.529071 0.741541 0.547295 -0.165293
C35   C     C_2   0.043832 0.247768 0.472040 -0.154104
C36   C     C_2   0.029071 0.241541 0.547295 -0.165281
C37   C     C_2   0.246472 0.581231 0.578498 -0.105227
C38   C     C_2   0.760659 0.547945 0.407269 -0.115408
C39   C     C_2   0.746471 0.081228 0.578499 -0.105080
C40   C     C_2   0.260660 0.047942 0.407267 -0.115741
C41   C     C_2   0.210367 0.483207 0.435744 -0.009251
C42   C     C_2   0.771931 0.535823 0.567178 0.019769
C43   C     C_2   0.710368 0.983204 0.435745 -0.009935
C44   C     C_2   0.271931 0.035818 0.567177 0.019646
C45   C     C_R   0.472116 0.821217 0.853305 0.533788
C46   C     C_R   0.527825 0.822865 0.146846 0.540146
C47   C     C_R   0.972215 0.321610 0.853133 0.536038
C48   C     C_R   0.027803 0.322130 0.146811 0.541679
C49   C     C_2   0.168775 0.553883 0.475586 -0.136920
C50   C     C_2   0.824204 0.525919 0.519493 -0.146537
C51   C     C_2   0.668774 0.053875 0.475588 -0.136865
C52   C     C_2   0.324204 0.025915 0.519493 -0.146612
C53   C     C_2   0.180842 0.575141 0.551420 -0.160123
C54   C     C_2   0.818249 0.569087 0.446433 -0.165387
C55   C     C_2   0.680841 0.075132 0.551423 -0.160038
C56   C     C_2   0.318249 0.069083 0.446432 -0.165377
C57   C     C_R   0.262773 0.640387 0.852166 0.538994
C58   C     C_R   0.738750 0.636997 0.148569 0.542639
C59   C     C_R   0.760882 0.135527 0.850860 0.543566
C60   C     C_R   0.239096 0.135711 0.149164 0.543272
C61   C     C_R   0.289163 0.002831 0.639600 0.576015
C62   C     C_R   0.706098 0.990698 0.358072 0.598588
C63   C     C_R   0.789163 0.502833 0.639600 0.575677
C64   C     C_R   0.206098 0.490698 0.358072 0.597524
C65   C     C_R   0.471767 0.824646 0.649151 0.542901
C66   C     C_R   0.532399 0.823083 0.353754 0.544240
C67   C     C_R   0.971767 0.324646 0.649151 0.542946
C68   C     C_R   0.032399 0.323083 0.353754 0.544658
C69   C     C_R   0.260089 0.637455 0.646122 0.548886
C70   C     C_R   0.742299 0.628191 0.348612 0.532629
C71   C     C_R   0.760089 0.137453 0.646122 0.547875
C72   C     C_R   0.242299 0.128192 0.348612 0.532019
C73   C     C_R   0.495995 0.833507 0.075038 -0.015134
C74   C     C_R   0.502997 0.826654 0.925772 -0.012671
C75   C     C_R   0.996620 0.329678 0.074605 -0.012603
C76   C     C_R   0.003341 0.328328 0.925320 -0.012810
C77   C     C_R   0.500645 0.943700 0.035802 0.006967
C78   C     C_R   0.508599 0.939473 0.961108 0.005345
C79   C     C_R   0.996870 0.441219 0.036576 0.007483
C80   C     C_R   0.005160 0.440367 0.961938 0.007819
C81   C     C_R   0.501920 0.718260 0.966510 0.000855
C82   C     C_R   0.486221 0.724271 0.038503 -0.006201
C83   C     C_R   0.006361 0.218827 0.964459 -0.002567
C84   C     C_R   0.991541 0.219735 0.036791 -0.002562
Cr1   Cr    Cr6+3 0.230530 0.836340 0.748870 0.999166
Cr2   Cr    Cr6+3 0.769470 0.836340 0.251130 0.998648
Cr3   Cr    Cr6+3 0.730530 0.336340 0.748870 1.000783
Cr4   Cr    Cr6+3 0.269470 0.336340 0.251130 0.999271
Cr5   Cr    Cr6+3 0.387420 0.989430 0.750820 1.008280
Cr6   Cr    Cr6+3 0.612580 0.989430 0.249180 1.004415
Cr7   Cr    Cr6+3 0.887420 0.489430 0.750820 1.008507
Cr8   Cr    Cr6+3 0.112580 0.489430 0.249180 1.004956
Cr9   Cr    Cr6+3 0.385640 0.677860 0.749230 1.009081
Cr10  Cr    Cr6+3 0.614360 0.677860 0.250770 1.005645
Cr11  Cr    Cr6+3 0.885640 0.177860 0.749230 1.008070
Cr12  Cr    Cr6+3 0.114360 0.177860 0.250770 1.003474
H1    H     H_    0.127632 0.608560 0.450817 0.141940
H2    H     H_    0.876598 0.498647 0.537306 0.115543
H3    H     H_    0.627628 0.108547 0.450820 0.141919
H4    H     H_    0.376599 0.998645 0.537305 0.115518
H5    H     H_    0.136057 0.605063 0.582331 0.146906
H6    H     H_    0.859269 0.630011 0.427999 0.153492
H7    H     H_    0.636056 0.105049 0.582335 0.146768
H8    H     H_    0.359268 0.130010 0.428000 0.153570
H9    H     H_    0.292452 0.561157 0.546927 0.117491
H10   H     H_    0.722311 0.480700 0.423693 0.118117
H11   H     H_    0.792452 0.061159 0.546928 0.117670
H12   H     H_    0.222313 0.980694 0.423690 0.117969
H13   H     H_    0.481285 0.066969 0.123803 0.131042
H14   H     H_    0.536830 0.047813 0.868313 0.127251
H15   H     H_    0.973247 0.558797 0.126097 0.128857
H16   H     H_    0.030727 0.554836 0.870791 0.128772
H17   H     H_    0.988690 0.748362 0.060787 0.099536
H18   H     H_    0.018951 0.746360 0.933591 0.101274
H19   H     H_    0.503042 0.252028 0.056194 0.100515
H20   H     H_    0.532054 0.242404 0.928838 0.104315
H21   H     H_    0.229209 0.458328 0.934290 0.115681
H22   H     H_    0.639213 0.584334 0.055317 0.158354
H23   H     H_    0.858941 0.083722 0.944880 0.154131
H24   H     H_    0.140864 0.076664 0.056505 0.154504
H25   H     H_    0.303836 0.700691 0.950704 0.107578
H26   H     H_    0.801738 0.570127 0.059457 0.111523
H27   H     H_    0.696921 0.063736 0.938303 0.112472
H28   H     H_    0.303236 0.064889 0.061987 0.109009
H29   H     H_    0.577251 0.676034 0.451698 0.152789
H30   H     H_    0.528346 0.651708 0.571322 0.153977
H31   H     H_    0.077250 0.176032 0.451698 0.152793
H32   H     H_    0.028347 0.151707 0.571323 0.153961
H33   H     H_    0.480129 0.902296 0.446341 0.087705
H34   H     H_    0.515327 0.929733 0.561202 0.097118
H35   H     H_    0.980130 0.402297 0.446341 0.087692
H36   H     H_    0.015327 0.429733 0.561201 0.097118
O1    O     O_R   0.215090 0.709860 0.828130 -0.529721
O2    O     O_R   0.784910 0.709860 0.171870 -0.532298
O3    O     O_R   0.715090 0.209860 0.828130 -0.532354
O4    O     O_R   0.284910 0.209860 0.171870 -0.530350
O5    O     O_R   0.445660 0.919250 0.676780 -0.522146
O6    O     O_R   0.554340 0.919250 0.323220 -0.522255
O7    O     O_R   0.945660 0.419250 0.676780 -0.522336
O8    O     O_R   0.054340 0.419250 0.323220 -0.522382
O9    O     O_R   0.456260 0.718170 0.670000 -0.512103
O10   O     O_R   0.543740 0.718170 0.330000 -0.510739
O11   O     O_R   0.956260 0.218170 0.670000 -0.512234
O12   O     O_R   0.043740 0.218170 0.330000 -0.510572
O13   O     O_R   0.320940 0.626760 0.674370 -0.497411
O14   O     O_R   0.679060 0.626760 0.325630 -0.507068
O15   O     O_R   0.820940 0.126760 0.674370 -0.497931
O16   O     O_R   0.179060 0.126760 0.325630 -0.507588
O17   O     O_3   0.334530 0.834540 0.749640 -0.265382
O18   O     O_3   0.665470 0.834540 0.250360 -0.271505
O19   O     O_3   0.834530 0.334540 0.749640 -0.262298
O20   O     O_3   0.165470 0.334540 0.250360 -0.269655
O21   O     O_R   0.236990 0.958390 0.823710 -0.512658
O22   O     O_R   0.763010 0.958390 0.176290 -0.509102
O23   O     O_R   0.736990 0.458390 0.823710 -0.509341
O24   O     O_R   0.263010 0.458390 0.176290 -0.509647
O25   O     O_R   0.332380 0.074750 0.830850 -0.506326
O26   O     O_R   0.667620 0.074750 0.169150 -0.508127
O27   O     O_R   0.832380 0.574750 0.830850 -0.507051
O28   O     O_R   0.167620 0.574750 0.169150 -0.510126
O29   O     O_R   0.445800 0.917770 0.825070 -0.504106
O30   O     O_R   0.554200 0.917770 0.174930 -0.507064
O31   O     O_R   0.945800 0.417770 0.825070 -0.505260
O32   O     O_R   0.054200 0.417770 0.174930 -0.502539
O33   O     O_R   0.456410 0.716580 0.829970 -0.521871
O34   O     O_R   0.543590 0.716580 0.170030 -0.515968
O35   O     O_R   0.956410 0.216580 0.829970 -0.523006
O36   O     O_R   0.043590 0.216580 0.170030 -0.520129
O37   O     O_R   0.321080 0.625290 0.822650 -0.494952
O38   O     O_R   0.678920 0.625290 0.177350 -0.493797
O39   O     O_R   0.821080 0.125290 0.822650 -0.494834
O40   O     O_R   0.178920 0.125290 0.177350 -0.495425
O41   O     O_R   0.214930 0.711450 0.668160 -0.519270
O42   O     O_R   0.785070 0.711450 0.331840 -0.529270
O43   O     O_R   0.714930 0.211450 0.668160 -0.520025
O44   O     O_R   0.285070 0.211450 0.331840 -0.529187
O45   O     O_R   0.236850 0.959870 0.675420 -0.500687
O46   O     O_R   0.763150 0.959870 0.324580 -0.493482
O47   O     O_R   0.736850 0.459870 0.675420 -0.501063
O48   O     O_R   0.263150 0.459870 0.324580 -0.495689
O49   O     O_R   0.332230 0.076350 0.670880 -0.511822
O50   O     O_R   0.667770 0.076350 0.329120 -0.522800
O51   O     O_R   0.832230 0.576350 0.670880 -0.512397
O52   O     O_R   0.167770 0.576350 0.329120 -0.525440
C85   C     C_3   0.515480 0.594801 0.934338 -0.368322
H37   H     H_    0.551659 0.602544 0.888538 0.149683
H38   H     H_    0.541590 0.534214 0.973392 0.105531
H39   H     H_    0.465147 0.551168 0.918137 0.157656
C86   C     C_3   0.456415 0.614022 0.075214 -0.379458
H40   H     H_    0.426360 0.638922 0.123324 0.146376
H41   H     H_    0.419036 0.571007 0.038245 0.129469
H42   H     H_    0.498644 0.548098 0.089231 0.140558
C87   C     C_3   0.026064 0.099999 0.929934 -0.373896
H43   H     H_    0.063204 0.115565 0.885554 0.149232
H44   H     H_    0.052793 0.040581 0.968770 0.111293
H45   H     H_    0.978665 0.050431 0.911144 0.145654
C88   C     C_3   0.970602 0.102057 0.072872 -0.372969
H46   H     H_    0.933835 0.119343 0.117249 0.150718
H47   H     H_    0.943141 0.042963 0.034896 0.111827
H48   H     H_    0.017580 0.050950 0.091890 0.145803
C89   C     C_3   0.257052 0.385398 0.467484 -0.387959
H49   H     H_    0.313469 0.406732 0.458477 0.144220
H50   H     H_    0.247708 0.368122 0.524616 0.134709
H51   H     H_    0.244053 0.299771 0.441490 0.146705
C90   C     C_3   0.697929 0.581156 0.550929 -0.379355
H52   H     H_    0.698554 0.661228 0.515627 0.121305
H53   H     H_    0.665803 0.507788 0.527015 0.118748
H54   H     H_    0.670987 0.610337 0.600039 0.149950
C91   C     C_3   0.757057 0.885401 0.467484 -0.388179
H55   H     H_    0.813473 0.906742 0.458476 0.144241
H56   H     H_    0.747715 0.868122 0.524615 0.134737
H57   H     H_    0.744061 0.799772 0.441490 0.146567
C92   C     C_3   0.197928 0.081146 0.550927 -0.379311
H58   H     H_    0.198552 0.161219 0.515626 0.121373
H59   H     H_    0.165805 0.007775 0.527011 0.118705
H60   H     H_    0.170984 0.110323 0.600036 0.149974
C93   C     C_3   0.321311 0.410620 0.051874 -0.378279
H61   H     H_    0.355478 0.387748 0.006393 0.107236
H62   H     H_    0.357642 0.425435 0.097403 0.150478
H63   H     H_    0.285776 0.334706 0.064274 0.174509
C94   C     C_3   0.664122 0.416685 0.942636 -0.373178
H64   H     H_    0.629546 0.384594 0.986069 0.098932
H65   H     H_    0.630137 0.429876 0.895028 0.145463
H66   H     H_    0.703685 0.345454 0.932690 0.174650
C95   C     C_3   0.831645 0.910779 0.056855 -0.371789
H67   H     H_    0.866528 0.878529 0.013951 0.099012
H68   H     H_    0.865567 0.921173 0.104666 0.151553
H69   H     H_    0.790931 0.841364 0.066318 0.173813
C96   C     C_3   0.164902 0.912607 0.942436 -0.374828
H70   H     H_    0.129216 0.880762 0.984984 0.098599
H71   H     H_    0.131841 0.927593 0.894355 0.149791
H72   H     H_    0.203973 0.841341 0.932653 0.171731
C97   C     C_3   0.221615 0.722248 0.066320 -0.401903
H73   H     H_    0.262543 0.783800 0.045124 0.116527
H74   H     H_    0.176647 0.710090 0.029215 0.149001
H75   H     H_    0.201426 0.768708 0.114187 0.148755
C98   C     C_3   0.768880 0.722748 0.934386 -0.401076
H76   H     H_    0.731407 0.770821 0.969259 0.135217
H77   H     H_    0.821916 0.715534 0.959068 0.137728
H78   H     H_    0.772842 0.777860 0.885037 0.142165
C99   C     C_3   0.729257 0.220403 0.061951 -0.401041
H79   H     H_    0.768293 0.269613 0.029026 0.135192
H80   H     H_    0.677992 0.211796 0.033862 0.137456
H81   H     H_    0.721397 0.275361 0.110440 0.143877
C100  C     C_3   0.271595 0.215045 0.937871 -0.409044
H82   H     H_    0.231190 0.262764 0.969243 0.129781
H83   H     H_    0.322196 0.204641 0.967066 0.137625
H84   H     H_    0.280841 0.270334 0.889355 0.139154

loop_
_geom_bond_atom_site_label_1
_geom_bond_atom_site_label_2
_ccdc_geom_bond_type
C16   C28   D    
C71   O15   A    
C38   C70   S    
C100  H83   S    
Cr10  O14   S    
C95   H68   S    
C14   H26   S    
C37   C69   S    
C86   H42   S    
C6    H14   S    
C89   H49   S    
Cr9   O17   S    
C35   C36   S    
Cr6   O18   S    
Cr7   O31   S    
Cr10  O34   S    
C81   C82   A    
C89   H50   S    
Cr1   O1    S    
Cr9   O9    S    
C94   H66   S    
C90   H52   S    
C58   O2    A    
C93   H63   S    
C61   O45   A    
C31   H36   S    
Cr9   O37   S    
C50   C54   S    
C75   C79   A    
C15   H27   S    
Cr6   O30   S    
Cr4   O24   S    
C58   O38   A    
C95   H67   S    
C47   C76   S    
C5    C11   A    
C96   H72   S    
Cr7   O51   S    
Cr2   O18   S    
C6    C12   A    
C64   O48   A    
C75   C84   A    
C85   H38   S    
Cr12  O12   S    
C66   O6    A    
Cr12  O20   S    
C55   H7    S    
Cr2   O46   S    
C91   H57   S    
C63   O47   A    
C42   C90   S    
C86   H41   S    
C99   H79   S    
C16   C60   S    
C41   C49   D    
C88   H47   S    
C45   O29   A    
C96   H71   S    
Cr6   O6    S    
Cr12  O40   S    
Cr2   O2    S    
C39   C55   D    
Cr6   O50   S    
C53   H5    S    
C40   C56   D    
C38   C54   D    
C66   O10   A    
Cr8   O20   S    
Cr1   O41   S    
C76   C80   A    
Cr12  O36   S    
Cr9   O13   S    
C70   O14   A    
C23   C27   S    
C67   O7    A    
C97   H73   S    
C60   O4    A    
Cr7   O27   S    
C10   H18   S    
C18   C98   S    
C34   H30   S    
C40   H12   S    
Cr8   O32   S    
C47   O31   A    
C44   C52   D    
Cr5   O17   S    
Cr9   O33   S    
C2    O22   A    
C21   C93   S    
C98   H76   S    
C41   C89   S    
C3    O27   A    
Cr4   O20   S    
C48   C75   S    
C57   O1    A    
C67   O11   A    
C36   H32   S    
C69   O41   A    
C59   O39   A    
C76   C83   A    
Cr5   O29   S    
C3    C18   S    
C23   C95   S    
Cr4   O48   S    
C57   O37   A    
C92   H59   S    
C51   H3    S    
C14   C58   S    
C22   C94   S    
C50   H2    S    
C63   O51   A    
C44   C92   S    
C60   O40   A    
C32   C35   D    
Cr3   O3    S    
Cr11  O15   S    
Cr4   O4    S    
C91   H55   S    
C65   O9    A    
C28   H24   S    
C46   O30   A    
C81   C85   S    
C19   C99   S    
C19   C23   D    
C85   H39   S    
C51   C55   S    
C87   H44   S    
C93   H61   S    
C77   C78   A    
C49   H1    S    
C29   C34   D    
C52   H4    S    
C17   C21   D    
C71   O43   A    
Cr12  O16   S    
C25   H21   S    
C45   C74   S    
C99   H80   S    
Cr10  O10   S    
Cr6   O26   S    
C88   H48   S    
C31   C67   S    
C37   C53   D    
C37   H9    S    
C96   H70   S    
C62   O50   A    
C94   H64   S    
C47   O35   A    
C15   C27   D    
C83   C84   A    
C48   O36   A    
C92   H58   S    
C2    O26   A    
C87   H45   S    
C38   H10   S    
C33   H29   S    
C33   C34   S    
Cr1   O21   S    
C14   C26   D    
C1    O21   A    
C70   O42   A    
C56   H8    S    
C30   C66   S    
C17   C97   S    
C42   C50   D    
Cr7   O7    S    
C4    C17   S    
C8    C10   A    
C20   C100  S    
C4    O24   A    
C24   C96   S    
Cr5   O5    S    
C98   H77   S    
C82   C86   S    
Cr8   O52   S    
C84   C88   S    
C89   H51   S    
C29   C65   S    
C68   O8    A    
Cr11  O19   S    
C3    O23   A    
C74   C81   A    
C5    C77   A    
C95   H69   S    
Cr8   O8    S    
C73   C82   A    
C35   H31   S    
C11   H19   S    
C7    C79   A    
C9    C10   A    
C92   H60   S    
C86   H40   S    
C7    C9    A    
C21   C25   S    
C98   H78   S    
C1    C20   S    
C73   C77   A    
C40   C72   S    
C30   C33   D    
C13   H25   S    
C2    C19   S    
C18   C22   D    
C15   C59   S    
C54   H6    S    
Cr11  O11   S    
C24   C28   S    
C13   C25   D    
Cr11  O35   S    
C39   H11   S    
C11   C12   A    
Cr5   O25   S    
C48   O32   A    
C69   O13   A    
C27   H23   S    
C44   C61   S    
C93   H62   S    
C30   H33   S    
Cr3   O43   S    
C74   C78   A    
C61   O49   A    
Cr4   O44   S    
C26   H22   S    
C32   C68   S    
Cr8   O28   S    
C99   H81   S    
C9    H17   S    
C1    O25   A    
C62   O46   A    
Cr2   O22   S    
C65   O5    A    
C94   H65   S    
C72   O16   A    
Cr10  O38   S    
Cr7   O19   S    
C43   C51   D    
C85   H37   S    
C4    O28   A    
Cr11  O39   S    
C49   C53   S    
C46   C73   S    
C59   O3    A    
C91   H56   S    
C8    H16   S    
C7    H15   S    
C68   O12   A    
Cr3   O23   S    
C72   O44   A    
C16   H28   S    
C88   H46   S    
C43   C91   S    
C97   H75   S    
Cr1   O17   S    
C6    C78   A    
C46   O34   A    
Cr3   O47   S    
C79   C80   A    
C64   O52   A    
C29   H34   S    
Cr10  O18   S    
C13   C57   S    
Cr1   O45   S    
C87   H43   S    
C22   C26   S    
C100  H84   S    
C97   H74   S    
C8    C80   A    
C39   C71   S    
C31   C36   D    
Cr3   O19   S    
C90   H54   S    
C5    H13   S    
C41   C64   S    
Cr2   O42   S    
C100  H82   S    
C90   H53   S    
C45   O33   A    
C42   C63   S    
C20   C24   D    
C32   H35   S    
C52   C56   S    
C43   C62   S    
Cr5   O49   S    
C83   C87   S    
C12   H20   S    
