data_mof_unit_40570.cif
_audit_creation_date              2012-12-11T14:21:02-0500
_audit_creation_method            fapswitch 2.2
_symmetry_space_group_name_H-M    P1
_symmetry_Int_Tables_number       1
_space_group_crystal_system       triclinic
_cell_length_a                    21.971734
_cell_length_b                    7.275348
_cell_length_c                    15.513971
_cell_angle_alpha                 90.000378
_cell_angle_beta                  109.683839
_cell_angle_gamma                 89.999825
_cell_volume                      2335.02566211

loop_
_atom_site_label
_atom_site_type_symbol
_atom_type_description
_atom_site_fract_x
_atom_site_fract_y
_atom_site_fract_z
_atom_type_partial_charge
O1    O     O_R   0.584770 0.505770 0.002090 -0.545589
O2    O     O_R   0.415230 0.005770 0.997910 -0.545593
O3    O     O_R   0.467060 0.173340 0.861950 -0.532721
O4    O     O_R   0.532940 0.673340 0.138050 -0.532725
C1    C     C_R   0.457356 0.345720 0.827489 0.817863
C2    C     C_R   0.542641 0.845722 0.172511 0.817870
O5    O     O_R   0.587510 0.175890 0.993210 -0.548370
O6    O     O_R   0.412490 0.675890 0.006790 -0.548378
O7    O     O_R   0.536540 0.008150 0.130100 -0.561735
O8    O     O_R   0.463460 0.508150 0.869900 -0.561750
C3    C     C_R   0.612415 0.345258 0.995988 0.728750
C4    C     C_R   0.387587 0.845260 0.004021 0.728748
O9    O     O_3   0.483140 0.340040 0.044760 -0.399221
O10   O     O_3   0.516860 0.840040 0.955240 -0.399216
V1    V     V_3+5 0.503130 0.064190 0.991700 1.391798
V2    V     V_3+5 0.496870 0.564190 0.008300 1.391775
C5    C     C_2   0.215511 0.730570 0.009292 -0.123748
C6    C     C_2   0.784496 0.230562 0.990733 -0.123751
C7    C     C_2   0.178905 0.884744 0.990837 -0.319350
C8    C     C_2   0.821097 0.384744 0.009172 -0.319501
H1    H     H_    0.194443 0.603646 0.023050 0.143267
H2    H     H_    0.805565 0.103634 0.976982 0.143303
H3    H     H_    0.198631 0.013031 0.976581 0.129625
H4    H     H_    0.801370 0.513036 0.023419 0.129630
C9    C     C_2   0.284365 0.718108 0.013361 -0.126326
C10   C     C_2   0.715642 0.218102 0.986664 -0.126402
C11   C     C_2   0.320946 0.862593 0.006741 -0.293419
C12   C     C_2   0.679061 0.362588 0.993286 -0.293375
H5    H     H_    0.305234 0.581227 0.021462 0.133766
H6    H     H_    0.694771 0.081222 0.978558 0.133779
H7    H     H_    0.301630 0.000716 0.001445 0.127709
H8    H     H_    0.698379 0.500709 0.998591 0.127722
C13   C     C_R   0.925655 0.874181 0.725625 -0.254076
C14   C     C_R   0.074337 0.374179 0.274374 -0.254084
C15   C     C_R   0.567106 0.861672 0.271814 -0.276277
C16   C     C_R   0.432886 0.361665 0.728187 -0.276283
C17   C     C_R   0.923044 0.694526 0.593815 -0.236057
C18   C     C_R   0.076933 0.194549 0.406183 -0.236038
C19   C     C_R   0.957715 0.768192 0.678938 0.409048
C20   C     C_R   0.042272 0.268176 0.321047 0.409033
C21   C     C_R   0.861312 0.928219 0.680509 0.331222
C22   C     C_R   0.138674 0.428245 0.319504 0.331253
C23   C     C_R   0.822550 0.837677 0.598410 -0.038352
C24   C     C_R   0.177431 0.337714 0.401606 -0.038372
C25   C     C_R   0.856114 0.722448 0.555061 -0.065262
C26   C     C_R   0.143863 0.222494 0.444952 -0.065246
C27   C     C_R   0.752892 0.852106 0.557597 -0.085410
C28   C     C_R   0.247089 0.352134 0.442417 -0.085437
C29   C     C_R   0.722913 0.782808 0.466637 -0.077530
C30   C     C_R   0.277068 0.282828 0.533374 -0.077530
C31   C     C_R   0.756978 0.651998 0.432233 0.494897
C32   C     C_R   0.242999 0.152030 0.567779 0.494943
C33   C     C_R   0.822828 0.628256 0.475036 -0.263967
C34   C     C_R   0.177148 0.128308 0.524980 -0.263965
C35   C     C_R   0.710087 0.917326 0.603237 0.491581
C36   C     C_R   0.289893 0.417344 0.396773 0.491579
C37   C     C_R   0.643680 0.928769 0.556326 -0.241879
C38   C     C_R   0.356300 0.428781 0.443680 -0.241880
C39   C     C_R   0.617412 0.898714 0.462166 -0.141890
C40   C     C_R   0.382571 0.398718 0.537838 -0.141899
C41   C     C_R   0.658413 0.838078 0.414815 -0.099525
C42   C     C_R   0.341573 0.338077 0.585193 -0.099510
C43   C     C_R   0.550381 0.923518 0.415989 0.338809
C44   C     C_R   0.449602 0.423521 0.584010 0.338805
C45   C     C_R   0.525529 0.913950 0.319512 0.241559
C46   C     C_R   0.474459 0.413948 0.680485 0.241570
C47   C     C_R   0.633679 0.839306 0.317231 0.380110
C48   C     C_R   0.366312 0.339287 0.682776 0.380109
H9    H     H_    0.848137 0.533216 0.445091 0.134620
H10   H     H_    0.151837 0.033269 0.554923 0.134648
H11   H     H_    0.613036 0.972410 0.594423 0.180926
H12   H     H_    0.386943 0.472419 0.405579 0.180925
H13   H     H_    0.948263 0.608388 0.559757 0.143452
H14   H     H_    0.051713 0.108394 0.440232 0.143416
O11   O     O_R   0.036450 0.233070 0.130130 -0.541870
O12   O     O_R   0.963550 0.733070 0.869870 -0.541888
O13   O     O_R   0.912470 0.560570 0.006790 -0.551679
O14   O     O_R   0.087530 0.060570 0.993210 -0.551687
C49   C     C_R   0.888040 0.391246 0.005980 0.736475
C50   C     C_R   0.111960 0.891246 0.994020 0.736423
O15   O     O_R   0.032920 0.562940 0.138050 -0.541383
O16   O     O_R   0.967080 0.062940 0.861950 -0.541400
O17   O     O_R   0.084790 0.730500 0.002090 -0.529222
O18   O     O_R   0.915210 0.230500 0.997910 -0.529206
C51   C     C_R   0.045411 0.393528 0.173873 0.786284
C52   C     C_R   0.954589 0.893527 0.826126 0.786188
O19   O     O_3   0.016820 0.396170 0.955260 -0.387993
O20   O     O_3   0.983180 0.896170 0.044740 -0.387960
V3    V     V_3+5 0.996880 0.672090 0.008300 1.433259
V4    V     V_3+5 0.003120 0.172090 0.991700 1.433242
O21   O     O_3   0.022794 0.729512 0.718043 -0.547591
C53   C     C_3   0.057715 0.885029 0.706510 -0.266351
H15   H     H_    0.109452 0.864240 0.745754 0.170828
H16   H     H_    0.043006 0.012961 0.733729 0.128231
H17   H     H_    0.052634 0.903282 0.633182 0.137716
O22   O     O_3   0.977205 0.229391 0.281889 -0.547596
C54   C     C_3   0.942228 0.384809 0.293395 -0.266340
H18   H     H_    0.890550 0.364353 0.253688 0.170809
H19   H     H_    0.957144 0.513036 0.266666 0.128045
H20   H     H_    0.946994 0.402375 0.366649 0.137912
O23   O     O_3   0.838888 0.072139 0.718134 -0.529016
C55   C     C_3   0.844426 0.236809 0.673237 0.168800
H21   H     H_    0.798909 0.261308 0.615306 0.119491
H22   H     H_    0.885399 0.236849 0.645772 0.052483
C56   C     C_3   0.856090 0.394217 0.741656 -0.299902
H23   H     H_    0.905626 0.382824 0.792326 0.211400
H24   H     H_    0.852559 0.526231 0.705279 0.138032
C57   C     C_3   0.807482 0.393007 0.792146 -0.645984
H25   H     H_    0.758000 0.414515 0.744586 0.212493
H26   H     H_    0.818889 0.506503 0.842337 0.169051
H27   H     H_    0.809304 0.261207 0.828643 0.270135
O24   O     O_3   0.161096 0.572175 0.281887 -0.529011
C58   C     C_3   0.155565 0.736831 0.326798 0.168780
H28   H     H_    0.201089 0.761330 0.384716 0.119490
H29   H     H_    0.114602 0.736856 0.354284 0.052483
C59   C     C_3   0.143884 0.894250 0.258384 -0.299903
H30   H     H_    0.094337 0.882884 0.207744 0.211404
H31   H     H_    0.147438 0.026257 0.294774 0.138033
C60   C     C_3   0.192462 0.893026 0.207845 -0.645912
H32   H     H_    0.241957 0.914476 0.255375 0.212496
H33   H     H_    0.181049 0.006550 0.157669 0.169043
H34   H     H_    0.190610 0.761241 0.171324 0.270089
O25   O     O_3   0.727420 0.546523 0.355222 -0.530048
C61   C     C_3   0.689397 0.410281 0.376739 -0.237652
H35   H     H_    0.650164 0.470717 0.397611 0.142662
H36   H     H_    0.720093 0.315424 0.429945 0.113429
H37   H     H_    0.665040 0.329070 0.314426 0.161978
O26   O     O_3   0.272559 0.046515 0.644773 -0.530043
C62   C     C_3   0.310569 0.910273 0.623227 -0.237658
H38   H     H_    0.349797 0.970709 0.602343 0.142660
H39   H     H_    0.279863 0.815433 0.570022 0.113430
H40   H     H_    0.334935 0.829042 0.685529 0.161979
O27   O     O_3   0.729679 0.971629 0.693625 -0.532256
C63   C     C_3   0.738345 0.816047 0.749874 -0.230948
H41   H     H_    0.782001 0.741988 0.749680 0.155996
H42   H     H_    0.695490 0.724209 0.728981 0.110509
H43   H     H_    0.746310 0.861800 0.821049 0.150641
O28   O     O_3   0.270299 0.471637 0.306385 -0.532246
C64   C     C_3   0.261638 0.316046 0.250141 -0.230952
H44   H     H_    0.218002 0.241930 0.250373 0.155954
H45   H     H_    0.304508 0.224266 0.271014 0.110525
H46   H     H_    0.253641 0.361791 0.178957 0.150656
O29   O     O_3   0.511897 0.979382 0.466129 -0.601839
C65   C     C_3   0.457898 0.864256 0.454039 0.139663
H47   H     H_    0.464287 0.795557 0.519406 0.157075
H48   H     H_    0.450644 0.754551 0.401608 0.165963
C66   C     C_3   0.397922 0.982740 0.435568 -0.326428
H49   H     H_    0.404839 0.070319 0.496199 0.198329
H50   H     H_    0.390730 0.070106 0.374999 0.220920
C67   C     C_3   0.337746 0.868096 0.419482 -0.866009
H51   H     H_    0.329135 0.784314 0.356903 0.280322
H52   H     H_    0.295897 0.959974 0.411582 0.226760
H53   H     H_    0.343892 0.776401 0.478522 0.230676
O30   O     O_3   0.488083 0.479390 0.533867 -0.601841
C68   C     C_3   0.542080 0.364257 0.545947 0.139651
H54   H     H_    0.535683 0.295553 0.480579 0.157076
H55   H     H_    0.549337 0.254554 0.598380 0.165968
C69   C     C_3   0.602056 0.482731 0.564407 -0.326411
H56   H     H_    0.595134 0.570308 0.503775 0.198330
H57   H     H_    0.609256 0.570098 0.624978 0.220915
C70   C     C_3   0.662228 0.368074 0.580477 -0.866039
H58   H     H_    0.670844 0.284292 0.643057 0.280320
H59   H     H_    0.704078 0.459940 0.588369 0.226768
H60   H     H_    0.656071 0.276377 0.521435 0.230680
O31   O     O_3   0.672452 0.820124 0.262878 -0.541174
C71   C     C_3   0.722339 0.953488 0.283643 0.109066
H61   H     H_    0.769037 0.880193 0.297514 0.158241
H62   H     H_    0.726813 0.039643 0.344739 0.082510
C72   C     C_3   0.712637 0.079843 0.201832 -0.309467
H63   H     H_    0.707673 0.996006 0.139994 0.200081
H64   H     H_    0.667599 0.160723 0.188856 0.193657
C73   C     C_3   0.770280 0.209323 0.220044 -0.800366
H65   H     H_    0.783532 0.271365 0.289316 0.248545
H66   H     H_    0.758728 0.322968 0.169708 0.252262
H67   H     H_    0.812333 0.131445 0.214708 0.235081
O32   O     O_3   0.327545 0.320068 0.737133 -0.541170
C74   C     C_3   0.277671 0.453470 0.716407 0.109009
H68   H     H_    0.230972 0.380209 0.702600 0.158248
H69   H     H_    0.273165 0.539573 0.655283 0.082530
C75   C     C_3   0.287433 0.579888 0.798211 -0.309535
H70   H     H_    0.292426 0.496101 0.860073 0.200081
H71   H     H_    0.332476 0.660715 0.811125 0.193653
C76   C     C_3   0.229811 0.709434 0.780046 -0.800211
H72   H     H_    0.216492 0.771308 0.710732 0.248474
H73   H     H_    0.241424 0.823203 0.830313 0.252279
H74   H     H_    0.187782 0.631659 0.785530 0.235059
O33   O     O_3   0.459150 0.930130 0.274987 -0.585114
C77   C     C_3   0.439628 0.101097 0.229702 0.078991
H75   H     H_    0.386266 0.107744 0.211079 0.125512
H76   H     H_    0.447723 0.105328 0.163773 0.164630
C78   C     C_3   0.468212 0.273171 0.286346 -0.378556
H77   H     H_    0.459245 0.267252 0.351906 0.214740
H78   H     H_    0.521105 0.281100 0.299509 0.185599
C79   C     C_3   0.436336 0.447891 0.237464 -0.782800
H79   H     H_    0.440652 0.456990 0.168562 0.262306
H80   H     H_    0.460571 0.568497 0.278019 0.245440
H81   H     H_    0.384400 0.451255 0.230564 0.229227
O34   O     O_3   0.540838 0.430129 0.725006 -0.585112
C80   C     C_3   0.560362 0.601100 0.770286 0.079002
H82   H     H_    0.613724 0.607748 0.788901 0.125510
H83   H     H_    0.552273 0.605335 0.836220 0.164631
C81   C     C_3   0.531773 0.773168 0.713641 -0.378554
H84   H     H_    0.540735 0.767243 0.648078 0.214755
H85   H     H_    0.478881 0.781093 0.700485 0.185600
C82   C     C_3   0.563649 0.947893 0.762518 -0.782795
H86   H     H_    0.559338 0.956996 0.831423 0.262304
H87   H     H_    0.539411 0.068494 0.721963 0.245439
H88   H     H_    0.615584 0.951260 0.769412 0.229238

loop_
_geom_bond_atom_site_label_1
_geom_bond_atom_site_label_2
_ccdc_geom_bond_type
C79   H80   S    
C45   O33   S    
O23   C55   S    
C68   H55   S    
C31   O25   S    
C72   H63   S    
C66   H49   S    
O1    C3    A    
C76   H72   S    
C33   H9    S    
O26   C62   S    
C70   H60   S    
C63   H43   S    
C43   C45   A    
C70   H58   S    
C48   O32   S    
O25   C61   S    
C27   C29   A    
C82   H86   S    
O14   V4    S    
O5    C3    A    
C56   H24   S    
O13   V3    S    
O31   C71   S    
O18   V4    S    
C77   C78   S    
C14   C20   A    
C77   H76   S    
C66   H50   S    
C58   H28   S    
C61   H36   S    
C76   H73   S    
C18   H14   S    
C49   O18   A    
C64   H46   S    
C16   C46   A    
C37   C39   A    
C79   H81   S    
C15   C45   A    
C38   C40   A    
O29   C65   S    
C1    C16   S    
C44   O30   S    
C2    O7    A    
C2    C15   S    
C55   C56   S    
C40   C42   A    
C22   O24   S    
C53   H15   S    
O11   V4    S    
C70   H59   S    
C69   H57   S    
C8    H4    S    
C21   O23   S    
C74   H69   S    
C67   H53   S    
C14   C22   A    
C80   C81   S    
C30   C32   A    
O34   C80   S    
C57   H25   S    
C10   C12   D    
C69   C70   S    
C73   H67   S    
O12   V3    S    
C58   C59   S    
O15   V3    S    
C47   O31   S    
C28   C30   A    
C79   H79   S    
O2    C4    A    
C80   H82   S    
O6    V2    S    
O22   C54   S    
C68   C69   S    
C71   H62   S    
C21   C23   A    
C71   H61   S    
C55   H21   S    
C22   C24   A    
C20   O22   S    
C65   C66   S    
C19   O21   S    
O24   C58   S    
C54   H19   S    
C32   C34   A    
C54   H18   S    
C82   H87   S    
C32   O26   S    
O17   V3    S    
C56   C57   S    
C39   C41   A    
C29   C41   A    
C81   H84   S    
C4    C11   S    
C11   H7    S    
C78   H77   S    
C12   H8    S    
C66   C67   S    
O4    C2    A    
C76   H74   S    
O21   C53   S    
C5    C7    D    
C63   H42   S    
C24   C26   A    
C29   C31   A    
O16   C52   A    
C36   C38   A    
C81   C82   S    
C53   H17   S    
C5    H1    S    
C77   H75   S    
C31   C33   A    
C14   C51   S    
C44   C46   A    
O4    V2    S    
C7    H3    S    
C13   C52   S    
C78   H78   S    
C36   O28   S    
C41   C47   A    
C34   H10   S    
C15   C47   A    
O6    C4    A    
C74   C75   S    
C6    C10   S    
C26   C34   A    
C53   H16   S    
O13   C49   A    
O1    V2    S    
C13   C19   A    
C37   H11   S    
C60   H32   S    
C55   H22   S    
O2    V1    S    
C23   C25   A    
O30   C68   S    
C46   O34   S    
C60   H33   S    
C81   H85   S    
C61   H37   S    
C65   H48   S    
O32   C74   S    
C10   H6    S    
C35   C37   A    
O27   C63   S    
C30   C42   A    
C72   C73   S    
C67   H52   S    
O19   V4    S    
C17   C25   A    
O12   C52   A    
O14   C50   A    
C54   H20   S    
O3    V1    S    
C73   H65   S    
C57   H27   S    
C27   C35   A    
C62   H38   S    
C72   H64   S    
C82   H88   S    
C28   C36   A    
C17   H13   S    
C75   H71   S    
C8    C49   S    
C6    H2    S    
C60   H34   S    
O10   V1    S    
C65   H47   S    
O3    C1    A    
C64   H44   S    
C75   C76   S    
C63   H41   S    
C9    C11   D    
C56   H23   S    
C39   C43   A    
O16   V4    S    
C59   C60   S    
C42   C48   A    
C38   H12   S    
C40   C44   A    
C13   C21   A    
C62   H40   S    
O7    V1    S    
C78   C79   S    
C5    C9    S    
C1    O8    A    
C17   C19   A    
O8    V2    S    
O11   C51   A    
C18   C20   A    
C64   H45   S    
C9    H5    S    
C69   H56   S    
C57   H26   S    
C3    C12   S    
O5    V1    S    
C50   O17   A    
C73   H66   S    
C59   H31   S    
C59   H30   S    
C6    C8    D    
C7    C50   S    
C35   O27   S    
C18   C26   A    
O28   C64   S    
C25   C33   A    
O33   C77   S    
O20   V3    S    
C71   C72   S    
C74   H68   S    
O9    V2    S    
C68   H54   S    
C80   H83   S    
C43   O29   S    
C67   H51   S    
C58   H29   S    
C23   C27   A    
C16   C48   A    
O15   C51   A    
C75   H70   S    
C24   C28   A    
C61   H35   S    
C62   H39   S    
