data_mof_unit_15474.cif
_audit_creation_date              2012-12-10T17:42:43-0500
_audit_creation_method            fapswitch 2.2
_symmetry_space_group_name_H-M    P1
_symmetry_Int_Tables_number       1
_space_group_crystal_system       triclinic
_cell_length_a                    9.892584
_cell_length_b                    10.726791
_cell_length_c                    13.134026
_cell_angle_alpha                 91.29602
_cell_angle_beta                  69.907122
_cell_angle_gamma                 88.674736
_cell_volume                      1307.85607838

loop_
_atom_site_label
_atom_site_type_symbol
_atom_type_description
_atom_site_fract_x
_atom_site_fract_y
_atom_site_fract_z
_atom_type_partial_charge
C1    C     C_R   0.499136 0.740572 0.495905 0.871637
C2    C     C_R   0.368827 0.483020 0.821459 -0.118255
C3    C     C_R   0.230997 0.897820 0.511428 -0.175483
C4    C     C_R   0.420309 0.493400 0.703857 0.835291
C5    C     C_R   0.100315 0.964865 0.555617 -0.151258
C6    C     C_R   0.095289 0.079173 0.608677 -0.153415
C7    C     C_R   0.222943 0.131983 0.607533 -0.154907
C8    C     C_R   0.357434 0.069663 0.553550 0.102910
C9    C     C_R   0.360113 0.944758 0.519832 0.099048
C10   C     C_R   0.492696 0.874959 0.495243 -0.125818
C11   C     C_R   0.620723 0.934774 0.484814 -0.222124
C12   C     C_R   0.432928 0.475214 0.983576 0.084135
C13   C     C_R   0.620143 0.061679 0.496972 -0.221982
C14   C     C_R   0.489994 0.129679 0.527371 -0.132608
C15   C     C_R   0.791325 0.661684 0.645897 -0.145942
C16   C     C_R   0.496095 0.261395 0.511146 0.874535
C17   C     C_R   0.826862 0.735789 0.720717 -0.204446
C18   C     C_R   0.965905 0.731751 0.722544 -0.190645
C19   C     C_R   0.070668 0.654944 0.648464 -0.183616
C20   C     C_R   0.037817 0.577080 0.573023 0.144284
C21   C     C_R   0.893420 0.578602 0.572305 0.175160
C22   C     C_R   0.961882 0.425081 0.430784 -0.142283
C23   C     C_R   0.463690 0.440825 0.873725 0.088216
C24   C     C_R   0.105210 0.425413 0.430570 -0.111822
C25   C     C_R   0.580082 0.499540 0.295779 0.883297
C26   C     C_R   0.782250 0.377012 0.014130 -0.198745
C27   C     C_R   0.629241 0.483483 0.178588 -0.062690
C28   C     C_R   0.231155 0.531257 0.882804 -0.204753
C29   C     C_R   0.191692 0.546348 0.994569 -0.149058
C30   C     C_R   0.292325 0.522119 0.044685 -0.198205
C31   C     C_R   0.543952 0.460785 0.027739 0.079229
C32   C     C_R   0.674390 0.394737 0.968314 0.179155
C33   C     C_R   0.693576 0.345033 0.865305 -0.250626
C34   C     C_R   0.589245 0.367094 0.818677 -0.197886
C35   C     C_R   0.529435 0.512252 0.129115 -0.259496
C36   C     C_R   0.758430 0.419144 0.120302 -0.207189
H1    H     H_    0.836900 0.396292 0.158233 0.151966
H2    H     H_    0.993810 0.790811 0.779803 0.154937
H3    H     H_    0.176795 0.660794 0.650934 0.209799
H4    H     H_    0.790044 0.290422 0.820134 0.140953
H5    H     H_    0.186449 0.364441 0.373908 0.156787
H6    H     H_    0.881788 0.326068 0.969693 0.138866
H7    H     H_    0.155695 0.560911 0.844133 0.158434
H8    H     H_    0.084771 0.582216 0.042014 0.148030
H9    H     H_    0.607242 0.324343 0.739525 0.170856
H10   H     H_    0.722962 0.883842 0.464476 0.170427
H11   H     H_    0.437441 0.571407 0.173751 0.148604
H12   H     H_    0.228018 0.813210 0.466663 0.174568
H13   H     H_    0.256037 0.537688 0.131485 0.132318
H14   H     H_    0.002530 0.927097 0.549866 0.148767
H15   H     H_    0.993295 0.129122 0.646981 0.132259
H16   H     H_    0.215754 0.221985 0.648344 0.152361
H17   H     H_    0.722349 0.106558 0.479508 0.168991
H18   H     H_    0.935160 0.363923 0.374347 0.141846
H19   H     H_    0.683325 0.673746 0.648223 0.206855
H20   H     H_    0.746198 0.797899 0.776788 0.152286
N1    N     N_R   0.856860 0.501200 0.500990 -0.118778
N2    N     N_R   0.142450 0.501280 0.501020 -0.123875
O1    O     O_R   0.385310 0.683220 0.500000 -0.648905
O2    O     O_R   0.614640 0.683250 0.500010 -0.634747
O3    O     O_R   0.328400 0.499950 0.653610 -0.638679
O4    O     O_R   0.557730 0.499970 0.653620 -0.628994
O5    O     O_R   0.385360 0.316750 0.499990 -0.613275
O6    O     O_R   0.614690 0.316780 0.500000 -0.624031
O7    O     O_R   0.442270 0.500030 0.346380 -0.612603
O8    O     O_R   0.671600 0.500050 0.346390 -0.611538
Zn1   Zn    Zn3+2 0.346880 0.499980 0.499990 0.918439
Zn2   Zn    Zn3+2 0.653120 0.500020 0.500010 0.923432

loop_
_geom_bond_atom_site_label_1
_geom_bond_atom_site_label_2
_ccdc_geom_bond_type
O8    Zn2   S    
C21   N1    A    
C6    C7    A    
C3    C9    A    
C16   O5    A    
C6    H15   S    
C25   C27   S    
C2    C28   A    
C9    C10   A    
O3    Zn1   S    
C28   H7    S    
C2    C4    S    
C19   C20   A    
C12   C23   A    
O4    Zn2   S    
C3    C5    A    
C23   C34   A    
C35   H11   S    
C32   C33   A    
C22   N1    A    
C17   C18   A    
C18   H2    S    
C25   O7    A    
C7    C8    A    
C22   H18   S    
C34   H9    S    
C12   C31   A    
C13   C14   A    
C26   C32   A    
C24   H5    S    
C11   C13   A    
C17   H20   S    
C26   H6    S    
C29   C30   A    
C19   H3    S    
C27   C35   A    
O6    Zn2   S    
C31   C35   A    
C26   C36   A    
C28   C29   A    
C30   H13   S    
C7    H16   S    
C33   C34   A    
C13   H17   S    
C1    O1    A    
C29   H8    S    
C5    C6    A    
C27   C36   A    
O5    Zn1   S    
C5    H14   S    
C1    O2    A    
C33   H4    S    
C10   C11   A    
C1    C10   S    
N1    Zn2   S    
C20   N2    A    
C4    O4    A    
C3    H12   S    
C15   C21   A    
N2    Zn1   S    
C20   C21   A    
O2    Zn2   S    
C24   N2    A    
C18   C19   A    
C22   C24   A    
C2    C23   A    
C15   C17   A    
C36   H1    S    
C11   H10   S    
C8    C14   A    
C16   O6    A    
O1    Zn1   S    
C14   C16   S    
C12   C30   A    
C4    O3    A    
C25   O8    A    
C31   C32   A    
C8    C9    A    
O7    Zn1   S    
C15   H19   S    
