data_mof_unit_14344.cif
_audit_creation_date              2013-03-05T16:48:41-0500
_audit_creation_method            fapswitch 2.2
_symmetry_space_group_name_H-M    P1
_symmetry_Int_Tables_number       1
_space_group_crystal_system       triclinic
_cell_length_a                    27.728038
_cell_length_b                    9.042807
_cell_length_c                    8.089857
_cell_angle_alpha                 90.000328
_cell_angle_beta                  89.999879
_cell_angle_gamma                 89.999954
_cell_volume                      2028.44504987

loop_
_atom_site_label
_atom_site_type_symbol
_atom_site_description
_atom_site_fract_x
_atom_site_fract_y
_atom_site_fract_z
_atom_type_partial_charge
O1    O     O_R   0.500000 0.285350 0.636850 -0.613677
O2    O     O_R   0.500000 0.714650 0.363150 -0.613676
O3    O     O_R   0.500000 0.714650 0.636850 -0.613666
O4    O     O_R   0.500000 0.285350 0.363150 -0.613667
C1    C     C_R   0.500000 0.217736 0.500000 0.940674
C2    C     C_R   0.500000 0.782264 0.500000 0.940676
O5    O     O_R   0.428760 0.500000 0.636860 -0.624036
O6    O     O_R   0.571240 0.500000 0.363140 -0.624035
O7    O     O_R   0.571240 0.500000 0.636860 -0.624034
O8    O     O_R   0.428760 0.500000 0.363140 -0.624036
C3    C     C_R   0.405706 0.499999 0.500000 0.873652
C4    C     C_R   0.594293 0.499999 0.500000 0.873651
Zn1   Zn    Zn3+2 0.500000 0.500000 0.682780 0.999578
Zn2   Zn    Zn3+2 0.500000 0.500000 0.317220 0.999577
C5    C     C_R   0.177290 0.370983 0.468575 0.536338
C6    C     C_R   0.822713 0.628963 0.468611 0.536324
C7    C     C_R   0.177290 0.628950 0.531418 0.536338
C8    C     C_R   0.822712 0.370980 0.531371 0.536326
O9    O     O_2   0.202317 0.245733 0.438746 -0.533466
O10   O     O_2   0.797688 0.754226 0.438837 -0.533482
O11   O     O_2   0.202316 0.754201 0.561249 -0.533466
O12   O     O_2   0.797686 0.245719 0.561148 -0.533482
N1    N     N_R   0.201216 0.499967 0.499998 -0.364444
N2    N     N_R   0.798785 0.499973 0.499992 -0.364429
C9    C     C_R   0.277555 0.509716 0.649659 -0.094767
C10   C     C_R   0.722444 0.489938 0.649622 -0.094730
C11   C     C_R   0.277555 0.490230 0.350338 -0.094774
C12   C     C_R   0.722443 0.510023 0.350369 -0.094727
C13   C     C_R   0.327656 0.509539 0.649899 -0.204688
C14   C     C_R   0.672343 0.490136 0.649862 -0.204732
C15   C     C_R   0.327657 0.490430 0.350100 -0.204687
C16   C     C_R   0.672342 0.509843 0.350133 -0.204731
C17   C     C_R   0.252567 0.499968 0.499998 0.308009
C18   C     C_R   0.747433 0.499976 0.499995 0.307894
C19   C     C_R   0.101434 0.499967 0.499994 -0.060683
C20   C     C_R   0.898568 0.499969 0.499989 -0.060688
C21   C     C_R   0.126853 0.368540 0.468295 -0.040540
C22   C     C_R   0.873150 0.631402 0.468322 -0.040521
C23   C     C_R   0.126852 0.631394 0.531694 -0.040542
C24   C     C_R   0.873149 0.368538 0.531656 -0.040519
C25   C     C_R   0.101515 0.239393 0.431273 -0.298330
C26   C     C_R   0.898488 0.760553 0.431322 -0.298338
C27   C     C_R   0.101515 0.760541 0.568713 -0.298326
C28   C     C_R   0.898486 0.239385 0.568654 -0.298338
C29   C     C_R   0.353027 0.499991 0.500000 -0.041662
C30   C     C_R   0.646972 0.499993 0.499998 -0.041663
H1    H     H_    0.346444 0.482814 0.233001 0.163926
H2    H     H_    0.653553 0.517710 0.233064 0.163938
H3    H     H_    0.346443 0.517163 0.766998 0.163925
H4    H     H_    0.653555 0.482276 0.766932 0.163937
H5    H     H_    0.258074 0.482878 0.234567 0.139183
H6    H     H_    0.741923 0.517602 0.234622 0.139247
H7    H     H_    0.258074 0.517061 0.765429 0.139183
H8    H     H_    0.741925 0.482354 0.765367 0.139247
H9    H     H_    0.120868 0.140148 0.396056 0.192951
H10   H     H_    0.879135 0.859803 0.396123 0.192949
H11   H     H_    0.120868 0.859785 0.603932 0.192951
H12   H     H_    0.879133 0.140135 0.603851 0.192950
C31   C     C_R   0.974754 0.364980 0.514744 0.044694
C32   C     C_R   0.025248 0.634953 0.514769 0.044683
C33   C     C_R   0.974755 0.634955 0.485233 0.044693
C34   C     C_R   0.025247 0.364981 0.485212 0.044684
C35   C     C_R   0.949420 0.499968 0.499989 -0.103356
C36   C     C_R   0.050582 0.499967 0.499992 -0.103355
C37   C     C_R   0.949049 0.237812 0.566381 0.496341
C38   C     C_R   0.050952 0.762116 0.566428 0.496365
C39   C     C_R   0.949050 0.762124 0.433595 0.496347
C40   C     C_R   0.050953 0.237818 0.433555 0.496362
C41   C     C_1   0.500000 0.064941 0.500000 -0.179083
C42   C     C_1   0.500000 0.935059 0.500000 -0.179083
N3    N     N_1   0.500000 0.500000 0.073640 -0.036184
N4    N     N_1   0.500000 0.500000 0.926360 -0.036184
O13   O     O_3   0.973694 0.119967 0.632852 -0.690697
H13   H     H_    0.950351 0.044826 0.672682 0.358513
O14   O     O_3   0.026307 0.879958 0.632905 -0.690710
H14   H     H_    0.049649 0.955102 0.672734 0.358511
O15   O     O_3   0.973696 0.879967 0.367122 -0.690697
H15   H     H_    0.950353 0.955109 0.327291 0.358515
O16   O     O_3   0.026307 0.119978 0.367074 -0.690708
H16   H     H_    0.049650 0.044837 0.327238 0.358506

loop_
_geom_bond_atom_site_label_1
_geom_bond_atom_site_label_2
_geom_bond_distance
_ccdc_geom_bond_type
Zn2   N3    1.970527 S    
C19   C23   1.405336 A    
C39   O15   1.375411 S    
O3    C2    1.264712 A    
C13   H3    1.083294 S    
O15   H15   0.992213 S    
C11   C17   1.397744 A    
O5    C3    1.278459 A    
C7    N1    1.365710 A    
C8    N2    1.365722 A    
C19   C21   1.405336 A    
C9    H7    1.083213 S    
C22   C26   1.395403 A    
C7    C23   1.398712 A    
C37   O13   1.375413 S    
O13   H13   0.992211 S    
C33   C35   1.413418 A    
O7    Zn1   2.009970 S    
C25   H9    1.083759 S    
C34   C36   1.413421 A    
C26   H10   1.083758 S    
C10   C18   1.397694 A    
C5    C21   1.398715 A    
C28   H12   1.083758 S    
N1    C17   1.423882 S    
C1    C41   1.381701 S    
C19   C36   1.410023 A    
C20   C35   1.410023 A    
C24   C28   1.395404 A    
O3    Zn1   1.976284 S    
C6    O10   1.350030 S    
C40   O16   1.375416 S    
C5    N1    1.365709 A    
C14   H4    1.083231 S    
C12   C18   1.397705 A    
C6    N2    1.365721 A    
C15   H1    1.083288 S    
C21   C25   1.395403 A    
C16   H2    1.083239 S    
C28   C37   1.402197 A    
O2    C2    1.264711 A    
C10   H8    1.083167 S    
C11   H5    1.083217 S    
C25   C40   1.402198 A    
C9    C13   1.389210 A    
C11   C15   1.389213 A    
C12   C16   1.389213 A    
C4    C30   1.460677 S    
O8    Zn2   2.009972 S    
C23   C27   1.395403 A    
C7    O11   1.350031 S    
C13   C29   1.404596 A    
C32   C33   1.420309 A    
C5    O9    1.350031 S    
O14   H14   0.992210 S    
C33   C39   1.415953 A    
C20   C24   1.405329 A    
O6    C4    1.278455 A    
C10   C14   1.389213 A    
C26   C39   1.402194 A    
O1    C1    1.264711 A    
C3    C29   1.460694 S    
O1    Zn1   1.976281 S    
C2    C42   1.381701 S    
C31   C34   1.420311 A    
O6    Zn2   2.009971 S    
C8    O12   1.350026 S    
C16   C30   1.404518 A    
C14   C30   1.404530 A    
O4    C1    1.264712 A    
Zn1   N4    1.970527 S    
C31   C35   1.413417 A    
C34   C40   1.415961 A    
C32   C36   1.413419 A    
C20   C22   1.405329 A    
N3    N4    1.191473 T    
C31   C37   1.415957 A    
C12   H6    1.083159 S    
C27   C38   1.402193 A    
C38   O14   1.375414 S    
O4    Zn2   1.976285 S    
C41   C42   1.174493 T    
O2    Zn2   1.976280 S    
O7    C4    1.278456 A    
N2    C18   1.423915 S    
O8    C3    1.278457 A    
C27   H11   1.083759 S    
C32   C38   1.415960 A    
O16   H16   0.992217 S    
O5    Zn1   2.009974 S    
C8    C24   1.398715 A    
C15   C29   1.404604 A    
C9    C17   1.397751 A    
C6    C22   1.398714 A    
