data_mof_unit_45985.cif
_audit_creation_date              2013-03-05T15:48:43-0500
_audit_creation_method            fapswitch 2.2
_symmetry_space_group_name_H-M    P1
_symmetry_Int_Tables_number       1
_space_group_crystal_system       triclinic
_cell_length_a                    22.391096
_cell_length_b                    6.960649
_cell_length_c                    19.36036
_cell_angle_alpha                 90.004863
_cell_angle_beta                  99.079642
_cell_angle_gamma                 90.007462
_cell_volume                      2979.63037491

loop_
_atom_site_label
_atom_site_type_symbol
_atom_site_description
_atom_site_fract_x
_atom_site_fract_y
_atom_site_fract_z
_atom_type_partial_charge
O1    O     O_R   0.448420 0.506120 0.415750 -0.588325
O2    O     O_R   0.551580 0.006120 0.584250 -0.588283
O3    O     O_R   0.436490 0.174470 0.555610 -0.577542
O4    O     O_R   0.563510 0.674470 0.444390 -0.577578
C1    C     C_R   0.421159 0.344776 0.575752 0.950789
C2    C     C_R   0.578839 0.844782 0.424245 0.950766
O5    O     O_R   0.441310 0.176330 0.414520 -0.591021
O6    O     O_R   0.558690 0.676330 0.585480 -0.590985
O7    O     O_R   0.556430 0.007110 0.442150 -0.582304
O8    O     O_R   0.443570 0.507110 0.557850 -0.582317
C3    C     C_R   0.427010 0.345044 0.388380 0.941765
C4    C     C_R   0.572989 0.845085 0.611618 0.941818
O9    O     O_3   0.537770 0.339560 0.509230 -0.268789
O10   O     O_3   0.462230 0.839560 0.490770 -0.268823
V1    V     V_3+5 0.492990 0.064280 0.498290 1.202964
V2    V     V_3+5 0.507010 0.564280 0.501710 1.202934
C5    C     C_R   0.866984 0.926952 0.696391 -0.154588
C6    C     C_R   0.133105 0.429655 0.303619 -0.154587
H1    H     H_    0.954309 0.927683 0.759801 0.120556
H2    H     H_    0.045750 0.430431 0.240276 0.120555
H3    H     H_    0.785612 0.935236 0.581537 0.130085
H4    H     H_    0.214549 0.439284 0.418395 0.130247
H5    H     H_    0.886183 0.928196 0.648378 0.118727
H6    H     H_    0.113941 0.432213 0.351650 0.118757
C7    C     C_R   0.883124 0.936879 0.822796 -0.244263
C8    C     C_R   0.116894 0.437121 0.177192 -0.244228
C9    C     C_R   0.589149 0.807895 0.739269 -0.199434
C10   C     C_R   0.410755 0.305977 0.260807 -0.199200
C11   C     C_R   0.625960 0.789354 0.803923 0.068302
C12   C     C_R   0.373889 0.286553 0.196225 0.068182
C13   C     C_R   0.688237 0.819438 0.810033 -0.127094
C14   C     C_R   0.311648 0.317354 0.190092 -0.127317
C15   C     C_R   0.715180 0.877987 0.752119 0.095955
C16   C     C_R   0.284808 0.377524 0.247884 0.095922
C17   C     C_R   0.677457 0.883799 0.685068 0.101670
C18   C     C_R   0.322577 0.384293 0.314896 0.101688
C19   C     C_R   0.779134 0.913677 0.757498 -0.051860
C20   C     C_R   0.220891 0.413879 0.242467 -0.051958
C21   C     C_R   0.804186 0.921459 0.694451 0.158602
C22   C     C_R   0.195890 0.423342 0.305521 0.158587
C23   C     C_R   0.766553 0.923581 0.629489 -0.194966
C24   C     C_R   0.233563 0.426362 0.370452 -0.195113
C25   C     C_R   0.704147 0.911426 0.624923 -0.189848
C26   C     C_R   0.295953 0.413510 0.374999 -0.190122
C27   C     C_R   0.819658 0.939931 0.822266 0.274585
C28   C     C_R   0.180356 0.439252 0.177659 0.274548
C29   C     C_R   0.905913 0.927491 0.759844 -0.227172
C30   C     C_R   0.094139 0.429440 0.240192 -0.227326
C31   C     C_R   0.614085 0.851515 0.679379 -0.197559
C32   C     C_R   0.385911 0.351241 0.320616 -0.197695
H7    H     H_    0.540960 0.781076 0.734995 0.141583
H8    H     H_    0.458906 0.278465 0.265115 0.141537
H9    H     H_    0.715002 0.785630 0.859788 0.173333
H10   H     H_    0.284818 0.282780 0.140448 0.173421
H11   H     H_    0.677111 0.915238 0.573371 0.106574
H12   H     H_    0.323022 0.418064 0.426524 0.106925
C33   C     C_3   0.811824 0.777702 0.267986 -0.434289
C34   C     C_3   0.188187 0.277575 0.732049 -0.434375
C35   C     C_3   0.782366 0.121818 0.242043 -0.297395
C36   C     C_3   0.217613 0.621785 0.757919 -0.297456
C37   C     C_3   0.730862 0.109812 0.290286 0.302390
C38   C     C_3   0.269083 0.609742 0.709629 0.302418
H13   H     H_    0.786511 0.804563 0.372611 0.167252
H14   H     H_    0.213512 0.303994 0.627417 0.167270
H15   H     H_    0.856294 0.822594 0.297657 0.161560
H16   H     H_    0.143726 0.322409 0.702354 0.161580
H17   H     H_    0.826552 0.159556 0.274334 0.102225
H18   H     H_    0.173411 0.659441 0.725655 0.102224
C39   C     C_1   0.624665 0.856082 0.379019 -0.211740
C40   C     C_1   0.375328 0.356058 0.620974 -0.211648
C41   C     C_3   0.791175 0.922609 0.207856 0.295368
C42   C     C_3   0.208830 0.422626 0.792148 0.295295
C43   C     C_3   0.764859 0.763783 0.318953 -0.439751
C44   C     C_3   0.235164 0.263519 0.681102 -0.439565
C45   C     C_3   0.709027 0.893497 0.293618 0.176775
C46   C     C_3   0.290967 0.393471 0.706375 0.176807
C47   C     C_3   0.683140 0.820786 0.218835 -0.340346
C48   C     C_3   0.316883 0.321048 0.781180 -0.340662
C49   C     C_3   0.728855 0.856928 0.167664 -0.350434
C50   C     C_3   0.271160 0.357126 0.832345 -0.350160
C51   C     C_1   0.662626 0.870818 0.340790 0.046096
C52   C     C_1   0.337366 0.370785 0.659201 0.046221
C53   C     C_1   0.837551 0.931047 0.159997 -0.039831
C54   C     C_1   0.162457 0.431078 0.840012 -0.039750
C55   C     C_1   0.875471 0.939834 0.121490 -0.231282
C56   C     C_1   0.124537 0.439859 0.878518 -0.231181
H19   H     H_    0.733812 0.725468 0.137077 0.182336
H20   H     H_    0.266224 0.225679 0.862944 0.182421
H21   H     H_    0.710319 0.967641 0.128729 0.205568
H22   H     H_    0.289681 0.467919 0.871270 0.205476
H23   H     H_    0.673952 0.663859 0.220555 0.218984
H24   H     H_    0.326130 0.164150 0.779509 0.218926
H25   H     H_    0.818470 0.633438 0.245902 0.178917
H26   H     H_    0.181521 0.133368 0.754161 0.178932
H27   H     H_    0.750396 0.611566 0.322182 0.217458
H28   H     H_    0.249657 0.111313 0.677964 0.217579
H29   H     H_    0.638819 0.887534 0.198724 0.209642
H30   H     H_    0.361179 0.388037 0.801266 0.209659
O11   O     O_R   0.056480 0.288780 0.942210 -0.592940
O12   O     O_R   0.943520 0.788780 0.057790 -0.593224
O13   O     O_R   0.058700 0.616820 0.085490 -0.590447
O14   O     O_R   0.941300 0.116820 0.914510 -0.590178
C57   C     C_R   0.073186 0.448128 0.111553 1.029411
C58   C     C_R   0.926815 0.948088 0.888446 1.029449
O15   O     O_R   0.063520 0.618570 0.944410 -0.591566
O16   O     O_R   0.936480 0.118570 0.055590 -0.591322
O17   O     O_R   0.948420 0.787670 0.915740 -0.593057
O18   O     O_R   0.051580 0.287670 0.084260 -0.592827
C59   C     C_R   0.078787 0.449798 0.923924 1.036795
C60   C     C_R   0.921216 0.949792 0.076080 1.036814
O19   O     O_3   0.962260 0.453430 0.990800 -0.271518
O20   O     O_3   0.037740 0.953430 0.009200 -0.271468
V3    V     V_3+5 0.007000 0.728750 0.001710 1.219262
V4    V     V_3+5 0.993000 0.228750 0.998290 1.219612
C61   C     C_1   0.772461 0.272781 0.187860 0.170418
N1    N     N_1   0.765177 0.386992 0.144037 -0.065100
C62   C     C_1   0.227547 0.772837 0.812079 0.170400
N2    N     N_1   0.234856 0.887122 0.855885 -0.065083
C63   C     C_1   0.758163 0.173182 0.361800 -0.001998
N3    N     N_1   0.779360 0.222537 0.417377 -0.088318
C64   C     C_1   0.241719 0.672760 0.638101 -0.001970
N4    N     N_1   0.220472 0.721829 0.582512 -0.088449
N5    N     N_R   0.678469 0.236699 0.265405 0.224001
O21   O     O_R   0.651112 0.230189 0.200925 -0.426561
O22   O     O_R   0.656068 0.349080 0.308708 -0.429283
N6    N     N_R   0.321453 0.736877 0.734402 0.223952
O23   O     O_R   0.348858 0.730682 0.798865 -0.426623
O24   O     O_R   0.343814 0.849066 0.691007 -0.429302
N7    N     N_R   0.797664 0.996060 0.885063 0.212117
O25   O     O_R   0.815471 0.906492 0.943678 -0.445390
O26   O     O_R   0.761288 0.142138 0.884216 -0.391020
N8    N     N_R   0.202362 0.493714 0.114692 0.211932
O27   O     O_R   0.184428 0.403092 0.056320 -0.445183
O28   O     O_R   0.238879 0.639327 0.115127 -0.391067
C65   C     C_1   0.599869 0.732836 0.864251 0.129224
N9    N     N_1   0.578923 0.687452 0.912722 -0.044782
C66   C     C_1   0.399870 0.228211 0.136027 0.129401
N10   N     N_1   0.420727 0.181343 0.087662 -0.044707

loop_
_geom_bond_atom_site_label_1
_geom_bond_atom_site_label_2
_geom_bond_distance
_ccdc_geom_bond_type
C2    C39   1.452346 S    
C12   C14   1.396462 A    
C27   N7    1.436040 S    
N6    O23   1.301641 A    
C9    C11   1.391864 A    
O13   V3    1.996456 S    
O1    C3    1.298951 A    
O2    C4    1.298862 A    
O11   V4    1.964875 S    
C41   C49   1.555236 S    
C4    C31   1.479437 S    
O3    V1    1.965571 S    
N5    O21   1.301647 A    
C21   C23   1.399139 A    
C37   C45   1.587469 S    
O5    C3    1.298772 A    
C5    H5    1.083998 S    
C44   C46   1.557397 S    
O16   V4    1.965559 S    
C6    H6    1.083993 S    
O15   V3    1.965613 S    
C46   C48   1.556677 S    
C28   N8    1.436045 S    
C48   C50   1.553235 S    
N5    O22   1.303488 A    
C37   C63   1.489258 S    
C36   C42   1.562311 S    
C33   C43   1.554474 S    
C61   N1    1.155381 T    
O11   C59   1.298744 A    
C36   C38   1.596651 S    
C5    C21   1.401186 A    
O18   V4    1.992396 S    
C35   C61   1.476677 S    
C6    C22   1.401198 A    
O17   V3    1.992523 S    
C35   H17   1.115086 S    
C10   C32   1.397427 A    
C34   H16   1.112865 S    
N8    O27   1.301105 A    
C17   C31   1.423624 A    
C13   C15   1.414455 A    
C47   H29   1.109281 S    
C57   O18   1.296065 A    
C17   C25   1.403443 A    
C7    C29   1.395112 A    
C18   C26   1.403443 A    
C8    C30   1.395098 A    
C22   C24   1.399142 A    
O6    V2    1.996216 S    
C12   C66   1.440708 S    
C33   H25   1.110562 S    
C49   H19   1.104978 S    
C11   C13   1.396499 A    
C43   C45   1.557384 S    
C38   C46   1.587505 S    
C24   C26   1.388722 A    
C2    O7    1.305212 A    
C14   H10   1.077167 S    
O20   V3    1.705522 S    
C9    H7    1.085219 S    
C41   C53   1.497984 S    
C47   C49   1.553235 S    
C35   C37   1.596635 S    
C20   C28   1.438729 A    
O12   V3    1.964916 S    
C44   H28   1.112533 S    
C65   N9    1.157275 T    
C56   C59   1.452965 S    
O4    C2    1.310535 A    
C55   C60   1.452951 S    
C46   C52   1.495984 S    
C38   N6    1.486722 S    
C45   C51   1.495978 S    
H13   C43   1.111638 S    
C48   H24   1.113014 S    
C15   C19   1.440837 A    
C42   C50   1.555244 S    
C14   C16   1.414447 A    
O4    V2    1.965518 S    
C48   H30   1.109289 S    
C1    C40   1.452349 S    
O14   V4    1.996231 S    
C8    C57   1.478539 S    
C26   H12   1.082872 S    
O6    C4    1.298862 A    
H1    C29   1.083769 S    
C36   C62   1.476676 S    
O19   V3    2.157181 S    
O1    V2    1.991291 S    
C42   C54   1.497994 S    
C33   C41   1.554602 S    
O14   C58   1.298991 A    
O2    V1    1.991419 S    
C45   C47   1.556683 S    
C64   N4    1.157474 T    
H2    C30   1.083767 S    
H3    C23   1.084245 S    
O20   V4    2.157445 S    
N8    O28   1.301364 A    
C11   C65   1.440692 S    
O9    V1    2.157351 S    
O10   V2    2.157615 S    
C13   H9    1.077173 S    
C43   H27   1.112517 S    
C19   C27   1.438721 A    
C7    C27   1.419645 A    
C18   C32   1.423651 A    
C34   C44   1.554463 S    
N7    O25   1.301092 A    
O16   C60   1.302733 A    
C25   H11   1.082875 S    
O15   C59   1.302713 A    
C47   H23   1.112973 S    
N6    O24   1.303508 A    
C53   C55   1.216636 T    
C16   C20   1.440835 A    
C23   C25   1.388708 A    
C5    C29   1.389601 A    
C33   H15   1.112871 S    
O3    C1    1.310517 A    
C6    C30   1.389607 A    
C63   N3    1.157481 T    
C7    C58   1.478551 S    
C66   N10   1.157266 T    
O13   C57   1.298897 A    
C37   N5    1.486710 S    
C10   C12   1.391837 A    
C34   H26   1.110544 S    
C1    O8    1.305201 A    
C19   C21   1.422533 A    
C3    C32   1.479483 S    
O8    V2    1.960787 S    
C62   N2    1.155387 T    
C20   C22   1.422535 A    
C10   H8    1.085222 S    
C34   C42   1.554602 S    
H4    C24   1.084244 S    
O12   C60   1.298751 A    
O5    V1    1.996441 S    
C15   C17   1.433246 A    
O19   V4    1.705709 S    
C16   C18   1.433279 A    
C58   O17   1.296008 A    
C50   H22   1.111663 S    
C40   C52   1.216271 T    
C49   H21   1.111656 S    
C39   C51   1.216267 T    
C8    C28   1.419646 A    
C36   H18   1.115084 S    
C50   H20   1.105002 S    
O9    V2    1.706153 S    
H14   C44   1.111632 S    
O10   V1    1.705966 S    
C54   C56   1.216644 T    
C38   C64   1.489264 S    
C9    C31   1.397396 A    
O7    V1    1.960827 S    
C35   C41   1.562312 S    
N7    O26   1.301376 A    
