data_mof_unit_40169.cif
_audit_creation_date              2012-12-10T18:58:44-0500
_audit_creation_method            fapswitch 2.2
_symmetry_space_group_name_H-M    P1
_symmetry_Int_Tables_number       1
_space_group_crystal_system       triclinic
_cell_length_a                    13.019193
_cell_length_b                    10.824469
_cell_length_c                    9.533373
_cell_angle_alpha                 89.911769
_cell_angle_beta                  96.04964
_cell_angle_gamma                 90.18583
_cell_volume                      1336.0087094

loop_
_atom_site_label
_atom_site_type_symbol
_atom_type_description
_atom_site_fract_x
_atom_site_fract_y
_atom_site_fract_z
_atom_type_partial_charge
C1    C     C_R   0.501788 0.262268 0.500293 0.800728
C2    C     C_R   0.027577 0.508886 0.563130 0.139353
C3    C     C_R   0.971612 0.501924 0.427322 0.144775
C4    C     C_R   0.863925 0.494724 0.418683 -0.219980
C5    C     C_R   0.868794 0.511254 0.673145 -0.177132
C6    C     C_R   0.975886 0.514145 0.684570 -0.190240
C7    C     C_R   0.514877 0.063324 0.627771 0.139831
C8    C     C_R   0.511996 0.129200 0.501437 -0.097939
C9    C     C_R   0.523779 0.064671 0.376222 -0.216550
C10   C     C_R   0.523704 0.935902 0.376086 -0.213394
C11   C     C_R   0.511985 0.870808 0.501182 -0.096948
C12   C     C_R   0.300560 0.499952 0.473672 0.816772
C13   C     C_R   0.514808 0.936158 0.627606 0.121398
C14   C     C_3   0.444820 0.929023 0.741882 -0.460974
C15   C     C_3   0.445061 0.069284 0.742280 -0.483727
C16   C     C_R   0.535507 0.600406 0.078567 0.228387
C17   C     C_R   0.454134 0.407398 0.068002 -0.080611
C18   C     C_R   0.453941 0.407537 0.919042 -0.078316
C19   C     C_R   0.535846 0.600159 0.931230 0.236542
C20   C     C_3   0.641847 0.653923 0.940671 -0.462716
C21   C     C_3   0.641226 0.654852 0.099848 -0.446506
C22   C     C_R   0.501841 0.737713 0.500123 0.805062
C23   C     C_R   0.699536 0.499817 0.526120 0.809324
C24   C     C_R   0.812359 0.501560 0.540278 -0.085475
C25   C     C_R   0.187912 0.500734 0.457418 -0.055458
C26   C     C_R   0.025683 0.498349 0.305530 0.012205
C27   C     C_R   0.133392 0.495061 0.322888 -0.284930
C28   C     C_R   0.134786 0.508824 0.576767 -0.267201
Cu1   Cu    Cu3+1 0.499990 0.499980 0.640670 0.942620
Cu2   Cu    Cu3+1 0.500010 0.500020 0.359330 0.942367
H1    H     H_    0.819318 0.480759 0.318130 0.192604
H2    H     H_    0.483745 0.888458 0.840618 0.192285
H3    H     H_    0.368515 0.110150 0.706241 0.195025
H4    H     H_    0.484465 0.109179 0.841132 0.194278
H5    H     H_    0.418524 0.331360 0.118651 0.136310
H6    H     H_    0.417857 0.331917 0.858301 0.136383
H7    H     H_    0.699317 0.588946 0.904539 0.227706
H8    H     H_    0.642617 0.747971 0.893879 0.187869
H9    H     H_    0.698368 0.590837 0.154892 0.248018
H10   H     H_    0.641278 0.749482 0.144821 0.183401
H11   H     H_    0.830461 0.515729 0.768278 0.167907
H12   H     H_    0.018355 0.520133 0.788459 0.138796
H13   H     H_    0.174975 0.490750 0.230258 0.153406
H14   H     H_    0.176819 0.514078 0.681065 0.155797
H15   H     H_    0.527893 0.112932 0.277344 0.162757
H16   H     H_    0.527563 0.888095 0.277116 0.158461
H17   H     H_    0.368174 0.888190 0.705285 0.201562
N1    N     N_R   0.500660 0.500930 0.148010 -0.182257
N2    N     N_R   0.500660 0.500890 0.852110 -0.181663
O1    O     O_R   0.500000 0.319640 0.618810 -0.582974
O2    O     O_R   0.500010 0.319680 0.381230 -0.591811
O3    O     O_R   0.348990 0.499960 0.599490 -0.589280
O4    O     O_R   0.349000 0.500000 0.361910 -0.584220
O5    O     O_R   0.499990 0.680320 0.618770 -0.580498
O6    O     O_R   0.500000 0.680360 0.381190 -0.585042
O7    O     O_R   0.651000 0.500000 0.638090 -0.584825
O8    O     O_R   0.651010 0.500040 0.400510 -0.587659
C29   C     C_2   0.975516 0.500455 0.158283 0.309075
H18   H     H_    0.011561 0.452684 0.076280 0.064717
O9    O     O_2   0.898364 0.561839 0.124830 -0.577394

loop_
_geom_bond_atom_site_label_1
_geom_bond_atom_site_label_2
_ccdc_geom_bond_type
C10   H16   S    
C2    C28   A    
C23   C24   S    
C15   H4    S    
C9    H15   S    
C16   C21   S    
Cu1   O7    S    
C25   C27   A    
C1    C8    S    
C20   H8    S    
C9    C10   A    
C19   N2    A    
C11   C22   S    
C12   O4    A    
C21   H9    S    
C17   N1    A    
C12   C25   S    
Cu2   O2    S    
Cu1   O5    S    
C16   N1    A    
C7    C15   S    
C17   C18   A    
C22   O6    A    
C7    C8    A    
C22   O5    A    
C2    C6    A    
C13   C14   S    
C25   C28   A    
C20   H7    S    
C11   C13   A    
C23   O7    A    
C26   C27   A    
C14   H17   S    
C5    C24   A    
C16   C19   A    
Cu2   N1    S    
C12   O3    A    
C28   H14   S    
C2    C3    A    
Cu1   O1    S    
C6    H12   S    
C5    C6    A    
C4    C24   A    
Cu2   O4    S    
C4    H1    S    
C10   C11   A    
C29   O9    D    
C3    C4    A    
Cu2   O8    S    
C27   H13   S    
C7    C13   A    
C20   C21   S    
C1    O1    A    
C26   C29   S    
C23   O8    A    
C5    H11   S    
C14   C15   S    
Cu1   N2    S    
C1    O2    A    
C17   H5    S    
C29   H18   S    
C18   H6    S    
Cu2   O6    S    
C15   H3    S    
C3    C26   A    
Cu1   Cu2   S    
C19   C20   S    
C18   N2    A    
C14   H2    S    
C8    C9    A    
Cu1   O3    S    
C21   H10   S    
