data_mof_unit_67765.cif
_audit_creation_date              2012-12-10T16:50:07-0500
_audit_creation_method            fapswitch 2.2
_symmetry_space_group_name_H-M    P1
_symmetry_Int_Tables_number       1
_space_group_crystal_system       triclinic
_cell_length_a                    7.901661
_cell_length_b                    8.602468
_cell_length_c                    10.33922
_cell_angle_alpha                 89.356756
_cell_angle_beta                  82.911037
_cell_angle_gamma                 93.77168
_cell_volume                      695.780207472

loop_
_atom_site_label
_atom_site_type_symbol
_atom_type_description
_atom_site_fract_x
_atom_site_fract_y
_atom_site_fract_z
_atom_type_partial_charge
C1    C     C_R   0.543919 0.794394 0.503826 0.775155
C2    C     C_R   0.356023 0.551533 0.971418 -0.076808
C3    C     C_R   0.507540 0.539790 0.882286 -0.235813
C4    C     C_R   0.669379 0.586273 0.924006 0.490945
C5    C     C_R   0.671878 0.619522 0.055348 -0.348743
C6    C     C_R   0.521868 0.621863 0.138003 -0.180744
C7    C     C_2   0.554378 0.956781 0.530381 0.349809
C8    C     C_2   0.437555 0.042580 0.484449 -0.517929
C9    C     C_R   0.499880 0.505212 0.743779 0.896823
C10   C     C_R   0.454789 0.205866 0.499455 1.016217
C11   C     C_R   0.510258 0.550242 0.269149 0.914783
C12   C     C_R   0.201778 0.457357 0.969985 0.564440
C13   C     C_R   0.063249 0.483403 0.068297 -0.253759
C14   C     C_R   0.076151 0.602712 0.157451 -0.247536
C15   C     C_R   0.228900 0.687528 0.159802 -0.150009
C16   C     C_R   0.372355 0.638277 0.083348 0.046866
H1    H     H_    0.981745 0.606904 0.600007 0.230133
N1    N     N_2   0.950330 0.457950 0.466250 -0.180413
N2    N     N_2   0.049670 0.542050 0.533750 -0.182793
O1    O     O_R   0.389250 0.738570 0.508280 -0.666211
O2    O     O_R   0.678390 0.711630 0.486650 -0.635232
O3    O     O_R   0.355400 0.513470 0.694050 -0.588663
O4    O     O_R   0.644540 0.486530 0.672420 -0.570795
O5    O     O_R   0.321610 0.288370 0.513350 -0.613640
O6    O     O_R   0.610750 0.261430 0.491720 -0.558367
O7    O     O_R   0.355460 0.513470 0.327580 -0.608383
O8    O     O_R   0.644600 0.486530 0.305950 -0.635878
Zn1   Zn    Zn3+2 0.306930 0.517990 0.514440 0.929087
Zn2   Zn    Zn3+2 0.693070 0.482010 0.485560 0.949164
O9    O     O_3   0.822040 0.563234 0.845741 -0.638101
C17   C     C_3   0.942212 0.694276 0.840585 0.008411
H2    H     H_    0.067891 0.655194 0.798408 0.200327
H3    H     H_    0.963697 0.739356 0.937520 0.128018
C18   C     C_3   0.891335 0.825621 0.755447 -0.387853
H4    H     H_    0.798694 0.779397 0.691553 0.282632
H5    H     H_    0.828901 0.909046 0.821274 0.219141
C19   C     C_3   0.041359 0.912572 0.671880 -0.897891
H6    H     H_    0.998493 0.020325 0.629812 0.289974
H7    H     H_    0.094610 0.843118 0.589453 0.274379
H8    H     H_    0.143239 0.942794 0.732340 0.231905
O10   O     O_3   0.207110 0.329591 0.887738 -0.641376
C20   C     C_3   0.057701 0.228480 0.898054 0.139126
H9    H     H_    0.050157 0.183700 0.799326 0.148839
H10   H     H_    0.936627 0.286067 0.917079 0.137340
C21   C     C_3   0.067816 0.086765 0.988724 -0.406393
H11   H     H_    0.946705 0.013544 0.993428 0.188547
H12   H     H_    0.171800 0.015517 0.946143 0.212354
C22   C     C_3   0.095958 0.125705 0.128576 -0.818669
H13   H     H_    0.214196 0.202103 0.131080 0.278042
H14   H     H_    0.110218 0.016307 0.182886 0.231362
H15   H     H_    0.983966 0.180963 0.179204 0.246978
H16   H     H_    0.944655 0.413077 0.081811 0.165262
H17   H     H_    0.972444 0.621047 0.233049 0.180493
H18   H     H_    0.242648 0.765703 0.239963 0.147630
H19   H     H_    0.787459 0.630493 0.096407 0.171548
O11   O     O_3   0.645526 0.012179 0.629023 -0.637173
C23   C     C_3   0.536842 0.000306 0.749951 0.049806
H20   H     H_    0.533843 0.879693 0.790346 0.130124
H21   H     H_    0.403388 0.025831 0.740358 0.123772
C24   C     C_3   0.599197 0.119762 0.845362 -0.281733
H22   H     H_    0.736244 0.153408 0.817282 0.225298
H23   H     H_    0.529609 0.226039 0.838674 0.231769
C25   C     C_3   0.570099 0.060890 0.987002 -0.991538
H24   H     H_    0.640476 0.955768 0.000038 0.257344
H25   H     H_    0.432838 0.030837 0.018009 0.282687
H26   H     H_    0.615417 0.153290 0.051199 0.270172
H27   H     H_    0.342748 0.995077 0.425067 0.135019
H28   H     H_    0.014381 0.385729 0.401322 0.200726

loop_
_geom_bond_atom_site_label_1
_geom_bond_atom_site_label_2
_ccdc_geom_bond_type
C21   H11   S    
C25   H25   S    
C1    O2    A    
C19   H6    S    
C3    C9    S    
O8    Zn2   S    
C18   C19   S    
C2    C16   A    
O10   C20   S    
O7    Zn1   S    
C17   H2    S    
C11   O8    A    
O9    C17   S    
C2    C12   A    
C17   H3    S    
C2    C3    A    
C25   H26   S    
C7    C8    D    
C19   H7    S    
N1    Zn2   S    
O3    Zn1   S    
C13   C14   A    
O11   C23   S    
N2    Zn1   S    
C23   H20   S    
C12   O10   S    
C20   H10   S    
C7    O11   S    
C24   H22   S    
C24   C25   S    
O4    Zn2   S    
C10   O6    A    
C22   H14   S    
C22   H13   S    
H1    N2    S    
C5    H19   S    
N1    N2    D    
C19   H8    S    
C18   H5    S    
C21   H12   S    
O6    Zn2   S    
C5    C6    A    
C8    C10   S    
C9    O3    A    
C17   C18   S    
C23   H21   S    
C20   H9    S    
N1    H28   S    
C15   C16   A    
C13   H16   S    
C15   H18   S    
O5    Zn1   S    
C14   H17   S    
C12   C13   A    
C8    H27   S    
C24   H23   S    
C18   H4    S    
C21   C22   S    
C6    C11   S    
C14   C15   A    
C9    O4    A    
C23   C24   S    
O1    Zn1   S    
C11   O7    A    
C10   O5    A    
C1    C7    S    
O2    Zn2   S    
C6    C16   A    
C22   H15   S    
C4    O9    S    
C3    C4    A    
C25   H24   S    
C4    C5    A    
C1    O1    A    
C20   C21   S    
