data_mof_unit_52593.cif
_audit_creation_date              2012-12-11T15:59:40-0500
_audit_creation_method            fapswitch 2.2
_symmetry_space_group_name_H-M    P1
_symmetry_Int_Tables_number       1
_space_group_crystal_system       triclinic
_cell_length_a                    10.898049
_cell_length_b                    10.850138
_cell_length_c                    17.071475
_cell_angle_alpha                 99.508426
_cell_angle_beta                  99.523826
_cell_angle_gamma                 60.278235
_cell_volume                      1720.72718025

loop_
_atom_site_label
_atom_site_type_symbol
_atom_type_description
_atom_site_fract_x
_atom_site_fract_y
_atom_site_fract_z
_atom_type_partial_charge
C1    C     C_R   0.351764 0.777193 0.401099 0.534125
C2    C     C_R   0.796601 0.236913 0.182094 0.029441
C3    C     C_R   0.810643 0.236990 0.265868 0.014083
C4    C     C_R   0.762707 0.481237 0.279251 -0.155404
C5    C     C_R   0.767547 0.473187 0.198012 -0.173113
C6    C     C_R   0.779669 0.127882 0.132588 -0.072106
C7    C     C_R   0.788040 0.015596 0.166258 -0.104505
C8    C     C_R   0.821493 0.008580 0.248361 -0.062944
C9    C     C_R   0.838866 0.113829 0.297015 -0.043323
C10   C     C_R   0.793548 0.360766 0.315371 -0.002932
C11   C     C_R   0.331245 0.835739 0.162233 -0.050775
C12   C     C_R   0.406496 0.372717 0.356161 0.555109
C13   C     C_R   0.439522 0.842215 0.216296 0.014844
C14   C     C_R   0.429985 0.857594 0.299341 -0.019296
C15   C     C_R   0.216793 0.832985 0.269372 0.243020
C16   C     C_R   0.225912 0.822888 0.189979 -0.120207
C17   C     C_R   0.561527 0.823898 0.189369 -0.077602
C18   C     C_R   0.668547 0.826419 0.243240 -0.146077
C19   C     C_R   0.651988 0.863942 0.324343 -0.110154
C20   C     C_R   0.530829 0.882664 0.352464 -0.060827
C21   C     C_R   0.324370 0.840160 0.326011 0.004724
C22   C     C_R   0.300127 0.277697 0.799625 -0.007009
C23   C     C_R   0.765272 0.382749 0.399234 0.536040
C24   C     C_R   0.425936 0.178391 0.763202 0.037161
C25   C     C_R   0.477360 0.227836 0.713007 0.036444
C26   C     C_R   0.248712 0.445727 0.706373 -0.144388
C27   C     C_R   0.211299 0.410120 0.769673 -0.148035
C28   C     C_R   0.506214 0.033317 0.778605 -0.085596
C29   C     C_R   0.644071 0.948622 0.757075 -0.111400
C30   C     C_R   0.704516 0.007310 0.720162 -0.112697
C31   C     C_R   0.622185 0.145817 0.698410 -0.081674
C32   C     C_R   0.380590 0.354364 0.676609 -0.004887
C33   C     C_1   0.843975 0.329756 0.705555 -0.058247
C34   C     C_R   0.358530 0.767467 0.627400 0.548848
C35   C     C_1   0.890349 0.295100 0.772191 -0.050910
C36   C     C_1   0.338871 0.809071 0.709432 -0.052126
C37   C     C_1   0.312802 0.837892 0.777550 -0.059355
C38   C     C_R   0.884862 0.313023 0.083781 0.548602
C39   C     C_R   0.322051 0.301470 0.119041 0.564920
C40   C     C_R   0.294688 0.890012 0.084560 0.549157
C41   C     C_R   0.940748 0.274370 0.854486 0.539809
C42   C     C_R   0.279991 0.253650 0.877327 0.526950
C43   C     C_R   0.278359 0.885915 0.857340 0.533580
C44   C     C_R   0.406901 0.375208 0.599812 0.550403
C45   C     C_R   0.776331 0.379004 0.629029 0.545092
C46   C     C_1   0.379676 0.355745 0.271547 -0.067548
C47   C     C_1   0.353317 0.338476 0.200842 -0.053574
C48   C     C_R   0.801789 0.345631 0.150921 -0.006415
Cr1   Cr    Cr6+3 0.608100 0.610860 0.522250 1.009895
Cr2   Cr    Cr6+3 0.288890 0.599990 0.488420 0.997805
Cr3   Cr    Cr6+3 0.603040 0.289190 0.489390 0.996926
Cr4   Cr    Cr6+3 0.053960 0.052250 0.967380 1.016983
Cr5   Cr    Cr6+3 0.059890 0.373160 0.992710 0.998615
Cr6   Cr    Cr6+3 0.373370 0.061690 0.991710 1.002092
H1    H     H_    0.737811 0.581656 0.314163 0.162012
H2    H     H_    0.765730 0.790408 0.219650 0.090447
H3    H     H_    0.735791 0.870009 0.365853 0.100208
H4    H     H_    0.519489 0.911276 0.415642 0.141944
H5    H     H_    0.174615 0.544720 0.680863 0.146507
H6    H     H_    0.464090 0.985116 0.808356 0.151015
H7    H     H_    0.113419 0.486284 0.795309 0.143817
H8    H     H_    0.705182 0.839083 0.771304 0.122676
H9    H     H_    0.813819 0.944591 0.706506 0.119545
H10   H     H_    0.672342 0.187352 0.669621 0.151734
H11   H     H_    0.756503 0.131069 0.068562 0.132211
H12   H     H_    0.759858 0.561518 0.172855 0.138532
H13   H     H_    0.774763 0.931930 0.128324 0.095396
H14   H     H_    0.845359 0.918593 0.277211 0.138931
H15   H     H_    0.877564 0.094886 0.358701 0.153611
H16   H     H_    0.582852 0.791279 0.127502 0.125341
H17   H     H_    0.140615 0.815813 0.150243 0.164490
O1    O     O_R   0.749810 0.499790 0.438040 -0.514162
O2    O     O_R   0.298970 0.468800 0.557390 -0.487886
O3    O     O_R   0.489400 0.255930 0.561910 -0.513347
O4    O     O_R   0.723890 0.306050 0.584610 -0.533328
O5    O     O_3   0.500010 0.500010 0.500020 -0.292749
O6    O     O_R   0.171100 0.914680 0.053100 -0.520775
O7    O     O_R   0.941680 0.184840 0.050710 -0.493452
O8    O     O_R   0.922080 0.403420 0.072610 -0.539008
O9    O     O_R   0.196880 0.369150 0.083850 -0.509948
O10   O     O_R   0.411730 0.181020 0.091530 -0.495659
O11   O     O_R   0.365010 0.944360 0.063320 -0.498845
O12   O     O_R   0.477660 0.726260 0.439290 -0.517520
O13   O     O_R   0.159380 0.906670 0.876210 -0.507699
O14   O     O_R   0.930820 0.177420 0.886730 -0.487677
O15   O     O_R   0.910360 0.395420 0.895720 -0.512016
O16   O     O_R   0.186010 0.361730 0.919870 -0.505509
O17   O     O_R   0.400000 0.173010 0.914630 -0.513544
O18   O     O_R   0.354140 0.936940 0.899340 -0.538301
O19   O     O_3   0.162410 0.162370 0.983930 -0.283256
O20   O     O_R   0.260150 0.743000 0.412270 -0.510237
O21   O     O_R   0.297740 0.466550 0.394720 -0.526852
O22   O     O_R   0.488080 0.253500 0.386430 -0.486055
O23   O     O_R   0.722670 0.303800 0.421940 -0.529235
O24   O     O_R   0.751130 0.502220 0.613520 -0.496822
O25   O     O_R   0.478890 0.728510 0.601960 -0.491215
O26   O     O_R   0.261470 0.745430 0.587750 -0.521765
O27   O     O_3   0.098595 0.836105 0.290085 -0.585056
C49   C     C_3   0.120945 0.696274 0.288453 0.028157
H18   H     H_    0.072715 0.696549 0.341229 0.191164
H19   H     H_    0.234802 0.617819 0.293986 0.156544
C50   C     C_3   0.059514 0.642508 0.213933 -0.308475
H20   H     H_    0.965693 0.728149 0.184589 0.153093
H21   H     H_    0.138057 0.593286 0.169484 0.159439
C51   C     C_3   0.027129 0.533485 0.238656 -0.457712
H22   H     H_    0.111990 0.461099 0.280060 0.167775
H23   H     H_    0.016463 0.465293 0.187280 0.218807
H24   H     H_    0.931717 0.589143 0.271226 0.133167

loop_
_geom_bond_atom_site_label_1
_geom_bond_atom_site_label_2
_ccdc_geom_bond_type
C25   C31   A    
C24   C25   A    
C1    C21   S    
C33   C45   S    
Cr4   O19   S    
C19   C20   A    
Cr3   O3    S    
C7    C8    A    
C19   H3    S    
C26   C32   A    
C41   O15   A    
C51   H23   S    
C26   C27   A    
C43   O18   A    
C50   C51   S    
C14   C21   A    
C28   C29   A    
Cr5   O8    S    
C34   O25   A    
Cr6   O19   S    
C30   C31   A    
C38   O8    A    
C15   C16   A    
C34   O26   A    
C14   C20   A    
C18   C19   A    
Cr4   O13   S    
C27   H7    S    
C46   C47   T    
C6    H11   S    
C8    C9    A    
Cr1   O1    S    
Cr5   O15   S    
C26   H5    S    
C38   C48   S    
C18   H2    S    
C25   C32   A    
C17   H16   S    
C1    O20   A    
C30   H9    S    
C43   O13   A    
C2    C6    A    
C16   H17   S    
Cr4   O7    S    
C23   O1    A    
C51   H24   S    
C28   H6    S    
C5    C48   A    
C50   H20   S    
C40   O11   A    
Cr5   O9    S    
Cr3   O5    S    
C39   O10   A    
Cr6   O18   S    
C12   C46   S    
Cr2   O2    S    
C5    H12   S    
C38   O7    A    
C2    C48   A    
C37   C43   S    
C44   O3    A    
C29   C30   A    
C3    C9    A    
Cr2   O5    S    
C11   C16   A    
C49   H18   S    
C17   C18   A    
C32   C44   S    
Cr1   O5    S    
Cr5   O16   S    
Cr1   O24   S    
C50   H21   S    
Cr3   O22   S    
Cr2   O21   S    
C49   H19   S    
C8    H14   S    
C22   C27   A    
C4    H1    S    
C9    H15   S    
C22   C24   A    
C12   O22   A    
C42   O17   A    
C15   O27   S    
C4    C10   A    
Cr4   O6    S    
C45   O24   A    
Cr6   O11   S    
C39   C47   S    
C44   O2    A    
C29   H8    S    
Cr4   O14   S    
Cr2   O26   S    
C31   H10   S    
C12   O21   A    
C24   C28   A    
Cr3   O4    S    
C4    C5    A    
C6    C7    A    
C10   C23   S    
C1    O12   A    
C41   O14   A    
C51   H22   S    
C23   O23   A    
C13   C17   A    
C45   O4    A    
C39   O9    A    
Cr1   O12   S    
C2    C3    A    
C3    C10   A    
Cr6   O17   S    
C11   C13   A    
C22   C42   S    
C33   C35   T    
C34   C36   S    
Cr1   O25   S    
C11   C40   S    
C35   C41   S    
Cr3   O23   S    
C7    H13   S    
Cr2   O20   S    
C15   C21   A    
C49   C50   S    
C36   C37   T    
O27   C49   S    
Cr5   O19   S    
C40   O6    A    
C42   O16   A    
C13   C14   A    
C20   H4    S    
Cr6   O10   S    
