data_mof_unit_23477.cif
_audit_creation_date              2012-12-10T17:50:31-0500
_audit_creation_method            fapswitch 2.2
_symmetry_space_group_name_H-M    P1
_symmetry_Int_Tables_number       1
_space_group_crystal_system       triclinic
_cell_length_a                    15.716419
_cell_length_b                    10.616798
_cell_length_c                    9.931648
_cell_angle_alpha                 90.052648
_cell_angle_beta                  89.664235
_cell_angle_gamma                 91.781492
_cell_volume                      1656.34549753

loop_
_atom_site_label
_atom_site_type_symbol
_atom_type_description
_atom_site_fract_x
_atom_site_fract_y
_atom_site_fract_z
_atom_type_partial_charge
C1    C     C_R   0.501474 0.260748 0.499887 0.843750
C2    C     C_R   0.716239 0.077514 0.669174 0.287997
C3    C     C_R   0.715798 0.945646 0.668593 -0.226288
C4    C     C_R   0.338089 0.499333 0.500362 0.886838
C5    C     C_R   0.647392 0.876500 0.614033 -0.225898
C6    C     C_R   0.577201 0.938056 0.558774 0.093321
C7    C     C_R   0.577209 0.069881 0.557946 0.045905
C8    C     C_R   0.507310 0.128740 0.499144 -0.070031
C9    C     C_R   0.441106 0.061417 0.437258 -0.217978
C10   C     C_R   0.441303 0.932738 0.437447 -0.194797
C11   C     C_R   0.507595 0.872062 0.499781 -0.086202
C12   C     C_3   0.082929 0.492182 0.502619 0.074484
C13   C     C_R   0.387502 0.335853 0.140568 -0.169741
C14   C     C_R   0.330594 0.255361 0.071470 0.240647
C15   C     C_R   0.332000 0.255270 0.931308 -0.278026
C16   C     C_R   0.502304 0.739416 0.500001 0.865903
C17   C     C_R   0.387715 0.335887 0.861115 -0.179183
C18   C     C_R   0.444524 0.419275 0.928212 0.169047
C19   C     C_R   0.444491 0.419268 0.072534 0.116682
C20   C     C_R   0.553114 0.577239 0.071005 -0.099714
C21   C     C_R   0.553098 0.577207 0.928009 -0.109153
C22   C     C_R   0.661908 0.499952 0.499692 0.873846
C23   C     C_3   0.973483 0.611833 0.513369 -0.162464
C24   C     C_3   0.968703 0.422166 0.605876 -0.189535
C25   C     C_3   0.024579 0.375546 0.489529 0.243319
C26   C     C_1   0.249166 0.496548 0.501378 -0.186172
C27   C     C_1   0.750703 0.496673 0.499128 -0.191852
C28   C     C_3   0.027706 0.541920 0.618412 -0.241686
C29   C     C_3   0.990692 0.151718 0.459415 -0.803049
C30   C     C_3   0.217854 0.225819 0.239366 -0.787484
C31   C     C_3   0.003742 0.695983 0.207839 -0.804690
C32   C     C_3   0.768841 0.241525 0.822291 -0.792077
C33   C     C_3   0.916637 0.491668 0.499731 0.136531
C34   C     C_3   0.029046 0.559531 0.399740 0.244350
C35   C     C_3   0.971016 0.441302 0.382675 -0.227719
C36   C     C_1   0.173850 0.493988 0.502179 -0.066142
C37   C     C_1   0.825901 0.493751 0.499216 -0.037768
C38   C     C_R   0.647589 0.138966 0.611579 -0.187273
H1    H     H_    0.768835 0.896015 0.709956 0.132455
H2    H     H_    0.946792 0.400930 0.286608 0.137225
H3    H     H_    0.950507 0.709372 0.521920 0.133930
H4    H     H_    0.052589 0.582610 0.713921 0.156674
H5    H     H_    0.388475 0.108767 0.391195 0.159145
H6    H     H_    0.650743 0.240481 0.605731 0.153957
H7    H     H_    0.098495 0.228141 0.552802 0.223717
H8    H     H_    0.021080 0.059578 0.445200 0.238425
H9    H     H_    0.952615 0.171319 0.368379 0.251651
H10   H     H_    0.948113 0.145653 0.549003 0.242019
H11   H     H_    0.244399 0.102916 0.082927 0.227252
H12   H     H_    0.650812 0.774928 0.613854 0.153314
H13   H     H_    0.175592 0.151096 0.284189 0.254741
H14   H     H_    0.177741 0.296167 0.189359 0.247762
H15   H     H_    0.254106 0.271315 0.322598 0.234547
H16   H     H_    0.108730 0.584524 0.233740 0.227822
H17   H     H_    0.037616 0.754424 0.130577 0.240434
H18   H     H_    0.964775 0.758947 0.270833 0.247260
H19   H     H_    0.961519 0.625545 0.156206 0.234149
H20   H     H_    0.838698 0.093836 0.747040 0.211685
H21   H     H_    0.829177 0.285514 0.859880 0.226591
H22   H     H_    0.734048 0.197116 0.908596 0.247100
H23   H     H_    0.388856 0.880082 0.391343 0.157153
H24   H     H_    0.730620 0.317529 0.779003 0.257723
H25   H     H_    0.596531 0.640447 0.124208 0.145305
H26   H     H_    0.386404 0.329425 0.247124 0.206529
H27   H     H_    0.289413 0.192533 0.875605 0.146549
H28   H     H_    0.384450 0.329855 0.754320 0.213856
H29   H     H_    0.596489 0.640414 0.874036 0.145030
H30   H     H_    0.942038 0.363860 0.689617 0.150346
N1    N     N_R   0.499210 0.498800 0.142780 -0.113717
N2    N     N_R   0.499180 0.498720 0.857170 -0.115768
N3    N     N_2   0.055757 0.249181 0.478380 -0.312884
N4    N     N_2   0.274709 0.169911 0.142537 -0.316429
N5    N     N_2   0.065148 0.633208 0.289779 -0.299399
N6    N     N_2   0.787640 0.147551 0.721491 -0.321110
O1    O     O_R   0.500000 0.316780 0.614690 -0.638822
O2    O     O_R   0.499990 0.316750 0.385360 -0.631098
O3    O     O_R   0.376780 0.500000 0.614650 -0.625749
O4    O     O_R   0.376770 0.499980 0.385310 -0.632348
O5    O     O_R   0.500010 0.683250 0.614640 -0.612804
O6    O     O_R   0.500000 0.683220 0.385310 -0.611067
O7    O     O_R   0.623230 0.500020 0.614690 -0.629821
O8    O     O_R   0.623220 0.500000 0.385350 -0.605427
Zn1   Zn    Zn3+2 0.500010 0.500020 0.653130 0.932917
Zn2   Zn    Zn3+2 0.499990 0.499980 0.346870 0.941484

loop_
_geom_bond_atom_site_label_1
_geom_bond_atom_site_label_2
_ccdc_geom_bond_type
C18   N2    A    
C30   H13   S    
H7    N3    S    
C1    C8    S    
O6    Zn2   S    
O2    Zn2   S    
C7    C8    A    
C4    O4    A    
C17   H28   S    
C29   H9    S    
C22   O8    A    
C18   C19   A    
C32   N6    S    
C5    C6    A    
C31   N5    S    
O3    Zn1   S    
C15   H27   S    
C34   C35   S    
C8    C9    A    
C23   C33   S    
H11   N4    S    
C25   N3    S    
C31   H18   S    
C12   C36   S    
C9    C10   A    
C2    N6    S    
C3    H1    S    
C13   C14   A    
C21   H29   S    
O7    Zn1   S    
C30   H15   S    
C9    H5    S    
C13   C19   A    
C21   N2    A    
C1    O1    A    
C22   O7    A    
C24   C25   S    
C6    C11   A    
C29   H10   S    
C33   C37   S    
C16   O6    A    
C38   H6    S    
H16   N5    S    
C11   C16   S    
C2    C38   A    
C4    C26   S    
C23   C34   S    
C17   C18   A    
C23   C28   S    
N2    Zn1   S    
C25   C35   S    
C26   C36   T    
C12   C28   S    
O8    Zn2   S    
C22   C27   S    
C20   N1    A    
C19   N1    A    
C10   H23   S    
C32   H22   S    
C12   C34   S    
H20   N6    S    
C15   C17   A    
C30   H14   S    
C1    O2    A    
C14   N4    S    
C24   C28   S    
C3    C5    A    
C30   N4    S    
C6    C7    A    
C12   C25   S    
C24   C33   S    
C23   H3    S    
C29   H8    S    
C16   O5    A    
C31   H19   S    
C20   H25   S    
C35   H2    S    
C32   H24   S    
C4    O3    A    
N1    Zn2   S    
O5    Zn1   S    
O1    Zn1   S    
C13   H26   S    
C27   C37   T    
C28   H4    S    
C33   C35   S    
C7    C38   A    
C2    C3    A    
C5    H12   S    
C10   C11   A    
C24   H30   S    
C34   N5    S    
O4    Zn2   S    
C20   C21   A    
C14   C15   A    
C32   H21   S    
C31   H17   S    
C29   N3    S    
