data_mof_unit_41360.cif
_audit_creation_date              2012-12-11T15:22:45-0500
_audit_creation_method            fapswitch 2.2
_symmetry_space_group_name_H-M    P1
_symmetry_Int_Tables_number       1
_space_group_crystal_system       triclinic
_cell_length_a                    22.421064
_cell_length_b                    12.964791
_cell_length_c                    26.939703
_cell_angle_alpha                 89.764504
_cell_angle_beta                  90.46647
_cell_angle_gamma                 90.220221
_cell_volume                      7830.56912318

loop_
_atom_site_label
_atom_site_type_symbol
_atom_type_description
_atom_site_fract_x
_atom_site_fract_y
_atom_site_fract_z
_atom_type_partial_charge
C1    C     C_R   0.720863 0.345346 0.178260 0.577628
C2    C     C_R   0.480491 0.256854 0.896916 -0.136176
C3    C     C_R   0.039173 0.587066 0.567281 0.334656
C4    C     C_R   0.519376 0.094893 0.400063 -0.122561
C5    C     C_R   0.512855 0.084525 0.614726 -0.114187
C6    C     C_R   0.025933 0.587104 0.401803 -0.118556
C7    C     C_R   0.016278 0.587446 0.616084 -0.117348
C8    C     C_R   0.721302 0.025699 0.381900 0.021983
C9    C     C_R   0.257161 0.949622 0.630135 0.031405
C10   C     C_R   0.238552 0.460383 0.373192 0.032688
C11   C     C_R   0.758643 0.451221 0.629420 0.031921
C12   C     C_R   0.670665 0.986464 0.405873 -0.137831
C13   C     C_R   0.020750 0.758085 0.103007 -0.135558
C14   C     C_R   0.305030 0.902878 0.605746 -0.114339
C15   C     C_R   0.187848 0.423313 0.397958 -0.125620
C16   C     C_R   0.808145 0.411352 0.604416 -0.123251
C17   C     C_R   0.671090 0.971877 0.457017 -0.102826
C18   C     C_R   0.300672 0.881373 0.555518 -0.107469
C19   C     C_R   0.188657 0.412745 0.449059 -0.108629
C20   C     C_R   0.804748 0.392520 0.553945 -0.117540
C21   C     C_R   0.722065 0.996785 0.485094 0.048236
C22   C     C_R   0.248065 0.904638 0.529448 0.045992
C23   C     C_R   0.240605 0.436299 0.475913 0.046851
C24   C     C_R   0.980495 0.756854 0.896915 -0.136305
C25   C     C_R   0.751301 0.410317 0.528052 0.042686
C26   C     C_R   0.772396 0.037323 0.461195 -0.124388
C27   C     C_R   0.198061 0.940484 0.554984 -0.123101
C28   C     C_R   0.292686 0.465420 0.450906 -0.125346
C29   C     C_R   0.699934 0.438469 0.554197 -0.123270
C30   C     C_R   0.772080 0.051371 0.410061 -0.122864
C31   C     C_R   0.202604 0.963156 0.605169 -0.125889
C32   C     C_R   0.291650 0.477691 0.399722 -0.127067
C33   C     C_R   0.703701 0.459783 0.604644 -0.125475
C34   C     C_R   0.757141 0.033677 0.571296 -0.102338
C35   C     C_R   0.508818 0.259362 0.051878 0.014292
C36   C     C_R   0.219280 0.974765 0.446775 -0.108044
C37   C     C_R   0.271985 0.498564 0.559250 -0.097640
C38   C     C_R   0.716113 0.476105 0.446078 -0.109545
C39   C     C_R   0.721419 0.347847 0.321653 0.554295
C40   C     C_R   0.278378 0.348436 0.678671 0.576694
C41   C     C_R   0.221002 0.846337 0.322132 0.566023
C42   C     C_R   0.778329 0.848841 0.678704 0.577360
C43   C     C_R   0.773756 0.997145 0.618701 0.276549
C44   C     C_R   0.213103 0.963816 0.395080 0.275054
C45   C     C_R   0.282343 0.478536 0.609959 0.281514
C46   C     C_R   0.491478 0.258558 0.948205 0.014549
C47   C     C_R   0.709187 0.464684 0.394503 0.277481
C48   C     C_R   0.719191 0.838113 0.601446 -0.184522
C49   C     C_R   0.269456 0.803508 0.401263 -0.184159
C50   C     C_R   0.221689 0.322558 0.601830 -0.182504
C51   C     C_R   0.779810 0.322405 0.398090 -0.180539
C52   C     C_R   0.705363 0.873238 0.554099 -0.116849
C53   C     C_R   0.272763 0.812850 0.452214 -0.143411
C54   C     C_R   0.214370 0.340613 0.551743 -0.127631
C55   C     C_R   0.783422 0.330502 0.449140 -0.136237
C56   C     C_R   0.726039 0.969616 0.538057 0.018609
C57   C     C_R   0.008827 0.759363 0.051875 0.014271
C58   C     C_R   0.246433 0.896992 0.475365 -0.003590
C59   C     C_R   0.241301 0.426403 0.529863 0.016041
C60   C     C_R   0.749983 0.405020 0.473697 -0.001955
C61   C     C_R   0.755309 0.897457 0.633215 0.037431
C62   C     C_R   0.237884 0.876256 0.372559 0.037448
C63   C     C_R   0.258113 0.387747 0.630622 0.042616
C64   C     C_R   0.739943 0.384214 0.370851 0.039104
C65   C     C_R   0.578717 0.155433 0.327245 0.532310
C66   C     C_R   0.446738 0.159168 0.678873 0.548146
C67   C     C_R   0.079220 0.655261 0.327239 0.556346
C68   C     C_R   0.991483 0.758558 0.948202 0.014555
C69   C     C_R   0.946790 0.659186 0.678880 0.547215
C70   C     C_R   0.719601 0.045917 0.328295 0.546405
C71   C     C_R   0.267905 0.001043 0.677447 0.549103
C72   C     C_R   0.231428 0.502423 0.323292 0.542720
C73   C     C_R   0.768091 0.501250 0.677297 0.549335
C74   C     C_R   0.511874 0.071071 0.103778 -0.129319
C75   C     C_R   0.480693 0.069286 0.898622 -0.128865
C76   C     C_R   0.011875 0.571072 0.103777 -0.128989
C77   C     C_R   0.980692 0.569285 0.898621 -0.129060
C78   C     C_R   0.502154 0.070788 0.052843 0.013304
C79   C     C_R   0.501396 0.165048 0.026547 0.064425
C80   C     C_R   0.489155 0.069727 0.949673 0.012619
C81   C     C_R   0.002154 0.570790 0.052842 0.013307
C82   C     C_R   0.989155 0.569727 0.949672 0.012627
C83   C     C_R   0.490181 0.976558 0.976161 -0.137218
C84   C     C_R   0.496131 0.977124 0.027556 -0.135910
C85   C     C_R   0.990177 0.476559 0.976161 -0.137229
C86   C     C_R   0.996127 0.477126 0.027556 -0.135837
C87   C     C_3   0.876129 0.052845 0.884845 -0.107939
C88   C     C_3   0.126080 0.058282 0.114269 -0.108828
C89   C     C_3   0.376181 0.552744 0.884906 -0.108244
C90   C     C_R   0.494159 0.164559 0.974773 0.064499
C91   C     C_3   0.626028 0.558142 0.114258 -0.107889
C92   C     C_3   0.547827 0.904909 0.564129 -0.135072
C93   C     C_3   0.463394 0.932528 0.453554 -0.118541
C94   C     C_3   0.061715 0.410928 0.568981 -0.122280
C95   C     C_3   0.979434 0.418824 0.457232 -0.121648
C96   C     C_3   0.855723 0.103079 0.630709 -0.114076
C97   C     C_3   0.131843 0.072236 0.385480 -0.111773
C98   C     C_3   0.364772 0.586413 0.618025 -0.116704
C99   C     C_3   0.619083 0.550674 0.387278 -0.108162
C100  C     C_R   0.001400 0.665049 0.026545 0.064384
C101  C     C_R   0.279202 0.345027 0.821832 0.574994
C102  C     C_R   0.994162 0.664559 0.974771 0.064530
C103  C     C_R   0.506812 0.352557 0.025198 -0.137889
C104  C     C_R   0.497619 0.352194 0.973755 -0.138630
C105  C     C_R   0.006825 0.852557 0.025195 -0.137790
C106  C     C_R   0.997628 0.852194 0.973752 -0.138634
C107  C     C_R   0.740387 0.954664 0.130641 0.027615
C108  C     C_R   0.259703 0.954687 0.869523 0.029206
C109  C     C_R   0.240407 0.454586 0.130663 0.028418
C110  C     C_R   0.759697 0.454660 0.869516 0.029437
C111  C     C_R   0.794565 0.968888 0.105788 -0.127590
C112  C     C_R   0.220864 0.845351 0.178262 0.576528
C113  C     C_R   0.205551 0.968191 0.894349 -0.128658
C114  C     C_R   0.294594 0.468770 0.105820 -0.127863
C115  C     C_R   0.705541 0.468145 0.894338 -0.128515
C116  C     C_R   0.798179 0.948850 0.055202 -0.119692
C117  C     C_R   0.202177 0.949002 0.945079 -0.120336
C118  C     C_R   0.298223 0.448682 0.055240 -0.119755
C119  C     C_R   0.702161 0.448935 0.945065 -0.120310
C120  C     C_R   0.747597 0.914977 0.028757 0.041499
C121  C     C_R   0.252968 0.916701 0.971607 0.041801
C122  C     C_R   0.247647 0.414801 0.028790 0.041498
C123  C     C_R   0.779197 0.845042 0.821825 0.576740
C124  C     C_R   0.752950 0.416635 0.971596 0.041788
C125  C     C_R   0.694756 0.893413 0.054345 -0.112611
C126  C     C_R   0.305794 0.895840 0.946119 -0.112743
C127  C     C_R   0.194799 0.393253 0.054373 -0.112746
C128  C     C_R   0.805780 0.395784 0.946110 -0.112716
C129  C     C_R   0.553410 0.157380 0.177667 0.556518
C130  C     C_R   0.446196 0.157148 0.822572 0.546001
C131  C     C_R   0.053412 0.657379 0.177666 0.556781
C132  C     C_R   0.946196 0.657148 0.822572 0.545799
C133  C     C_R   0.691294 0.912410 0.104974 -0.114941
C134  C     C_R   0.473190 0.162153 0.872310 -0.001299
C135  C     C_R   0.309009 0.913899 0.895370 -0.114724
C136  C     C_R   0.191323 0.412299 0.104997 -0.114777
C137  C     C_R   0.809000 0.413863 0.895363 -0.114537
C138  C     C_R   0.721867 0.821395 0.951020 -0.139743
C139  C     C_R   0.278680 0.823492 0.049491 -0.140367
C140  C     C_R   0.221906 0.321269 0.951037 -0.139858
C141  C     C_R   0.778672 0.323453 0.049487 -0.140314
C142  C     C_R   0.727082 0.808485 0.900169 -0.178839
C143  C     C_R   0.273308 0.810199 0.100295 -0.178822
C144  C     C_R   0.227106 0.308408 0.900181 -0.178759
C145  C     C_R   0.524662 0.163574 0.128638 -0.003748
C146  C     C_R   0.773305 0.310179 0.100294 -0.178907
C147  C     C_R   0.787777 0.964331 0.894602 0.280824
C148  C     C_R   0.212990 0.965760 0.105484 0.281074
C149  C     C_R   0.287822 0.464235 0.894640 0.280609
C150  C     C_R   0.712969 0.465720 0.105470 0.281182
C151  C     C_R   0.779935 0.978927 0.945811 -0.103828
C152  C     C_R   0.220962 0.980685 0.054232 -0.104157
C153  C     C_R   0.279990 0.478785 0.945853 -0.103737
C154  C     C_R   0.720937 0.480628 0.054217 -0.104078
C155  C     C_R   0.749626 0.905049 0.974424 -0.006195
C156  C     C_R   0.973191 0.662152 0.872309 -0.001467
C157  C     C_R   0.251089 0.907026 0.025898 -0.005655
C158  C     C_R   0.249679 0.404894 0.974456 -0.006203
C159  C     C_R   0.751070 0.406969 0.025887 -0.005624
C160  C     C_R   0.761608 0.877318 0.871816 0.040393
C161  C     C_R   0.238765 0.878514 0.128390 0.040650
C162  C     C_R   0.261632 0.377259 0.871836 0.040369
C163  C     C_R   0.738758 0.378494 0.128384 0.040542
C164  C     C_R   0.561153 0.163452 0.379591 -0.023027
C165  C     C_R   0.480715 0.169077 0.632533 -0.017627
C166  C     C_R   0.062565 0.662441 0.379936 -0.019060
C167  C     C_R   0.024666 0.663575 0.128636 -0.002955
C168  C     C_R   0.981053 0.669468 0.632652 -0.017221
C169  C     C_R   0.590092 0.235068 0.410304 -0.159473
C170  C     C_R   0.475280 0.257924 0.603003 -0.149194
C171  C     C_R   0.086865 0.740973 0.409490 -0.156358
C172  C     C_R   0.973320 0.756383 0.602184 -0.148902
C173  C     C_R   0.578224 0.237468 0.461000 -0.173510
C174  C     C_R   0.497459 0.259048 0.554848 -0.175302
C175  C     C_R   0.075581 0.743495 0.460309 -0.173811
C176  C     C_R   0.996135 0.757650 0.554267 -0.176436
C177  C     C_R   0.731400 0.001401 0.179504 0.559264
C178  C     C_R   0.520740 0.258084 0.103010 -0.136037
C179  C     C_R   0.268563 0.001314 0.820490 0.545755
C180  C     C_R   0.231404 0.501385 0.179510 0.549353
C181  C     C_R   0.768562 0.501309 0.820488 0.546039
C182  C     C_R   0.537521 0.167582 0.481781 0.080505
C183  C     C_R   0.524919 0.171267 0.535409 0.084566
C184  C     C_R   0.039922 0.667239 0.482404 0.082936
C185  C     C_R   0.026929 0.672126 0.536010 0.083513
C186  C     C_R   0.507553 0.095267 0.451418 0.313367
C187  C     C_R   0.534331 0.083599 0.565598 0.333615
C188  C     C_R   0.014486 0.588072 0.453198 0.319453
Cr1   Cr    Cr6+3 0.756570 0.170940 0.251190 1.002689
Cr2   Cr    Cr6+3 0.374010 0.036240 0.749520 1.014518
Cr3   Cr    Cr6+3 0.125990 0.536240 0.250480 1.011195
Cr4   Cr    Cr6+3 0.874010 0.536240 0.749520 1.013032
Cr5   Cr    Cr6+3 0.243430 0.170940 0.748810 1.006518
Cr6   Cr    Cr6+3 0.256570 0.670940 0.251190 1.005566
Cr7   Cr    Cr6+3 0.743430 0.670940 0.748810 1.010149
Cr8   Cr    Cr6+3 0.623740 0.299110 0.249580 1.041533
Cr9   Cr    Cr6+3 0.376260 0.299110 0.750420 1.042774
Cr10  Cr    Cr6+3 0.123740 0.799110 0.249580 1.045452
Cr11  Cr    Cr6+3 0.876260 0.799110 0.750420 1.041979
Cr12  Cr    Cr6+3 0.625990 0.036240 0.250480 1.015888
H1    H     H_    0.475380 0.995704 0.880067 0.128120
H2    H     H_    0.351463 0.902978 0.877252 0.127941
H3    H     H_    0.005497 0.528910 0.378544 0.127388
H4    H     H_    0.630717 0.966644 0.385132 0.129056
H5    H     H_    0.347483 0.890699 0.624301 0.126942
H6    H     H_    0.146098 0.409832 0.378477 0.125837
H7    H     H_    0.851077 0.403163 0.622721 0.129463
H8    H     H_    0.843769 0.173978 0.609667 0.105813
H9    H     H_    0.879977 0.047776 0.606635 0.093511
H10   H     H_    0.886903 0.126494 0.660827 0.142669
H11   H     H_    0.139802 0.133111 0.413685 0.100635
H12   H     H_    0.105135 0.007481 0.401320 0.097330
H13   H     H_    0.148857 0.400761 0.123130 0.128879
H14   H     H_    0.104771 0.107304 0.355227 0.146008
H15   H     H_    0.353594 0.653031 0.593662 0.103229
H16   H     H_    0.389400 0.526240 0.597121 0.092264
H17   H     H_    0.395267 0.615376 0.647493 0.141208
H18   H     H_    0.622200 0.612011 0.415843 0.099655
H19   H     H_    0.598878 0.479197 0.403080 0.098693
H20   H     H_    0.588408 0.578855 0.357741 0.147076
H21   H     H_    0.704997 0.761094 0.611898 0.135398
H22   H     H_    0.287916 0.734583 0.384873 0.146801
H23   H     H_    0.202843 0.252161 0.616946 0.139440
H24   H     H_    0.851457 0.402951 0.877248 0.127925
H25   H     H_    0.804752 0.261656 0.380476 0.131197
H26   H     H_    0.622998 0.287433 0.395202 0.128559
H27   H     H_    0.450820 0.324325 0.615994 0.138019
H28   H     H_    0.115465 0.799342 0.393382 0.135059
H29   H     H_    0.946507 0.820812 0.614227 0.138218
H30   H     H_    0.601378 0.292940 0.484229 0.113295
H31   H     H_    0.490037 0.326331 0.531654 0.105795
H32   H     H_    0.095049 0.804550 0.482579 0.112405
H33   H     H_    0.514207 0.997844 0.123297 0.129017
H34   H     H_    0.986645 0.822977 0.530306 0.109096
H35   H     H_    0.769958 0.110490 0.559535 0.104902
H36   H     H_    0.202721 0.043108 0.464911 0.101983
H37   H     H_    0.288997 0.568274 0.542168 0.094894
H38   H     H_    0.694593 0.539303 0.464839 0.100995
H39   H     H_    0.485751 0.903348 0.957174 0.095768
H40   H     H_    0.497015 0.904299 0.047446 0.098128
H41   H     H_    0.985744 0.403348 0.957174 0.095677
H42   H     H_    0.997009 0.404301 0.047446 0.098067
H43   H     H_    0.631899 0.939627 0.474353 0.152570
H44   H     H_    0.975376 0.495703 0.880067 0.127958
H45   H     H_    0.339706 0.853061 0.536551 0.095665
H46   H     H_    0.148026 0.389963 0.467669 0.118371
H47   H     H_    0.845085 0.370796 0.534869 0.106616
H48   H     H_    0.681669 0.822040 0.529069 0.109355
H49   H     H_    0.294010 0.752137 0.473628 0.109897
H50   H     H_    0.190520 0.283961 0.529699 0.103026
H51   H     H_    0.810561 0.275454 0.469396 0.103141
H52   H     H_    0.812887 0.054631 0.481774 0.088922
H53   H     H_    0.156419 0.955443 0.535632 0.088550
H54   H     H_    0.333790 0.480586 0.471038 0.093968
H55   H     H_    0.014204 0.497847 0.123296 0.128914
H56   H     H_    0.657584 0.448689 0.535218 0.088276
H57   H     H_    0.811921 0.081208 0.392625 0.122362
H58   H     H_    0.164768 0.997528 0.623487 0.122687
H59   H     H_    0.331287 0.506094 0.381356 0.124343
H60   H     H_    0.664726 0.488827 0.623445 0.122292
H61   H     H_    0.474786 0.328719 0.876753 0.115601
H62   H     H_    0.530311 0.329769 0.122110 0.119185
H63   H     H_    0.974790 0.828719 0.876751 0.115509
H64   H     H_    0.030326 0.829769 0.122106 0.119413
H65   H     H_    0.495549 0.425019 0.953950 0.089924
H66   H     H_    0.655124 0.867206 0.034828 0.101575
H67   H     H_    0.512398 0.425617 0.044085 0.089760
H68   H     H_    0.995560 0.925018 0.953947 0.089888
H69   H     H_    0.012415 0.925617 0.044082 0.089833
H70   H     H_    0.833176 0.000727 0.124772 0.124312
H71   H     H_    0.166804 0.998920 0.875201 0.122152
H72   H     H_    0.333201 0.500622 0.124806 0.123555
H73   H     H_    0.666795 0.498877 0.875189 0.122279
H74   H     H_    0.698213 0.763383 0.972280 0.112475
H75   H     H_    0.302225 0.765745 0.028401 0.112886
H76   H     H_    0.198249 0.263248 0.972288 0.112382
H77   H     H_    0.345564 0.870851 0.965762 0.101866
H78   H     H_    0.802223 0.265706 0.028401 0.112856
H79   H     H_    0.707490 0.740034 0.883722 0.142706
H80   H     H_    0.292717 0.741714 0.116882 0.143356
H81   H     H_    0.207502 0.239981 0.883722 0.142782
H82   H     H_    0.792724 0.241708 0.116886 0.143067
H83   H     H_    0.839999 0.962906 0.036438 0.100894
H84   H     H_    0.160394 0.962448 0.963861 0.100504
H85   H     H_    0.340049 0.462722 0.036481 0.100829
H86   H     H_    0.660376 0.462372 0.963846 0.100533
H87   H     H_    0.798005 0.047176 0.963488 0.102173
H88   H     H_    0.155172 0.367037 0.034854 0.101457
H89   H     H_    0.203148 0.048861 0.036257 0.101045
H90   H     H_    0.298070 0.547015 0.963542 0.102203
H91   H     H_    0.703113 0.548792 0.036238 0.101092
H92   H     H_    0.898340 0.979673 0.896366 0.103780
H93   H     H_    0.875336 0.108303 0.916139 0.095338
H94   H     H_    0.903662 0.087925 0.855160 0.141034
H95   H     H_    0.102932 0.987297 0.100874 0.099530
H96   H     H_    0.129025 0.116717 0.084121 0.097500
H97   H     H_    0.098174 0.091640 0.143936 0.142775
H98   H     H_    0.398382 0.479568 0.896433 0.104062
H99   H     H_    0.845549 0.370795 0.965754 0.101863
H100  H     H_    0.375383 0.608205 0.916199 0.095471
H101  H     H_    0.403725 0.587815 0.855227 0.141166
H102  H     H_    0.602902 0.487110 0.100896 0.099025
H103  H     H_    0.628934 0.616533 0.084088 0.097408
H104  H     H_    0.598124 0.591513 0.143923 0.143697
H105  H     H_    0.498357 0.898729 0.566478 0.119783
H106  H     H_    0.569317 0.888282 0.600568 0.121706
H107  H     H_    0.562732 0.844650 0.537944 0.110252
H108  H     H_    0.509350 0.902110 0.448415 0.103585
H109  H     H_    0.437330 0.928921 0.418372 0.121568
H110  H     H_    0.648833 0.900852 0.123113 0.129069
H111  H     H_    0.440753 0.881093 0.480543 0.122921
H112  H     H_    0.012765 0.397158 0.571525 0.114134
H113  H     H_    0.083932 0.400974 0.605684 0.120553
H114  H     H_    0.079730 0.351105 0.543985 0.115683
H115  H     H_    0.026764 0.395791 0.451796 0.105767
H116  H     H_    0.953109 0.409646 0.422425 0.116721
H117  H     H_    0.960088 0.365030 0.484942 0.119051
H118  H     H_    0.519348 0.018613 0.638876 0.113536
H119  H     H_    0.495754 0.042211 0.375816 0.129064
H120  H     H_    0.024329 0.523367 0.641047 0.109637
O1    O     O_R   0.769900 0.064540 0.196060 -0.517991
O2    O     O_R   0.433710 0.069580 0.694600 -0.521347
O3    O     O_R   0.066290 0.569580 0.305400 -0.522759
O4    O     O_R   0.933710 0.569580 0.694600 -0.521456
O5    O     O_R   0.680760 0.993330 0.302620 -0.500170
O6    O     O_R   0.319240 0.993330 0.697380 -0.500691
O7    O     O_R   0.180760 0.493330 0.302620 -0.516228
O8    O     O_R   0.819240 0.493330 0.697380 -0.501854
O9    O     O_3   0.668770 0.168760 0.250420 -0.287731
O10   O     O_3   0.331230 0.168760 0.749580 -0.247288
O11   O     O_3   0.168770 0.668760 0.250420 -0.268348
O12   O     O_R   0.230100 0.064540 0.803940 -0.525196
O13   O     O_3   0.831230 0.668760 0.749580 -0.247776
O14   O     O_R   0.750800 0.274080 0.199250 -0.516496
O15   O     O_R   0.249200 0.274080 0.800750 -0.519342
O16   O     O_R   0.250800 0.774080 0.199250 -0.516470
O17   O     O_R   0.749200 0.774080 0.800750 -0.519115
O18   O     O_R   0.669990 0.371670 0.194150 -0.467291
O19   O     O_R   0.330010 0.371670 0.805850 -0.470521
O20   O     O_R   0.169990 0.871670 0.194150 -0.468737
O21   O     O_R   0.830010 0.871670 0.805850 -0.469324
O22   O     O_R   0.574600 0.238480 0.197800 -0.499491
O23   O     O_R   0.269900 0.564540 0.196060 -0.522263
O24   O     O_R   0.425400 0.238480 0.802200 -0.506787
O25   O     O_R   0.074600 0.738480 0.197800 -0.500561
O26   O     O_R   0.925400 0.738480 0.802200 -0.506802
O27   O     O_R   0.566130 0.068680 0.194240 -0.519317
O28   O     O_R   0.433870 0.068680 0.805760 -0.525642
O29   O     O_R   0.066130 0.568680 0.194240 -0.519828
O30   O     O_R   0.933870 0.568680 0.805760 -0.525893
O31   O     O_R   0.680610 0.992490 0.199570 -0.494762
O32   O     O_R   0.319390 0.992490 0.800430 -0.501788
O33   O     O_R   0.180610 0.492490 0.199570 -0.500023
O34   O     O_R   0.730100 0.564540 0.803940 -0.525279
O35   O     O_R   0.819390 0.492490 0.800430 -0.501613
O36   O     O_R   0.770060 0.065440 0.307230 -0.510759
O37   O     O_R   0.229940 0.065440 0.692770 -0.526205
O38   O     O_R   0.270060 0.565440 0.307230 -0.524595
O39   O     O_R   0.729940 0.565440 0.692770 -0.523595
O40   O     O_R   0.750960 0.274920 0.302300 -0.537607
O41   O     O_R   0.249040 0.274920 0.697700 -0.520574
O42   O     O_R   0.250960 0.774920 0.302300 -0.520709
O43   O     O_R   0.749040 0.774920 0.697700 -0.515886
O44   O     O_R   0.670160 0.372580 0.305320 -0.473330
O45   O     O_R   0.574760 0.239320 0.300850 -0.488658
O46   O     O_R   0.329840 0.372580 0.694680 -0.470196
O47   O     O_R   0.170160 0.872580 0.305320 -0.480467
O48   O     O_R   0.829840 0.872580 0.694680 -0.473383
O49   O     O_3   0.818043 0.036122 0.865759 -0.539857
O50   O     O_3   0.183163 0.037267 0.134351 -0.540157
O51   O     O_3   0.318097 0.536036 0.865810 -0.541127
O52   O     O_3   0.683130 0.537225 0.134327 -0.538941
O53   O     O_3   0.566652 0.001918 0.545963 -0.570685
O54   O     O_3   0.463391 0.033789 0.472658 -0.551099
O55   O     O_3   0.075295 0.508820 0.548820 -0.554870
O56   O     O_R   0.425240 0.239320 0.699150 -0.504059
O57   O     O_3   0.974225 0.520336 0.475454 -0.551434
O58   O     O_3   0.804608 0.058536 0.652508 -0.538286
O59   O     O_3   0.186363 0.038729 0.365313 -0.538026
O60   O     O_3   0.312896 0.546990 0.640788 -0.539541
O61   O     O_3   0.675466 0.532943 0.365965 -0.533271
O62   O     O_R   0.074760 0.739320 0.300850 -0.492244
O63   O     O_R   0.925240 0.739320 0.699150 -0.504666
O64   O     O_R   0.566290 0.069580 0.305400 -0.527641

loop_
_geom_bond_atom_site_label_1
_geom_bond_atom_site_label_2
_ccdc_geom_bond_type
C7    C168  A    
C34   C56   A    
C97   H12   S    
C49   H22   S    
C30   H57   S    
C21   C26   A    
C150  C163  A    
Cr7   O43   S    
C87   H93   S    
C177  O1    A    
C138  H74   S    
Cr4   O8    S    
C77   C156  A    
C188  O57   S    
Cr5   O37   S    
C96   H8    S    
C92   H105  S    
C34   H35   S    
C77   H44   S    
C29   C33   A    
C4    C186  A    
C76   H55   S    
C149  C153  A    
C182  C183  S    
C79   C90   A    
Cr8   O44   S    
C69   O4    A    
C91   H102  S    
C25   C60   S    
C103  H67   S    
Cr4   O13   S    
C129  C145  S    
C81   C86   A    
C35   C178  A    
C97   O59   S    
C101  O19   A    
C130  C134  S    
C72   O38   A    
C80   C83   A    
C52   H48   S    
C70   O5    A    
C123  O21   A    
C25   C29   A    
C27   C31   A    
C140  C144  A    
C28   C32   A    
C127  C136  A    
C69   O63   A    
C41   O47   A    
C47   C64   A    
C120  C125  A    
C120  C155  S    
C17   C21   A    
C108  C113  A    
C19   C23   A    
C3    C185  A    
C115  H73   S    
C186  O54   S    
C153  H90   S    
C16   C20   A    
C87   H92   S    
C122  C158  S    
C129  O27   A    
C2    C134  A    
C119  H86   S    
Cr9   O19   S    
C173  C182  A    
C97   H14   S    
C36   C44   A    
Cr2   O2    S    
C37   C45   A    
C133  H110  S    
C43   C61   A    
C170  C174  A    
C152  C157  A    
C49   C62   A    
C51   C64   A    
C151  H87   S    
C22   C58   S    
C53   C58   A    
C92   H107  S    
C82   C85   A    
Cr9   O46   S    
C35   C103  A    
C94   H113  S    
Cr11  O48   S    
C71   O37   A    
C69   C168  S    
C6    H3    S    
C131  O29   A    
C77   C82   A    
C49   C53   A    
C70   O36   A    
C47   O61   S    
C51   C55   A    
C45   O60   S    
Cr10  O25   S    
C41   O42   A    
C65   O64   A    
Cr11  O13   S    
C171  H28   S    
C17   H43   S    
C71   O6    A    
Cr10  O47   S    
C144  H81   S    
C169  H26   S    
C116  H83   S    
C149  C162  A    
C111  H70   S    
C143  C161  A    
C24   C156  A    
C92   O53   S    
Cr1   O1    S    
C181  O34   A    
C94   O55   S    
C122  C127  A    
C74   C145  A    
C75   C134  A    
Cr4   O30   S    
Cr3   O33   S    
C85   C86   A    
C72   O7    A    
C23   C59   S    
C137  H24   S    
C65   O45   A    
Cr11  O26   S    
Cr3   O11   S    
C95   H116  S    
C13   C57   A    
C93   O54   S    
C154  H91   S    
C184  C185  S    
C118  C122  A    
Cr10  O11   S    
C118  H85   S    
C140  C158  A    
Cr12  O5    S    
C139  C143  A    
C141  C159  A    
C110  C181  S    
Cr5   O15   S    
Cr2   O32   S    
Cr7   O13   S    
C89   H101  S    
C149  O51   S    
C91   H103  S    
C107  C177  S    
C50   C63   A    
C139  H75   S    
C147  C160  A    
Cr4   O4    S    
C54   C59   A    
C88   O50   S    
C96   H10   S    
Cr1   O36   S    
C11   C33   A    
C104  H65   S    
C108  C135  A    
C178  H62   S    
Cr7   O34   S    
Cr4   O35   S    
C116  C120  A    
C108  C179  S    
C12   C17   A    
C147  C151  A    
C38   H38   S    
C83   C84   A    
C4    H119  S    
C99   H18   S    
C48   C52   A    
C8    C12   A    
C150  O52   S    
C82   C102  A    
C99   O61   S    
C23   C28   A    
C99   H20   S    
Cr11  O63   S    
C37   C59   A    
C26   H52   S    
C109  C114  A    
C113  C117  A    
C123  O17   A    
Cr5   O41   S    
C26   C30   A    
C132  O26   A    
C38   C60   A    
C98   H17   S    
C179  O12   A    
C67   C166  S    
C136  H13   S    
C175  H32   S    
C97   H11   S    
C66   C165  S    
Cr1   O9    S    
C18   C22   A    
C107  C111  A    
Cr5   O10   S    
C113  H71   S    
C114  H72   S    
C172  H29   S    
C36   H36   S    
C67   O3    A    
C8    C70   S    
C151  C155  A    
C88   H95   S    
C117  H84   S    
C154  C159  A    
C66   O56   A    
C177  O31   A    
C109  C180  S    
C92   H106  S    
C24   H63   S    
C35   C79   A    
C143  H80   S    
C132  C156  S    
Cr7   O17   S    
C31   H58   S    
C12   H4    S    
C173  H30   S    
C129  O22   A    
C169  C173  A    
C1    O18   A    
C55   C60   A    
C172  C176  A    
C19   H46   S    
C10   C72   S    
C138  C155  A    
C98   H15   S    
C6    C166  A    
Cr6   O16   S    
Cr3   O29   S    
Cr9   O56   S    
C131  O25   A    
C16   H7    S    
Cr8   O18   S    
C75   H1    S    
C176  C185  A    
C148  O50   S    
C39   C64   S    
C43   O58   S    
C50   C54   A    
C40   C63   S    
C101  C162  S    
C66   O2    A    
C68   C102  A    
C141  H78   S    
C3    C7    A    
C20   C25   A    
C182  C186  A    
Cr2   O10   S    
C20   H47   S    
C145  C178  A    
C5    H118  S    
C111  C116  A    
C44   O59   S    
C146  H82   S    
C124  C128  A    
C170  H27   S    
Cr5   O12   S    
C41   C62   S    
Cr12  O64   S    
C112  O20   A    
C89   H98   S    
C105  H69   S    
C50   H23   S    
C126  H77   S    
C7    H120  S    
C87   H94   S    
C34   C43   A    
C148  C152  A    
C180  O33   A    
C138  C142  A    
C101  O15   A    
Cr11  O21   S    
Cr12  O31   S    
C46   C104  A    
C94   H114  S    
C115  C119  A    
C121  C126  A    
C40   O41   A    
Cr2   O28   S    
C142  H79   S    
C9    C14   A    
C130  O24   A    
C183  C187  A    
C11   C16   A    
C85   H41   S    
C54   H50   S    
C74   H33   S    
C3    O55   S    
C141  C146  A    
C93   H108  S    
C99   H19   S    
C126  C135  A    
C11   C73   S    
Cr3   O3    S    
C5    C187  A    
C112  O16   A    
C128  H99   S    
C42   O43   A    
C165  C170  A    
C42   O48   A    
C106  H68   S    
C127  H88   S    
C110  C137  A    
C9    C71   S    
C174  C183  A    
C21   C56   S    
C46   C90   A    
C81   C100  A    
C105  C106  A    
Cr1   O14   S    
Cr8   O45   S    
C8    C30   A    
C95   H115  S    
C107  C133  A    
C130  O28   A    
C95   O57   S    
C93   H109  S    
C131  C167  S    
C132  O30   A    
C13   H64   S    
C24   C68   A    
C168  C172  A    
C1    C163  S    
C74   C78   A    
C14   H5    S    
C103  C104  A    
C40   O46   A    
C110  C115  A    
C180  O23   A    
C89   H100  S    
C175  C184  A    
C57   C105  A    
C125  H66   S    
C14   C18   A    
C152  H89   S    
C18   H45   S    
C119  C124  A    
C2    C46   A    
C93   H111  S    
C94   H112  S    
C148  C161  A    
C28   H54   S    
C36   C58   A    
C10   C15   A    
C13   C167  A    
C2    H61   S    
C48   H21   S    
C124  C159  S    
C123  C160  S    
C153  C158  A    
C33   H60   S    
C76   C167  A    
C29   H56   S    
C117  C121  A    
C15   C19   A    
C176  H34   S    
C139  C157  A    
C51   H25   S    
C4    C164  A    
C5    C165  A    
Cr8   O22   S    
C174  H31   S    
Cr6   O38   S    
C86   H42   S    
C166  C171  A    
C121  C157  S    
C181  O35   A    
C109  C136  A    
C164  C169  A    
C84   H40   S    
C68   C106  A    
C135  H2    S    
Cr6   O11   S    
C83   H39   S    
C87   O49   S    
C147  O49   S    
C73   O39   A    
Cr2   O6    S    
C78   C79   A    
C44   C62   A    
C57   C100  A    
C171  C175  A    
C45   C63   A    
C184  C188  A    
C88   H96   S    
C128  C137  A    
C89   O51   S    
C10   C32   A    
Cr10  O20   S    
C37   H37   S    
C179  O32   A    
Cr10  O62   S    
C100  C102  A    
C39   O40   A    
C187  O53   S    
C53   H49   S    
C98   O60   S    
C27   H53   S    
C42   C61   S    
C38   C47   A    
C114  C118  A    
Cr6   O42   S    
C6    C188  A    
C91   H104  S    
C55   H51   S    
Cr1   O40   S    
C91   O52   S    
C75   C80   A    
C125  C133  A    
Cr6   O23   S    
Cr12  O27   S    
C98   H16   S    
C96   H9    S    
C144  C162  A    
Cr8   O9    S    
C32   H59   S    
C142  C160  A    
C76   C81   A    
C96   O58   S    
C146  C163  A    
C22   C27   A    
C140  H76   S    
Cr9   O10   S    
C1    O14   A    
C48   C61   A    
Cr9   O24   S    
C15   H6    S    
C65   C164  S    
Cr3   O7    S    
C80   C90   A    
C39   O44   A    
C112  C161  S    
C9    C31   A    
Cr7   O39   S    
C73   O8    A    
C78   C84   A    
C150  C154  A    
C67   O62   A    
C95   H117  S    
C88   H97   S    
C52   C56   A    
Cr12  O9    S    
