data_mof_unit_26100.cif
_audit_creation_date              2012-12-10T18:09:31-0500
_audit_creation_method            fapswitch 2.2
_symmetry_space_group_name_H-M    P1
_symmetry_Int_Tables_number       1
_space_group_crystal_system       triclinic
_cell_length_a                    15.334618
_cell_length_b                    15.034383
_cell_length_c                    9.400247
_cell_angle_alpha                 89.958817
_cell_angle_beta                  89.824248
_cell_angle_gamma                 89.959998
_cell_volume                      2167.18295407

loop_
_atom_site_label
_atom_site_type_symbol
_atom_type_description
_atom_site_fract_x
_atom_site_fract_y
_atom_site_fract_z
_atom_type_partial_charge
C1    C     C_R   0.121766 0.381493 0.500094 0.781308
C2    C     C_R   0.120757 0.619453 0.500072 0.793771
C3    C     C_R   0.621766 0.881493 0.500094 0.781308
C4    C     C_R   0.620757 0.119453 0.500072 0.793772
C5    C     C_3   0.050024 0.576957 0.083452 -0.184090
C6    C     C_3   0.049825 0.577115 0.915925 -0.195294
C7    C     C_3   0.550024 0.076957 0.083452 -0.184090
C8    C     C_3   0.549825 0.077115 0.915925 -0.195294
C9    C     C_R   0.881720 0.378104 0.500359 0.777300
C10   C     C_R   0.884137 0.624008 0.500288 0.788550
C11   C     C_R   0.381720 0.878104 0.500359 0.777300
C12   C     C_R   0.384137 0.124008 0.500288 0.788550
C13   C     C_3   0.801023 0.267983 0.655293 0.148511
C14   C     C_3   0.836794 0.230859 0.390912 0.121254
C15   C     C_3   0.810210 0.740904 0.652739 0.128381
C16   C     C_3   0.834725 0.766619 0.381847 0.137338
C17   C     C_3   0.301023 0.767983 0.655293 0.148511
C18   C     C_3   0.336794 0.730859 0.390912 0.121254
C19   C     C_3   0.310210 0.240904 0.652739 0.128381
C20   C     C_3   0.334725 0.266619 0.381847 0.137338
C21   C     C_3   0.227133 0.698730 0.653761 -0.418396
C22   C     C_3   0.267097 0.656568 0.403248 -0.387966
C23   C     C_3   0.238061 0.312442 0.648731 -0.368945
C24   C     C_3   0.263198 0.339447 0.387926 -0.419156
C25   C     C_3   0.727133 0.198730 0.653761 -0.418395
C26   C     C_3   0.767097 0.156567 0.403248 -0.387966
C27   C     C_3   0.738061 0.812442 0.648730 -0.368945
C28   C     C_3   0.763198 0.839447 0.387926 -0.419155
C29   C     C_3   0.726968 0.348658 0.454420 -0.518710
C30   C     C_3   0.728570 0.651662 0.469796 -0.503583
C31   C     C_3   0.226968 0.848658 0.454420 -0.518710
C32   C     C_3   0.228570 0.151662 0.469796 -0.503583
C33   C     C_3   0.815033 0.306520 0.501274 0.037300
C34   C     C_3   0.817952 0.695908 0.501863 0.034735
C35   C     C_3   0.315033 0.806520 0.501274 0.037300
C36   C     C_3   0.317952 0.195908 0.501863 0.034735
C37   C     C_3   0.191043 0.686741 0.500884 0.076788
C38   C     C_3   0.193204 0.315100 0.500833 0.082712
C39   C     C_3   0.691043 0.186741 0.500884 0.076788
C40   C     C_3   0.693204 0.815100 0.500833 0.082712
C41   C     C_3   0.155244 0.776913 0.447503 -0.394161
C42   C     C_3   0.155754 0.222143 0.467152 -0.420097
C43   C     C_3   0.655244 0.276913 0.447503 -0.394162
C44   C     C_3   0.655755 0.722143 0.467152 -0.420096
C45   C     C_3   0.911425 0.504730 0.084204 -0.191290
C46   C     C_3   0.911452 0.504436 0.916644 -0.190653
C47   C     C_3   0.041826 0.418148 0.083616 -0.192015
C48   C     C_3   0.042805 0.418732 0.916098 -0.193978
C49   C     C_3   0.411425 0.004730 0.084204 -0.191290
C50   C     C_3   0.411452 0.004436 0.916644 -0.190654
C51   C     C_3   0.541826 0.918148 0.083616 -0.192016
C52   C     C_3   0.542805 0.918732 0.916098 -0.193977
Cu1   Cu    Cu3+1 0.000100 0.500000 0.642410 0.895827
Cu2   Cu    Cu3+1 0.000100 0.500000 0.357590 0.892355
Cu3   Cu    Cu3+1 0.500100 0.000000 0.642410 0.895827
Cu4   Cu    Cu3+1 0.500100 0.000000 0.357590 0.892355
H1    H     H_    0.779253 0.324217 0.724289 0.131263
H2    H     H_    0.832168 0.260576 0.282333 0.137911
H3    H     H_    0.789364 0.688368 0.729593 0.130486
H4    H     H_    0.828079 0.731310 0.277994 0.142376
H5    H     H_    0.279254 0.824217 0.724289 0.131263
H6    H     H_    0.332168 0.760576 0.282333 0.137911
H7    H     H_    0.289363 0.188368 0.729593 0.130485
H8    H     H_    0.328079 0.231310 0.277994 0.142376
H9    H     H_    0.250398 0.633375 0.694678 0.168005
H10   H     H_    0.295970 0.594495 0.447613 0.168925
H11   H     H_    0.265188 0.379503 0.672436 0.175258
H12   H     H_    0.291473 0.405675 0.413784 0.157433
H13   H     H_    0.750398 0.133375 0.694678 0.168004
H14   H     H_    0.795971 0.094496 0.447613 0.168925
H15   H     H_    0.765188 0.879504 0.672436 0.175258
H16   H     H_    0.791473 0.905675 0.413784 0.157432
H17   H     H_    0.174148 0.721461 0.726530 0.147221
H18   H     H_    0.242836 0.640503 0.294795 0.138885
H19   H     H_    0.189467 0.296872 0.733391 0.138845
H20   H     H_    0.233081 0.345479 0.280782 0.147420
H21   H     H_    0.674148 0.221462 0.726530 0.147221
H22   H     H_    0.742836 0.140502 0.294795 0.138886
H23   H     H_    0.689467 0.796872 0.733391 0.138845
H24   H     H_    0.733081 0.845479 0.280782 0.147420
H25   H     H_    0.707041 0.401669 0.530575 0.166054
H26   H     H_    0.733609 0.380830 0.348191 0.173071
H27   H     H_    0.713122 0.600552 0.551915 0.165579
H28   H     H_    0.730551 0.616623 0.365465 0.171137
H29   H     H_    0.207041 0.901669 0.530575 0.166054
H30   H     H_    0.233609 0.880830 0.348191 0.173071
H31   H     H_    0.213122 0.100552 0.551915 0.165578
H32   H     H_    0.230551 0.116623 0.365465 0.171137
H33   H     H_    0.098445 0.797892 0.513429 0.175840
H34   H     H_    0.132587 0.769790 0.335780 0.184918
H35   H     H_    0.104944 0.204184 0.546903 0.176057
H36   H     H_    0.125026 0.222950 0.360125 0.179184
H37   H     H_    0.598445 0.297892 0.513429 0.175841
H38   H     H_    0.632587 0.269790 0.335780 0.184918
H39   H     H_    0.604944 0.704184 0.546904 0.176057
H40   H     H_    0.625025 0.722950 0.360125 0.179184
H41   H     H_    0.878113 0.566002 0.122121 0.135102
H42   H     H_    0.877864 0.565355 0.878341 0.137613
H43   H     H_    0.110207 0.412069 0.121228 0.136926
H44   H     H_    0.111766 0.414525 0.879886 0.133089
H45   H     H_    0.378113 0.066002 0.122121 0.135102
H46   H     H_    0.377864 0.065355 0.878341 0.137613
H47   H     H_    0.610208 0.912069 0.121228 0.136927
H48   H     H_    0.611766 0.914525 0.879886 0.133089
H49   H     H_    0.871920 0.447750 0.123433 0.135136
H50   H     H_    0.872234 0.447323 0.878085 0.138560
H51   H     H_    0.006457 0.358296 0.122832 0.138586
H52   H     H_    0.009632 0.358576 0.874678 0.168603
H53   H     H_    0.371920 0.947750 0.123433 0.135136
H54   H     H_    0.372234 0.947323 0.878085 0.138560
H55   H     H_    0.506458 0.858296 0.122832 0.138586
H56   H     H_    0.509633 0.858576 0.874678 0.168602
H57   H     H_    0.021415 0.640159 0.123519 0.140242
H58   H     H_    0.021119 0.640293 0.876167 0.145412
H59   H     H_    0.118819 0.575144 0.120459 0.134592
H60   H     H_    0.118604 0.575639 0.878125 0.136983
H61   H     H_    0.521414 0.140159 0.123519 0.140242
H62   H     H_    0.521119 0.140293 0.876167 0.145412
H63   H     H_    0.618819 0.075144 0.120459 0.134592
H64   H     H_    0.618604 0.075639 0.878125 0.136983
N1    N     N_3   0.001260 0.500000 0.143650 -0.107879
N2    N     N_3   0.001260 0.500000 0.856350 -0.107250
N3    N     N_3   0.501260 0.000000 0.143650 -0.107879
N4    N     N_3   0.501260 0.000000 0.856350 -0.107250
O1    O     O_R   0.091250 0.408820 0.620260 -0.594478
O2    O     O_R   0.091250 0.408820 0.379740 -0.597955
O3    O     O_R   0.091250 0.591180 0.620260 -0.604062
O4    O     O_R   0.091250 0.591180 0.379740 -0.591426
O5    O     O_R   0.591250 0.908820 0.620260 -0.594478
O6    O     O_R   0.591250 0.908820 0.379740 -0.597955
O7    O     O_R   0.591250 0.091180 0.620260 -0.604062
O8    O     O_R   0.591250 0.091180 0.379740 -0.591426
O9    O     O_R   0.908940 0.408800 0.620260 -0.568770
O10   O     O_R   0.908940 0.408800 0.379740 -0.601143
O11   O     O_R   0.908940 0.591200 0.620260 -0.603777
O12   O     O_R   0.908940 0.591200 0.379740 -0.584660
O13   O     O_R   0.408940 0.908800 0.620260 -0.568770
O14   O     O_R   0.408940 0.908800 0.379740 -0.601143
O15   O     O_R   0.408940 0.091200 0.620260 -0.603777
O16   O     O_R   0.408940 0.091200 0.379740 -0.584660
N5    N     N_2   0.880643 0.230301 0.715232 -0.408178
H65   H     H_    0.902462 0.173348 0.665750 0.282631
C53   C     C_3   0.882174 0.221946 0.868838 -0.782235
H66   H     H_    0.834298 0.171255 0.904904 0.223454
H67   H     H_    0.866905 0.286552 0.920308 0.221775
H68   H     H_    0.948218 0.200867 0.903349 0.222412
N6    N     N_2   0.924191 0.194006 0.407131 -0.434184
H69   H     H_    0.970703 0.239519 0.436977 0.249211
C54   C     C_3   0.954679 0.138677 0.290905 -0.765575
H70   H     H_    0.016462 0.105493 0.321824 0.233894
H71   H     H_    0.966702 0.180097 0.194875 0.216238
H72   H     H_    0.906663 0.085911 0.265191 0.238654
N7    N     N_2   0.892045 0.779227 0.703302 -0.427357
H73   H     H_    0.948196 0.748391 0.668474 0.260771
C55   C     C_3   0.895560 0.798829 0.854136 -0.777612
H74   H     H_    0.958327 0.832016 0.879209 0.228313
H75   H     H_    0.890965 0.736452 0.917126 0.211079
H76   H     H_    0.841735 0.844156 0.885761 0.235897
N8    N     N_2   0.921592 0.805769 0.388463 -0.434432
H77   H     H_    0.930874 0.848925 0.472091 0.278651
C56   C     C_3   0.953660 0.842312 0.255625 -0.776534
H78   H     H_    0.018872 0.872480 0.272032 0.228610
H79   H     H_    0.908959 0.894922 0.215978 0.230521
H80   H     H_    0.959773 0.788987 0.174610 0.230893
N9    N     N_2   0.380643 0.730301 0.715232 -0.408178
H81   H     H_    0.402463 0.673348 0.665750 0.282630
C57   C     C_3   0.382174 0.721946 0.868838 -0.782235
H82   H     H_    0.334298 0.671255 0.904904 0.223454
H83   H     H_    0.366905 0.786552 0.920308 0.221775
H84   H     H_    0.448218 0.700867 0.903349 0.222412
N10   N     N_2   0.424191 0.694006 0.407130 -0.434184
H85   H     H_    0.470703 0.739519 0.436977 0.249210
C58   C     C_3   0.454679 0.638677 0.290905 -0.765574
H86   H     H_    0.516462 0.605493 0.321823 0.233893
H87   H     H_    0.466702 0.680097 0.194875 0.216238
H88   H     H_    0.406663 0.585911 0.265190 0.238654
N11   N     N_2   0.392045 0.279227 0.703303 -0.427357
H89   H     H_    0.448196 0.248391 0.668475 0.260772
C59   C     C_3   0.395560 0.298829 0.854136 -0.777612
H90   H     H_    0.458327 0.332016 0.879210 0.228313
H91   H     H_    0.390964 0.236452 0.917126 0.211079
H92   H     H_    0.341735 0.344156 0.885761 0.235897
N12   N     N_2   0.421592 0.305769 0.388464 -0.434432
H93   H     H_    0.430874 0.348925 0.472092 0.278651
C60   C     C_3   0.453660 0.342312 0.255626 -0.776535
H94   H     H_    0.518873 0.372481 0.272033 0.228610
H95   H     H_    0.408959 0.394922 0.215979 0.230521
H96   H     H_    0.459774 0.288987 0.174611 0.230893

loop_
_geom_bond_atom_site_label_1
_geom_bond_atom_site_label_2
_ccdc_geom_bond_type
C16   C28   S    
C53   H68   S    
C41   H33   S    
N10   H85   S    
N9    H81   S    
C31   H29   S    
C29   C33   S    
C55   H75   S    
C3    O6    A    
C51   N3    S    
C7    H61   S    
N6    H69   S    
Cu1   O11   S    
C52   H56   S    
Cu3   Cu4   S    
C13   C25   S    
C14   C33   S    
C56   H78   S    
C8    H62   S    
C7    C8    S    
C57   H83   S    
C58   H86   S    
C29   H25   S    
Cu2   O2    S    
C26   H22   S    
C37   C41   S    
C25   H21   S    
C32   C36   S    
N6    C54   S    
C11   O14   A    
C10   O12   A    
C38   C42   S    
C27   H23   S    
C19   C36   S    
C54   H71   S    
C49   H45   S    
C5    C6    S    
Cu4   O16   S    
C26   C39   S    
C47   N1    S    
C13   H1    S    
C28   C40   S    
C51   H47   S    
C53   H66   S    
Cu2   O10   S    
C21   H17   S    
C50   H54   S    
C43   H38   S    
Cu3   O15   S    
C21   C37   S    
C42   H35   S    
C16   H4    S    
C23   H11   S    
C30   H27   S    
C6    H58   S    
Cu1   O3    S    
C17   H5    S    
C15   C27   S    
C22   H10   S    
C20   C24   S    
C19   H7    S    
N11   C59   S    
C47   H43   S    
C24   C38   S    
C12   O16   A    
C22   C37   S    
C13   N5    S    
C12   C36   S    
C18   C35   S    
C19   N11   S    
C15   C34   S    
C59   H92   S    
C16   C34   S    
C2    O3    A    
C41   H34   S    
C46   H42   S    
N9    C57   S    
C31   H30   S    
C18   C22   S    
C5    H59   S    
C16   N8    S    
C9    C33   S    
C30   C44   S    
C28   H16   S    
C48   H44   S    
C21   H9    S    
C56   H79   S    
C45   H49   S    
C4    O7    A    
C58   H87   S    
C14   H2    S    
C30   C34   S    
C51   C52   S    
Cu4   N3    S    
C7    H63   S    
C22   H18   S    
Cu1   O9    S    
C1    O2    A    
C4    O8    A    
C54   H72   S    
C23   H19   S    
C57   H82   S    
C18   H6    S    
C60   H96   S    
C39   C43   S    
C45   N1    S    
Cu1   Cu2   S    
C32   H31   S    
Cu2   O4    S    
C14   N6    S    
C17   C21   S    
C20   H8    S    
C19   C23   S    
N12   H93   S    
C13   C33   S    
C44   H40   S    
N12   C60   S    
Cu4   O14   S    
Cu3   O5    S    
N8    H77   S    
C4    C39   S    
C27   C40   S    
Cu2   O12   S    
N8    C56   S    
C12   O15   A    
C50   N4    S    
C10   C34   S    
C14   C26   S    
C6    H60   S    
Cu4   O8    S    
Cu1   O1    S    
C1    C38   S    
N11   H89   S    
C20   N12   S    
C57   H84   S    
C29   C43   S    
Cu2   N1    S    
C3    C40   S    
C50   H46   S    
Cu3   O7    S    
C26   H14   S    
C31   C35   S    
C32   H32   S    
N7    C55   S    
C6    N2    S    
C18   N10   S    
C56   H80   S    
C27   H15   S    
C8    H64   S    
C49   H53   S    
C58   H88   S    
C1    O1    A    
C53   H67   S    
Cu3   N4    S    
C52   H48   S    
C5    N1    S    
C51   H55   S    
C31   C41   S    
C5    H57   S    
C3    O5    A    
C15   H3    S    
C8    N4    S    
C7    N3    S    
C47   C48   S    
N10   C58   S    
C23   C38   S    
C47   H51   S    
Cu3   O13   S    
Cu1   N2    S    
N5    C53   S    
C11   O13   A    
C10   O11   A    
C44   H39   S    
C17   N9    S    
C54   H70   S    
C9    O10   A    
C48   N2    S    
C52   N4    S    
C2    C37   S    
C60   H94   S    
C48   H52   S    
C46   H50   S    
C11   C35   S    
C43   H37   S    
C42   H36   S    
C30   H28   S    
C28   H24   S    
Cu4   O6    S    
C15   N7    S    
C60   H95   S    
C24   H12   S    
C24   H20   S    
C59   H90   S    
C20   C36   S    
C45   C46   S    
C40   C44   S    
C25   H13   S    
C29   H26   S    
C49   N3    S    
C49   C50   S    
C55   H74   S    
C32   C42   S    
C46   N2    S    
C45   H41   S    
C17   C35   S    
C59   H91   S    
N7    H73   S    
N5    H65   S    
C25   C39   S    
C2    O4    A    
C55   H76   S    
C9    O9    A    
