data_mof_unit_60058.cif
_audit_creation_date              2012-12-10T18:16:14-0500
_audit_creation_method            fapswitch 2.2
_symmetry_space_group_name_H-M    P1
_symmetry_Int_Tables_number       1
_space_group_crystal_system       triclinic
_cell_length_a                    42.423933
_cell_length_b                    29.208697
_cell_length_c                    29.203056
_cell_angle_alpha                 89.999791
_cell_angle_beta                  133.931844
_cell_angle_gamma                 89.996873
_cell_volume                      26060.5631467

loop_
_atom_site_label
_atom_site_type_symbol
_atom_type_description
_atom_site_fract_x
_atom_site_fract_y
_atom_site_fract_z
_atom_type_partial_charge
C1    C     C_R   0.499972 0.586678 0.499991 0.907784
C2    C     C_1   0.834441 0.999921 0.332992 -0.094002
C3    C     C_3   0.761236 0.961736 0.235682 0.103697
C4    C     C_1   0.372495 0.499932 0.372447 -0.205760
C5    C     C_1   0.872488 0.999967 0.372433 -0.205778
C6    C     C_1   0.121217 0.499975 0.118872 -0.204870
C7    C     C_1   0.621210 0.999984 0.118816 -0.204725
C8    C     C_3   0.260350 0.501747 0.299254 -0.190578
C9    C     C_3   0.760314 0.000911 0.299146 -0.190571
C10   C     C_3   0.288841 0.499783 0.285040 0.107160
C11   C     C_3   0.788834 0.999888 0.284952 0.107140
C12   C     C_3   0.281968 0.578410 0.231332 -0.422381
C13   C     C_1   0.159188 0.499912 0.154338 -0.081350
C14   C     C_3   0.247364 0.611540 0.177947 -0.349607
C15   C     C_3   0.268648 0.654360 0.179418 -0.865320
C16   C     C_3   0.281801 0.417303 0.238418 -0.422535
C17   C     C_3   0.247145 0.382808 0.187811 -0.349856
C18   C     C_3   0.268309 0.338169 0.193486 -0.865567
C19   C     C_3   0.781933 0.079500 0.232917 -0.422478
C20   C     C_3   0.747320 0.112943 0.180117 -0.349957
C21   C     C_3   0.768556 0.156295 0.182684 -0.865591
C22   C     C_3   0.781864 0.918264 0.236637 -0.422513
C23   C     C_3   0.747234 0.884104 0.185280 -0.349899
C24   C     C_1   0.659175 0.999949 0.154205 -0.081390
C25   C     C_3   0.768425 0.839805 0.190080 -0.865630
C26   C     C_3   0.212011 0.495722 0.115084 -0.429318
C27   C     C_3   0.245851 0.494032 0.110539 -0.355998
C28   C     C_3   0.223520 0.491677 0.041378 -0.866307
C29   C     C_3   0.712064 0.997761 0.114936 -0.429370
C30   C     C_3   0.745932 0.996902 0.110420 -0.356107
C31   C     C_3   0.723635 0.995611 0.041236 -0.866355
C32   C     C_1   0.499950 0.637260 0.499942 -0.224195
C33   C     C_1   0.499945 0.362740 0.499938 -0.224300
C34   C     C_1   0.999950 0.137260 0.499942 -0.224222
C35   C     C_1   0.999946 0.862740 0.499939 -0.224275
C36   C     C_1   0.499938 0.679397 0.499922 0.002573
C37   C     C_1   0.499930 0.320603 0.499914 0.002542
C38   C     C_1   0.999937 0.179397 0.499921 0.002566
C39   C     C_R   0.499970 0.413322 0.499990 0.907923
C40   C     C_1   0.999931 0.820603 0.499915 0.002555
C41   C     C_1   0.499933 0.729132 0.499918 0.005133
C42   C     C_1   0.499922 0.270868 0.499908 0.005100
C43   C     C_1   0.999932 0.229132 0.499917 0.005124
C44   C     C_1   0.999923 0.770868 0.499909 0.005112
C45   C     C_1   0.499936 0.771269 0.499928 0.005031
C46   C     C_1   0.499924 0.228731 0.499916 0.005000
C47   C     C_1   0.999936 0.271269 0.499927 0.005022
C48   C     C_1   0.999925 0.728731 0.499917 0.005011
C49   C     C_1   0.499945 0.821004 0.499948 0.003436
C50   C     C_R   0.999971 0.086678 0.499991 0.907818
C51   C     C_1   0.499933 0.178996 0.499936 0.003416
C52   C     C_1   0.999944 0.321004 0.499947 0.003430
C53   C     C_1   0.999933 0.678996 0.499937 0.003424
C54   C     C_1   0.499952 0.863141 0.499966 -0.215036
C55   C     C_1   0.499943 0.136858 0.499957 -0.215052
C56   C     C_1   0.999952 0.363141 0.499966 -0.215041
C57   C     C_1   0.999943 0.636858 0.499957 -0.215046
C58   C     C_R   0.417092 0.500039 0.417195 0.951786
C59   C     C_R   0.917089 0.000022 0.417191 0.951736
C60   C     C_1   0.635838 0.500001 0.635619 -0.222421
C61   C     C_R   0.999971 0.913322 0.499991 0.907899
C62   C     C_1   0.135838 0.000001 0.635619 -0.222422
C63   C     C_1   0.677113 0.500002 0.676880 0.015932
C64   C     C_1   0.177113 0.000002 0.676880 0.015932
C65   C     C_1   0.726258 0.500003 0.726069 0.002459
C66   C     C_1   0.226258 0.000003 0.726069 0.002459
C67   C     C_1   0.767535 0.500004 0.767402 0.002450
C68   C     C_1   0.267535 0.000004 0.767402 0.002450
C69   C     C_1   0.816680 0.500004 0.816624 0.015906
C70   C     C_1   0.316680 0.000004 0.816624 0.015906
C71   C     C_1   0.857956 0.500004 0.857964 -0.222613
C72   C     C_3   0.204754 0.499820 0.198518 0.119939
C73   C     C_1   0.357956 0.000004 0.857964 -0.222613
C74   C     C_R   0.994862 0.500000 0.081680 0.907199
C75   C     C_R   0.494862 1.000000 0.081680 0.907073
C76   C     C_R   0.076729 0.499997 0.077487 0.950848
C77   C     C_R   0.576733 0.999997 0.077542 0.950688
C78   C     C_R   0.992998 0.500000 0.906367 0.909134
C79   C     C_R   0.492999 0.000000 0.906368 0.909270
C80   C     C_R   0.907989 0.500002 0.908068 0.891826
C81   C     C_R   0.407989 0.000002 0.908068 0.891824
C82   C     C_R   0.585806 0.500000 0.585747 0.891840
C83   C     C_3   0.704743 0.999901 0.198367 0.119885
C84   C     C_R   0.085806 0.000000 0.585747 0.891839
C85   C     C_R   0.499020 0.000000 0.412826 0.897853
C86   C     C_R   0.999020 0.500000 0.412826 0.897853
C87   C     C_R   0.499958 0.913724 0.499984 0.897583
C88   C     C_R   0.499955 0.086276 0.499981 0.897576
C89   C     C_R   0.999958 0.413724 0.499984 0.897581
C90   C     C_R   0.999955 0.586276 0.499981 0.897578
C91   C     C_R   0.500827 1.000000 0.587123 0.897355
C92   C     C_R   0.000827 0.500000 0.587123 0.897355
C93   C     C_1   0.995576 0.500000 0.132965 -0.222900
C94   C     C_3   0.233221 0.497844 0.184014 0.100906
C95   C     C_1   0.495576 1.000000 0.132964 -0.222884
C96   C     C_1   0.996178 0.499999 0.175699 0.003090
C97   C     C_1   0.496178 1.000000 0.175699 0.003079
C98   C     C_1   0.996882 0.500000 0.226127 0.005753
C99   C     C_1   0.496882 1.000000 0.226127 0.005749
C100  C     C_1   0.497460 1.000000 0.268837 0.005508
C101  C     C_1   0.997460 0.500000 0.268837 0.005508
C102  C     C_1   0.498103 1.000000 0.319204 0.003552
C103  C     C_1   0.998103 0.500000 0.319204 0.003554
C104  C     C_1   0.498583 1.000000 0.361817 -0.214964
C105  C     C_3   0.733239 0.998872 0.183879 0.100992
C106  C     C_1   0.998583 0.500000 0.361817 -0.214963
C107  C     C_1   0.994114 0.500000 0.856887 -0.225211
C108  C     C_1   0.494114 0.000000 0.856888 -0.225237
C109  C     C_3   0.232085 0.538554 0.246859 -0.195992
C110  C     C_3   0.232003 0.463025 0.250158 -0.196075
C111  C     C_3   0.732040 0.038199 0.247516 -0.196028
C112  C     C_3   0.732004 0.962619 0.249245 -0.196088
C113  C     C_1   0.995392 0.500000 0.816036 0.002305
C114  C     C_1   0.495393 0.000000 0.816037 0.002318
C115  C     C_1   0.997067 0.500000 0.767986 0.004618
C116  C     C_1   0.334448 0.499843 0.333036 -0.094054
C117  C     C_1   0.497068 1.000000 0.767986 0.004623
C118  C     C_1   0.498460 1.000000 0.727254 0.004605
C119  C     C_1   0.998460 0.499999 0.727254 0.004605
C120  C     C_1   0.499903 1.000000 0.678962 0.003438
C121  C     C_1   0.999903 0.500000 0.678962 0.003437
C122  C     C_1   0.500726 1.000000 0.637639 -0.215448
C123  C     C_1   0.000726 0.500000 0.637639 -0.215448
C124  C     C_3   0.261290 0.536445 0.233289 0.103684
C125  C     C_3   0.261207 0.461201 0.236576 0.103718
C126  C     C_3   0.761273 0.037033 0.233960 0.103726
H1    H     H_    0.218350 0.569871 0.249081 0.142299
H2    H     H_    0.227965 0.594722 0.131069 0.226148
H3    H     H_    0.224788 0.621870 0.183203 0.223057
H4    H     H_    0.302312 0.596333 0.277810 0.210166
H5    H     H_    0.303937 0.567039 0.225419 0.195124
H6    H     H_    0.290872 0.344653 0.187105 0.262121
H7    H     H_    0.286842 0.322272 0.240773 0.262389
H8    H     H_    0.242537 0.313897 0.156137 0.250684
H9    H     H_    0.224244 0.375293 0.193330 0.223245
H10   H     H_    0.228125 0.397117 0.139657 0.226353
H11   H     H_    0.303920 0.426055 0.231859 0.194831
H12   H     H_    0.218200 0.433305 0.255047 0.142294
H13   H     H_    0.301975 0.401670 0.286301 0.210411
H14   H     H_    0.787256 0.174087 0.228874 0.262406
H15   H     H_    0.790975 0.147696 0.176590 0.262043
H16   H     H_    0.742812 0.179811 0.143798 0.250720
H17   H     H_    0.728129 0.096712 0.132953 0.226276
H18   H     H_    0.724565 0.122531 0.185285 0.223231
H19   H     H_    0.802182 0.096911 0.279722 0.210312
H20   H     H_    0.803988 0.068757 0.226917 0.195038
H21   H     H_    0.791062 0.846905 0.183985 0.262136
H22   H     H_    0.786879 0.823290 0.236989 0.262386
H23   H     H_    0.718279 0.069158 0.250368 0.142317
H24   H     H_    0.742676 0.815794 0.152163 0.250706
H25   H     H_    0.724292 0.875986 0.190555 0.223266
H26   H     H_    0.728255 0.899019 0.137444 0.226345
H27   H     H_    0.804006 0.927645 0.230318 0.194866
H28   H     H_    0.802019 0.902048 0.284178 0.210425
H29   H     H_    0.203001 0.460376 0.018250 0.262137
H30   H     H_    0.202657 0.522354 0.014942 0.262328
H31   H     H_    0.248705 0.490524 0.039374 0.250773
H32   H     H_    0.266767 0.525022 0.132584 0.225872
H33   H     H_    0.267068 0.463501 0.135851 0.225836
H34   H     H_    0.718213 0.932491 0.253493 0.142320
H35   H     H_    0.190630 0.465049 0.091832 0.199070
H36   H     H_    0.190587 0.526092 0.089061 0.198717
H37   H     H_    0.703087 0.964395 0.017368 0.262182
H38   H     H_    0.702808 0.026423 0.015503 0.262306
H39   H     H_    0.748837 0.995040 0.039250 0.250792
H40   H     H_    0.766879 0.027840 0.133204 0.225871
H41   H     H_    0.767118 0.966271 0.135035 0.225865
H42   H     H_    0.690689 0.967128 0.091017 0.199039
H43   H     H_    0.690639 0.028217 0.089549 0.198821
H44   H     H_    0.273050 0.503320 0.347639 0.152217
H45   H     H_    0.772988 0.001732 0.347540 0.152215
H46   H     H_    0.287610 0.672692 0.225324 0.262355
H47   H     H_    0.290838 0.645010 0.173126 0.261884
H48   H     H_    0.242907 0.677687 0.140189 0.250693
O1    O     O_R   0.500400 0.563130 0.536080 -0.596981
O2    O     O_R   0.963990 0.500000 0.400890 -0.593928
O3    O     O_R   0.534410 0.000000 0.471310 -0.594006
O4    O     O_R   0.034410 0.500000 0.471310 -0.594006
O5    O     O_R   0.464750 0.936830 0.464780 -0.594166
O6    O     O_R   0.464750 0.063170 0.464780 -0.594178
O7    O     O_R   0.964750 0.436830 0.464780 -0.594168
O8    O     O_R   0.964750 0.563170 0.464780 -0.594175
O9    O     O_R   0.535170 0.936820 0.535200 -0.593864
O10   O     O_R   0.535170 0.063180 0.535200 -0.593859
O11   O     O_R   0.035170 0.436820 0.535200 -0.593864
O12   O     O_R   0.500400 0.436870 0.536080 -0.596945
O13   O     O_R   0.035170 0.563180 0.535200 -0.593859
O14   O     O_R   0.465520 0.000000 0.528690 -0.593708
O15   O     O_R   0.965520 0.500000 0.528690 -0.593708
O16   O     O_R   0.535930 0.000000 0.599110 -0.594096
O17   O     O_R   0.035930 0.500000 0.599110 -0.594097
O18   O     O_R   0.499540 0.563080 0.463930 -0.597680
O19   O     O_R   0.499540 0.436920 0.463930 -0.597645
O20   O     O_R   0.999540 0.063080 0.463930 -0.597672
O21   O     O_R   0.999540 0.936920 0.463930 -0.597650
O22   O     O_R   0.438030 0.500000 0.473700 -0.613151
O23   O     O_R   0.000400 0.063130 0.536080 -0.596971
O24   O     O_R   0.938030 0.000000 0.473700 -0.613134
O25   O     O_R   0.437170 0.500000 0.401550 -0.617593
O26   O     O_R   0.937170 0.000000 0.401550 -0.617579
O27   O     O_R   0.562760 0.500000 0.598450 -0.591652
O28   O     O_R   0.062760 0.000000 0.598450 -0.591653
O29   O     O_R   0.561900 0.500000 0.526300 -0.591568
O30   O     O_R   0.061900 0.000000 0.526300 -0.591568
O31   O     O_R   0.994600 0.535610 0.057840 -0.597760
O32   O     O_R   0.994600 0.464390 0.057840 -0.597817
O33   O     O_R   0.494600 0.035610 0.057840 -0.597808
O34   O     O_R   0.000400 0.936870 0.536080 -0.596950
O35   O     O_R   0.494600 0.964390 0.057840 -0.597835
O36   O     O_R   0.056200 0.535620 0.056290 -0.614965
O37   O     O_R   0.056200 0.464380 0.056290 -0.615192
O38   O     O_R   0.556200 0.035620 0.056290 -0.614973
O39   O     O_R   0.556200 0.964380 0.056290 -0.615090
O40   O     O_R   0.993060 0.535640 0.930020 -0.596873
O41   O     O_R   0.993060 0.464360 0.930020 -0.596893
O42   O     O_R   0.493060 0.035640 0.930020 -0.596840
O43   O     O_R   0.493060 0.964360 0.930020 -0.596846
O44   O     O_R   0.931470 0.535630 0.931560 -0.591634
O45   O     O_R   0.931470 0.464370 0.931560 -0.591633
O46   O     O_R   0.431470 0.035630 0.931560 -0.591636
O47   O     O_R   0.431470 0.964370 0.931560 -0.591631
O48   O     O_R   0.463990 0.000000 0.400890 -0.593929
Zn1   Zn    Zn3+2 0.500540 0.500000 0.548170 0.965908
Zn2   Zn    Zn3+2 0.952950 0.500000 0.452980 0.966469
Zn3   Zn    Zn3+2 0.546980 0.000000 0.547020 0.966522
Zn4   Zn    Zn3+2 0.046980 0.500000 0.547020 0.966522
Zn5   Zn    Zn3+2 0.000540 0.000000 0.548170 0.965915
Zn6   Zn    Zn3+2 0.499390 0.500000 0.451830 0.961495
Zn7   Zn    Zn3+2 0.999390 0.000000 0.451830 0.961493
Zn8   Zn    Zn3+2 0.993830 0.547580 0.993940 0.964174
Zn9   Zn    Zn3+2 0.993830 0.452420 0.993940 0.963970
Zn10  Zn    Zn3+2 0.493830 0.047580 0.993940 0.964131
Zn11  Zn    Zn3+2 0.493830 0.952420 0.993940 0.964036
Zn12  Zn    Zn3+2 0.452950 0.000000 0.452980 0.966468

loop_
_geom_bond_atom_site_label_1
_geom_bond_atom_site_label_2
_ccdc_geom_bond_type
C9    C111  S    
C66   C68   T    
O12   Zn1   S    
C63   C65   S    
C26   C94   S    
C12   H5    S    
C85   C104  S    
O16   Zn3   S    
C20   H17   S    
C20   H18   S    
C18   H6    S    
C16   H11   S    
O20   Zn7   S    
C3    C11   S    
C23   H26   S    
C19   C126  S    
C29   C105  S    
O9    Zn3   S    
C80   O45   A    
O31   Zn8   S    
O15   Zn2   S    
C75   C95   S    
C3    C105  S    
C27   H32   S    
C39   O19   A    
C59   O26   A    
C26   C27   S    
C19   H19   S    
C12   H4    S    
C105  C126  S    
C60   C63   T    
O41   Zn9   S    
C32   C36   T    
C29   H42   S    
O30   Zn7   S    
C24   C83   S    
C30   H41   S    
C10   C124  S    
O34   Zn5   S    
C87   O9    A    
C54   C87   S    
O38   Zn10  S    
O33   Zn10  S    
C88   O10   A    
C90   O13   A    
C59   O24   A    
C27   H33   S    
C7    C24   T    
C86   O4    A    
C14   H2    S    
O21   Zn7   S    
C18   H7    S    
C22   H28   S    
C42   C46   T    
C108  C114  T    
C55   C88   S    
C69   C71   T    
C107  C113  T    
C62   C64   T    
C77   O38   A    
C31   H38   S    
C39   O12   A    
C60   C82   S    
C109  H1    S    
O44   Zn8   S    
C90   O8    A    
C8    H44   S    
C16   C17   S    
C65   C67   T    
C91   O14   A    
C96   C98   S    
C17   H9    S    
C28   H29   S    
C25   H22   S    
C10   C125  S    
O2    Zn2   S    
C16   C125  S    
C61   O21   A    
C51   C55   T    
C76   O36   A    
C92   O17   A    
C7    C77   S    
C72   C94   S    
C84   O30   A    
C9    C112  S    
O48   Zn12  S    
O6    Zn12  S    
O1    Zn1   S    
C101  C103  S    
C34   C38   T    
O7    Zn2   S    
C74   C93   S    
C78   O40   A    
C36   C41   S    
C86   C106  S    
C75   O33   A    
O10   Zn3   S    
C70   C73   T    
O5    Zn12  S    
O39   Zn11  S    
C2    C11   S    
C111  H23   S    
C73   C81   S    
O29   Zn6   S    
C97   C99   S    
C50   O23   A    
C120  C122  T    
C88   O6    A    
C72   C110  S    
C119  C121  S    
C48   C53   S    
C91   O16   A    
C31   H37   S    
C58   O25   A    
C34   C50   S    
C19   H20   S    
C121  C123  T    
C57   C90   S    
C15   H47   S    
O18   Zn6   S    
C77   O39   A    
O22   Zn1   S    
C31   H39   S    
C110  H12   S    
C11   C126  S    
C50   O20   A    
C30   H40   S    
C25   H21   S    
C92   C123  S    
O43   Zn11  S    
O13   Zn4   S    
O46   Zn10  S    
C61   O34   A    
C81   O46   A    
C87   O5    A    
C46   C51   S    
C91   C122  S    
C1    C32   S    
C33   C37   T    
C83   C105  S    
C78   C107  S    
C67   C69   S    
C75   O35   A    
C29   C30   S    
C8    C110  S    
C23   H25   S    
C99   C100  T    
C12   C124  S    
C45   C49   S    
C3    C112  S    
C17   H10   S    
C100  C102  S    
C17   C18   S    
O36   Zn8   S    
C35   C61   S    
C33   C39   S    
C102  C104  T    
C9    C11   S    
C64   C66   S    
C47   C52   S    
C111  C126  S    
O37   Zn9   S    
O23   Zn5   S    
C5    C59   S    
C85   O3    A    
C79   O42   A    
C12   C14   S    
C93   C96   T    
C115  C119  T    
C83   C111  S    
C9    H45   S    
C16   H13   S    
O26   Zn7   S    
O27   Zn1   S    
C79   C108  S    
O40   Zn8   S    
O14   Zn12  S    
O24   Zn5   S    
C76   O37   A    
C85   O48   A    
C94   C125  S    
C84   O28   A    
C62   C84   S    
C72   C109  S    
C1    O1    A    
C53   C57   T    
C112  H34   S    
C15   H48   S    
O47   Zn11  S    
O32   Zn9   S    
C14   C15   S    
C89   O11   A    
C4    C116  T    
C8    C10   S    
O25   Zn6   S    
O19   Zn6   S    
O45   Zn9   S    
C78   O41   A    
C21   H16   S    
C82   O27   A    
C71   C80   S    
C95   C97   T    
C109  C124  S    
C6    C76   S    
O28   Zn5   S    
C13   C72   S    
O17   Zn4   S    
C98   C101  T    
C81   O47   A    
C26   H35   S    
O8    Zn2   S    
C118  C120  S    
C92   O15   A    
C19   C20   S    
C35   C40   T    
C21   H15   S    
C38   C43   S    
C117  C118  T    
C74   O31   A    
C6    C13   T    
C80   O44   A    
C56   C89   S    
C22   C23   S    
C30   C31   S    
C52   C56   T    
O11   Zn4   S    
C74   O32   A    
C58   O22   A    
C28   H31   S    
O42   Zn10  S    
C26   H36   S    
C15   H46   S    
C18   H8    S    
C103  C106  T    
C86   O2    A    
C23   C25   S    
C10   C116  S    
O35   Zn11  S    
O4    Zn4   S    
C114  C117  S    
C79   O43   A    
C110  C125  S    
O3    Zn3   S    
C2    C5    T    
C1    O18   A    
C44   C48   T    
C82   O29   A    
C40   C44   S    
C20   C21   S    
C37   C42   S    
C4    C58   S    
C27   C28   S    
C28   H30   S    
C68   C70   S    
C41   C45   T    
C83   C112  S    
C25   H24   S    
C3    C22   S    
C21   H14   S    
C29   H43   S    
C8    C109  S    
C43   C47   T    
C14   H3    S    
C49   C54   T    
C89   O7    A    
C113  C115  S    
C22   H27   S    
C94   C124  S    
