data_mof_unit_12697.cif
_audit_creation_date              2013-03-05T16:41:15-0500
_audit_creation_method            fapswitch 2.2
_symmetry_space_group_name_H-M    P1
_symmetry_Int_Tables_number       1
_space_group_crystal_system       triclinic
_cell_length_a                    10.746523
_cell_length_b                    10.612119
_cell_length_c                    9.886267
_cell_angle_alpha                 90.332714
_cell_angle_beta                  90.931578
_cell_angle_gamma                 89.671629
_cell_volume                      1127.27736848

loop_
_atom_site_label
_atom_site_type_symbol
_atom_site_description
_atom_site_fract_x
_atom_site_fract_y
_atom_site_fract_z
_atom_type_partial_charge
O1    O     O_R   0.500020 0.316790 0.614690 -0.622997
O2    O     O_R   0.500000 0.316760 0.385350 -0.572629
C1    C     C_R   0.502426 0.260432 0.499780 0.983200
O3    O     O_R   0.319080 0.500020 0.614640 -0.624592
O4    O     O_R   0.319070 0.499980 0.385300 -0.547547
C2    C     C_R   0.262752 0.495695 0.498187 0.969526
Zn1   Zn    Zn3+2 0.500010 0.500020 0.653130 0.993035
Zn2   Zn    Zn3+2 0.499990 0.499980 0.346870 1.059709
O5    O     O_R   0.500000 0.683240 0.614650 -0.634524
O6    O     O_R   0.499980 0.683210 0.385310 -0.629175
O7    O     O_R   0.680930 0.500020 0.614700 -0.596152
O8    O     O_R   0.680920 0.499980 0.385360 -0.602028
C3    C     C_R   0.498543 0.739338 0.500197 0.886645
C4    C     C_R   0.737406 0.497896 0.501106 1.006299
C5    C     C_2   0.930230 0.470599 0.388594 -0.149733
C6    C     C_2   0.868493 0.480047 0.504076 -0.338303
H1    H     H_    0.882637 0.475165 0.290857 0.234371
H2    H     H_    0.912476 0.465417 0.602402 0.178251
C7    C     C_2   0.062816 0.449236 0.389506 0.494115
C8    C     C_2   0.130753 0.498057 0.492876 -0.494810
H3    H     H_    0.088690 0.550609 0.574890 0.138445
C9    C     C_R   0.395164 0.065792 0.471286 0.130128
C10   C     C_R   0.506265 0.128219 0.498079 -0.242538
C11   C     C_R   0.619858 0.061778 0.511239 0.467515
C12   C     C_R   0.616319 0.931110 0.511215 -0.265312
H4    H     H_    0.701017 0.876299 0.524222 0.194916
C13   C     C_R   0.501815 0.870789 0.499213 -0.154792
C14   C     C_R   0.393069 0.936842 0.471069 0.126806
C15   C     C_3   0.272699 0.932309 0.544173 -0.487648
C16   C     C_3   0.275099 0.074993 0.545461 -0.450097
H5    H     H_    0.196365 0.892781 0.479935 0.225398
H6    H     H_    0.282281 0.890172 0.646613 0.215432
H7    H     H_    0.198790 0.117321 0.483511 0.252753
H8    H     H_    0.286620 0.116145 0.648611 0.198318
C17   C     C_R   0.445201 0.404222 0.069159 0.239359
N1    N     N_R   0.499170 0.499140 0.142800 -0.105169
C18   C     C_R   0.544967 0.599493 0.073329 -0.073702
H9    H     H_    0.584255 0.678503 0.128438 0.158663
C19   C     C_R   0.545264 0.599369 0.929568 -0.082415
H10   H     H_    0.584877 0.678227 0.876848 0.156264
N2    N     N_R   0.499170 0.499180 0.857150 -0.101021
C20   C     C_R   0.443493 0.405224 0.926865 0.176513
C21   C     C_3   0.473859 0.268382 0.916810 -0.547466
C22   C     C_3   0.478334 0.266528 0.070584 0.058907
H11   H     H_    0.394947 0.213553 0.873092 0.183537
H12   H     H_    0.564895 0.250078 0.868239 0.272445
H13   H     H_    0.405304 0.206545 0.115294 0.165674
N3    N     N_R   0.603588 0.239492 0.123784 0.261015
O9    O     O_R   0.697199 0.311378 0.094928 -0.326321
O10   O     O_R   0.624534 0.133440 0.185538 -0.346385
S1    S     S_3+6 0.122322 0.364025 0.249174 0.025950
O11   O     O_2   0.169367 0.455933 0.147124 -0.319082
O12   O     O_2   0.226242 0.277474 0.292946 -0.362947
O13   O     O_3   0.007766 0.278061 0.177311 -0.473938
H14   H     H_    0.046683 0.235631 0.098969 0.386874
S2    S     S_3+6 0.764880 0.137945 0.531627 0.037688
O14   O     O_2   0.788837 0.214589 0.407657 -0.233108
O15   O     O_2   0.761352 0.223154 0.653435 -0.320460
O16   O     O_3   0.880448 0.031837 0.552188 -0.557705
H15   H     H_    0.957684 0.082328 0.556504 0.384840

loop_
_geom_bond_atom_site_label_1
_geom_bond_atom_site_label_2
_geom_bond_distance
_ccdc_geom_bond_type
O4    Zn2   1.987086 S    
Zn1   O7    1.987087 S    
C10   C11   1.410774 A    
C22   H13   1.112106 S    
C18   H9    1.081385 S    
C11   S2    1.767805 S    
C2    C8    1.418732 S    
N2    C20   1.362133 A    
C1    C10   1.403441 S    
C17   N1    1.365826 A    
S2    O16   1.682305 S    
Zn2   O8    1.975173 S    
C21   C22   1.520468 S    
S1    O13   1.682088 S    
C8    H3    1.084682 S    
N3    O10   1.300239 A    
O2    C1    1.282390 A    
O16   H15   0.990715 S    
C18   C19   1.421303 A    
C22   N3    1.464604 S    
C9    C14   1.368741 A    
S2    O14   1.501380 D    
C5    C7    1.441371 S    
C17   C22   1.502085 S    
C21   H11   1.111453 S    
C15   C16   1.514527 S    
O3    Zn1   1.975173 S    
N3    O9    1.302318 A    
O3    C2    1.292689 A    
N1    C18   1.368779 A    
C21   H12   1.112407 S    
S2    O15   1.502568 D    
C15   H6    1.112456 S    
Zn1   O5    1.983384 S    
Zn1   N2    2.017235 S    
O4    C2    1.279356 A    
Zn2   O6    1.979080 S    
O7    C4    1.285202 A    
C4    C6    1.420191 S    
C12   C13   1.393352 A    
C20   C21   1.489682 S    
C16   H8    1.112348 S    
S1    O12   1.501739 D    
C5    C6    1.332748 D    
C7    S1    1.777367 S    
C19   H10   1.081462 S    
S1    O11   1.502806 D    
C11   C12   1.387408 A    
C19   N2    1.368957 A    
C6    H2    1.085548 S    
Zn2   N1    2.017335 S    
C13   C14   1.384475 A    
C5    H1    1.087093 S    
C17   C20   1.406675 A    
O5    C3    1.281455 A    
O13   H14   0.990875 S    
C14   C15   1.493138 S    
C3    C13   1.395708 S    
C9    C16   1.496862 S    
C16   H7    1.109956 S    
O1    Zn1   1.979080 S    
C12   H4    1.083668 S    
C15   H5    1.111804 S    
C9    C10   1.389709 A    
O2    Zn2   1.983386 S    
C7    C8    1.348977 D    
O8    C4    1.286833 A    
O1    C1    1.281335 A    
O6    C3    1.279716 A    
