data_mof_unit_66447.cif
_audit_creation_date              2012-10-26T17:30:05-0400
_audit_creation_method            fapswitch 2.2
_symmetry_space_group_name_H-M    P1
_symmetry_Int_Tables_number       1
_space_group_crystal_system       triclinic
_cell_length_a                    39.139829
_cell_length_b                    32.232809
_cell_length_c                    21.999394
_cell_angle_alpha                 89.998995
_cell_angle_beta                  124.561873
_cell_angle_gamma                 90.000431
_cell_volume                      22855.9254663

loop_
_atom_site_label
_atom_site_type_symbol
_atom_type_description
_atom_site_fract_x
_atom_site_fract_y
_atom_site_fract_z
_atom_type_partial_charge
C1    C     C_R   0.420398 0.500000 0.420411 0.543693
C2    C     C_R   0.706485 0.499987 0.706173 0.037745
C3    C     C_2   0.001857 0.010364 0.184263 -0.111945
C4    C     C_2   0.528590 0.521675 0.745749 0.126893
C5    C     C_2   0.470561 0.520633 0.253299 0.130734
C6    C     C_2   0.029434 0.020638 0.746696 0.130684
C7    C     C_2   0.971404 0.021668 0.254247 0.126918
C8    C     C_2   0.502156 0.497623 0.686257 0.139702
C9    C     C_2   0.497672 0.497468 0.313793 0.135862
C10   C     C_2   0.002329 0.997466 0.686208 0.135849
C11   C     C_2   0.997846 0.997624 0.313746 0.139656
C12   C     C_R   0.227920 0.490581 0.175038 -0.105576
C13   C     C_R   0.793515 0.999999 0.293823 0.037946
C14   C     C_R   0.772069 0.486169 0.822851 -0.106440
C15   C     C_R   0.727922 0.990448 0.175087 -0.106418
C16   C     C_R   0.272063 0.984520 0.821822 -0.105561
C17   C     C_R   0.206329 0.499953 0.206838 0.037212
C18   C     C_R   0.793670 0.499959 0.793157 0.037357
C19   C     C_R   0.706330 0.999972 0.206828 0.037338
C20   C     C_R   0.293671 0.999935 0.793145 0.037293
C21   C     C_R   0.228479 0.509338 0.282288 -0.105657
C22   C     C_R   0.771531 0.513765 0.719819 -0.105793
C23   C     C_R   0.728480 0.009511 0.282219 -0.105722
C24   C     C_R   0.206486 0.999971 0.706157 0.037942
C25   C     C_R   0.271539 0.015364 0.720819 -0.105705
C26   C     C_3   0.591484 0.565824 0.809551 -0.314774
C27   C     C_3   0.445567 0.590617 0.244092 -0.294904
C28   C     C_3   0.054392 0.090632 0.755846 -0.294675
C29   C     C_3   0.908477 0.065769 0.190436 -0.315070
C30   C     C_3   0.437465 0.460500 0.638046 -0.316759
C31   C     C_3   0.564170 0.463208 0.365239 -0.314369
C32   C     C_3   0.935835 0.963200 0.634770 -0.314563
C33   C     C_3   0.062544 0.960511 0.361970 -0.316448
C34   C     C_R   0.271365 0.490596 0.218387 -0.105206
C35   C     C_R   0.728623 0.486185 0.779508 -0.106059
C36   C     C_R   0.771367 0.990464 0.218436 -0.105953
C37   C     C_R   0.228617 0.984539 0.778476 -0.105144
C38   C     C_1   0.161544 0.499965 0.162100 -0.058017
C39   C     C_1   0.838456 0.499972 0.837897 -0.058435
C40   C     C_1   0.661545 0.999977 0.162094 -0.058432
C41   C     C_R   0.579602 0.500000 0.579580 0.559058
C42   C     C_1   0.338456 0.999955 0.837894 -0.057968
C43   C     C_1   0.338295 0.499996 0.338501 -0.060575
C44   C     C_1   0.661705 0.499998 0.661502 -0.061521
C45   C     C_1   0.838295 0.000004 0.338499 -0.061415
C46   C     C_1   0.161705 0.999992 0.661494 -0.060657
C47   C     C_1   0.375772 0.500001 0.375879 -0.030816
C48   C     C_1   0.624228 0.500001 0.624116 -0.026842
C49   C     C_1   0.875772 0.000003 0.375885 -0.026789
C50   C     C_1   0.124228 0.000000 0.624119 -0.030860
C51   C     C_1   0.124062 0.499974 0.124515 -0.022512
C52   C     C_R   0.920398 0.000001 0.420419 0.559064
C53   C     C_1   0.875938 0.499980 0.875483 -0.022929
C54   C     C_1   0.624062 0.999981 0.124513 -0.022908
C55   C     C_1   0.375939 0.999970 0.875484 -0.022500
C56   C     C_R   0.500000 0.420399 1.000000 0.563976
C57   C     C_R   0.000000 0.920399 0.000000 0.563997
C58   C     C_R   0.499762 0.502631 0.882368 0.556044
C59   C     C_R   0.500240 0.502780 0.117607 0.554484
C60   C     C_R   0.999760 0.002780 0.882392 0.554484
C61   C     C_R   0.000238 0.002632 0.117632 0.556067
C62   C     C_R   0.500000 0.579611 0.000002 0.549456
C63   C     C_R   0.079602 0.000000 0.579589 0.543712
C64   C     C_R   1.000000 0.079611 0.999998 0.549454
C65   C     C_R   0.501060 0.499782 0.618696 0.591687
C66   C     C_R   0.498855 0.499736 0.381303 0.564198
C67   C     C_R   0.001145 0.999735 0.618697 0.564202
C68   C     C_R   0.998942 0.999783 0.381306 0.591689
C69   C     C_R   1.000000 0.420618 1.000000 0.551952
C70   C     C_R   0.500000 0.920618 0.000000 0.551933
C71   C     C_R   0.079423 0.499989 0.079544 0.552222
C72   C     C_R   0.920578 0.499991 0.920456 0.552025
C73   C     C_R   0.579423 0.999990 0.079544 0.552095
C74   C     C_R   0.271928 0.509350 0.325642 -0.106933
C75   C     C_R   0.420577 0.999989 0.920456 0.552141
C76   C     C_R   1.000000 0.579468 0.999999 0.552445
C77   C     C_R   0.500000 0.079468 0.999999 0.552458
C78   C     C_R   0.980734 0.728212 0.027862 -0.105643
C79   C     C_R   0.019265 0.728213 0.972140 -0.105538
C80   C     C_R   0.481918 0.228212 0.030048 -0.105527
C81   C     C_R   0.518080 0.228213 0.969946 -0.105665
C82   C     C_R   1.000000 0.706348 0.000000 0.037450
C83   C     C_R   0.499999 0.206348 0.999997 0.037418
C84   C     C_R   0.518079 0.271657 0.969945 -0.105752
C85   C     C_R   0.728082 0.513775 0.676470 -0.107507
C86   C     C_R   0.481919 0.271656 0.030049 -0.105555
C87   C     C_R   0.019265 0.771657 0.972139 -0.105564
C88   C     C_R   0.980735 0.771656 0.027864 -0.105737
C89   C     C_R   0.499999 0.293521 0.999997 0.037966
C90   C     C_R   0.000000 0.793521 0.000002 0.037939
C91   C     C_1   1.000000 0.661572 0.999999 -0.057849
C92   C     C_1   0.499999 0.161572 0.999998 -0.057870
C93   C     C_1   0.500000 0.338296 0.999998 -0.058562
C94   C     C_1   0.000000 0.838296 0.000002 -0.058569
C95   C     C_1   0.500000 0.375772 0.999998 -0.023997
C96   C     C_R   0.771928 0.009522 0.325574 -0.107439
C97   C     C_1   0.000000 0.875772 0.000001 -0.023991
C98   C     C_2   0.532170 0.515012 0.815963 -0.116276
C99   C     C_2   0.467811 0.515234 0.183893 -0.107872
C100  C     C_2   0.032186 0.015238 0.816104 -0.107849
C101  C     C_2   0.967827 0.015009 0.184033 -0.116265
C102  C     C_1   1.000000 0.624096 0.999999 -0.022409
C103  C     C_1   0.499999 0.124096 0.999998 -0.022419
C104  C     C_R   0.979202 0.271836 0.933109 -0.106059
C105  C     C_R   0.020805 0.271833 0.066870 -0.105884
C106  C     C_R   0.479194 0.771834 0.933128 -0.105891
C107  C     C_R   0.228090 0.015379 0.677467 -0.107031
C108  C     C_R   0.520795 0.771835 0.066890 -0.106078
C109  C     C_R   0.000002 0.293706 0.999991 0.037529
C110  C     C_R   0.499995 0.793706 0.000008 0.037518
C111  C     C_R   0.520794 0.728386 0.066892 -0.107020
C112  C     C_R   0.479195 0.728385 0.933131 -0.106317
C113  C     C_R   0.020805 0.228384 0.066868 -0.106313
C114  C     C_R   0.979204 0.228387 0.933107 -0.107004
C115  C     C_R   0.499995 0.706515 0.000013 0.037577
C116  C     C_R   0.000004 0.206515 0.999987 0.037583
C117  C     C_1   0.000001 0.338494 0.999995 -0.058151
C118  C     C_R   0.293515 0.499982 0.293832 0.038112
C119  C     C_1   0.499996 0.838494 0.000004 -0.058170
C120  C     C_1   0.499998 0.661729 0.000013 -0.061423
C121  C     C_1   0.000001 0.161729 0.999987 -0.061412
C122  C     C_1   0.499999 0.624247 0.000009 -0.027982
C123  C     C_1   0.000000 0.124247 0.999991 -0.027971
C124  C     C_1   1.000000 0.375978 0.999999 -0.022687
C125  C     C_1   0.499998 0.875977 0.000002 -0.022707
C126  C     C_2   0.498141 0.510362 0.815735 -0.111936
C127  C     C_2   0.501865 0.510213 0.184312 -0.121045
C128  C     C_2   0.998134 0.010212 0.815686 -0.121056
Cu1   Cu    Cu3+1 0.500000 0.541020 0.500000 0.921784
Cu2   Cu    Cu3+1 0.999990 0.500040 0.939000 0.948830
Cu3   Cu    Cu3+1 0.500010 0.000040 0.061000 0.948856
Cu4   Cu    Cu3+1 0.499990 0.000040 0.939000 0.948551
Cu5   Cu    Cu3+1 0.000000 0.041020 0.500000 0.921733
Cu6   Cu    Cu3+1 0.500000 0.458980 0.500000 0.926023
Cu7   Cu    Cu3+1 1.000000 0.958980 0.500000 0.926034
Cu8   Cu    Cu3+1 0.541020 0.500000 0.040980 0.936589
Cu9   Cu    Cu3+1 0.458980 0.500000 0.959020 0.941318
Cu10  Cu    Cu3+1 0.041020 0.000000 0.040980 0.941570
Cu11  Cu    Cu3+1 0.958980 1.000000 0.959020 0.936390
Cu12  Cu    Cu3+1 0.000010 0.500040 0.061000 0.948550
H1    H     H_    0.562639 0.514450 0.867721 0.136886
H2    H     H_    0.536990 0.711870 0.118970 0.109088
H3    H     H_    0.963007 0.211872 0.881030 0.109127
H4    H     H_    0.037001 0.211867 0.118944 0.110274
H5    H     H_    0.963003 0.288353 0.881032 0.111640
H6    H     H_    0.037003 0.288347 0.118948 0.111950
H7    H     H_    0.462996 0.788349 0.881050 0.112008
H8    H     H_    0.536993 0.788351 0.118965 0.111586
H9    H     H_    0.467595 0.513910 0.764756 0.132812
H10   H     H_    0.532432 0.513114 0.235397 0.137516
H11   H     H_    0.967566 0.013108 0.764600 0.137524
H12   H     H_    0.437350 0.516328 0.132069 0.152123
H13   H     H_    0.032402 0.013914 0.235242 0.132810
H14   H     H_    0.287662 0.483302 0.193111 0.112560
H15   H     H_    0.712317 0.475450 0.803145 0.110668
H16   H     H_    0.787666 0.983051 0.193206 0.110397
H17   H     H_    0.212306 0.972542 0.801322 0.112509
H18   H     H_    0.211186 0.483276 0.116801 0.113018
H19   H     H_    0.788794 0.475425 0.879444 0.111931
H20   H     H_    0.711189 0.983023 0.116896 0.111934
H21   H     H_    0.288782 0.972511 0.877628 0.112863
H22   H     H_    0.212181 0.516642 0.307558 0.112170
H23   H     H_    0.062647 0.016338 0.867927 0.152238
H24   H     H_    0.787837 0.524512 0.696191 0.111876
H25   H     H_    0.712182 0.016935 0.307443 0.111908
H26   H     H_    0.287852 0.027373 0.697983 0.112129
H27   H     H_    0.288667 0.516657 0.383880 0.107947
H28   H     H_    0.711352 0.524522 0.619877 0.107708
H29   H     H_    0.788666 0.016948 0.383766 0.107313
H30   H     H_    0.211367 0.027393 0.621663 0.108498
H31   H     H_    0.467842 0.288174 0.053447 0.111789
H32   H     H_    0.532156 0.288175 0.946547 0.111338
H33   H     H_    0.965736 0.788173 0.049558 0.111422
H34   H     H_    0.937358 0.014443 0.132275 0.136876
H35   H     H_    0.034264 0.788176 0.950445 0.111790
H36   H     H_    0.537577 0.575604 0.704998 0.266511
H37   H     H_    0.609177 0.586473 0.796420 0.148693
H38   H     H_    0.611527 0.538911 0.841292 0.153202
H39   H     H_    0.583556 0.583532 0.843299 0.140770
H40   H     H_    0.432358 0.540218 0.287148 0.263508
H41   H     H_    0.419591 0.608192 0.238761 0.142927
H42   H     H_    0.445316 0.596628 0.194108 0.152881
H43   H     H_    0.475270 0.601766 0.293846 0.153549
H44   H     H_    0.067638 0.040230 0.712853 0.263636
H45   H     H_    0.965734 0.711694 0.049554 0.112293
H46   H     H_    0.080362 0.108217 0.761176 0.143130
H47   H     H_    0.054628 0.096651 0.805813 0.152929
H48   H     H_    0.024687 0.101761 0.706071 0.153502
H49   H     H_    0.962392 0.075596 0.294962 0.266482
H50   H     H_    0.890774 0.086403 0.203566 0.148467
H51   H     H_    0.888455 0.038839 0.158729 0.152927
H52   H     H_    0.916379 0.083484 0.156656 0.140796
H53   H     H_    0.496877 0.435460 0.702504 0.262656
H54   H     H_    0.423972 0.436086 0.654018 0.150063
H55   H     H_    0.431185 0.452245 0.583557 0.162281
H56   H     H_    0.034266 0.711696 0.950447 0.112533
H57   H     H_    0.422119 0.490461 0.633452 0.140919
H58   H     H_    0.505879 0.435868 0.299114 0.262538
H59   H     H_    0.579110 0.439823 0.350435 0.148567
H60   H     H_    0.570044 0.454468 0.419245 0.163075
H61   H     H_    0.578421 0.493933 0.370183 0.141586
H62   H     H_    0.994129 0.935865 0.700892 0.262518
H63   H     H_    0.920898 0.939812 0.649576 0.148436
H64   H     H_    0.929960 0.954462 0.580763 0.162978
H65   H     H_    0.921581 0.993923 0.629823 0.141523
H66   H     H_    0.003136 0.935463 0.297504 0.262728
H67   H     H_    0.467841 0.211694 0.053445 0.112636
H68   H     H_    0.076042 0.936100 0.346003 0.150289
H69   H     H_    0.068822 0.952253 0.416457 0.162415
H70   H     H_    0.077886 0.990474 0.366563 0.141030
H71   H     H_    0.532157 0.211696 0.946550 0.112274
H72   H     H_    0.462999 0.711869 0.881055 0.110317
N1    N     N_2   0.554121 0.551863 0.741652 -0.514288
N2    N     N_2   0.440385 0.546850 0.250965 -0.526115
N3    N     N_2   0.059601 0.046865 0.749021 -0.525844
N4    N     N_2   0.945859 0.051842 0.258335 -0.514272
N5    N     N_2   0.481669 0.463258 0.693664 -0.546917
N6    N     N_2   0.520066 0.464329 0.308288 -0.546108
N7    N     N_2   0.979940 0.964325 0.691718 -0.546029
N8    N     N_2   0.018341 0.963263 0.306347 -0.547001
O1    O     O_R   0.440150 0.534640 0.440170 -0.508804
O2    O     O_R   0.940160 0.499970 0.991730 -0.502711
O3    O     O_R   0.559840 0.999970 0.008270 -0.502753
O4    O     O_R   0.440160 0.999970 0.991730 -0.502424
O5    O     O_R   0.000010 0.559880 0.051460 -0.502491
O6    O     O_R   0.999990 0.559880 0.948540 -0.502514
O7    O     O_R   0.500010 0.059880 0.051460 -0.502408
O8    O     O_R   0.499990 0.059880 0.948540 -0.502641
O9    O     O_R   0.440150 0.465360 0.440130 -0.506108
O10   O     O_R   0.559850 0.465360 0.559870 -0.506470
O11   O     O_R   0.940150 0.965360 0.440130 -0.506379
O12   O     O_R   0.559850 0.534640 0.559830 -0.497546
O13   O     O_R   0.059850 0.965360 0.559870 -0.506218
O14   O     O_R   0.500010 0.534640 0.589030 -0.515524
O15   O     O_R   0.499990 0.534640 0.410970 -0.518413
O16   O     O_R   0.000010 0.034640 0.589030 -0.518372
O17   O     O_R   0.999990 0.034640 0.410970 -0.515588
O18   O     O_R   0.500010 0.465360 0.588990 -0.510478
O19   O     O_R   0.499990 0.465360 0.411010 -0.510257
O20   O     O_R   0.000010 0.965360 0.588990 -0.510310
O21   O     O_R   0.999990 0.965360 0.411010 -0.510403
O22   O     O_R   0.534640 0.440150 0.034560 -0.499272
O23   O     O_R   0.940150 0.034640 0.440170 -0.497476
O24   O     O_R   0.465360 0.440150 0.965440 -0.498695
O25   O     O_R   0.034640 0.940150 0.034560 -0.498672
O26   O     O_R   0.965360 0.940150 0.965440 -0.499336
O27   O     O_R   0.534630 0.500000 0.945560 -0.509144
O28   O     O_R   0.465370 0.500000 0.054440 -0.507599
O29   O     O_R   0.034630 0.000000 0.945560 -0.507564
O30   O     O_R   0.965370 0.000000 0.054440 -0.509179
O31   O     O_R   0.465350 0.500000 0.876310 -0.507414
O32   O     O_R   0.534650 0.500000 0.123690 -0.507160
O33   O     O_R   0.965350 0.000000 0.876310 -0.507195
O34   O     O_R   0.059850 0.034640 0.559830 -0.508897
O35   O     O_R   0.034650 0.000000 0.123690 -0.507355
O36   O     O_R   0.534640 0.559850 0.034640 -0.507550
O37   O     O_R   0.465360 0.559850 0.965360 -0.506528
O38   O     O_R   0.034640 0.059850 0.034640 -0.506483
O39   O     O_R   0.965360 0.059850 0.965360 -0.507586
O40   O     O_R   0.000000 0.440190 0.051560 -0.502564
O41   O     O_R   0.000000 0.440190 0.948440 -0.502469
O42   O     O_R   0.500000 0.940190 0.051560 -0.502599
O43   O     O_R   0.500000 0.940190 0.948440 -0.502440
O44   O     O_R   0.059850 0.500040 0.111340 -0.502712
O45   O     O_R   0.940150 0.500040 0.888660 -0.502716
O46   O     O_R   0.559850 0.000040 0.111340 -0.502772
O47   O     O_R   0.440150 0.000040 0.888660 -0.502651
O48   O     O_R   0.059840 0.499970 0.008270 -0.502525

loop_
_geom_bond_atom_site_label_1
_geom_bond_atom_site_label_2
_ccdc_geom_bond_type
C9    N6    S    
C34   C118  A    
C56   C95   S    
C44   C48   T    
Cu10  O38   S    
C33   H68   S    
C84   H32   S    
C71   O48   A    
C4    C98   S    
C66   O19   A    
Cu4   O3    S    
Cu6   O18   S    
Cu6   O19   S    
C14   C18   A    
C19   C23   A    
Cu10  Cu11  S    
C4    C8    D    
Cu10  O29   S    
Cu2   Cu12  S    
C26   H37   S    
C79   C87   A    
C101  H34   S    
C109  C117  S    
Cu3   O46   S    
C75   O47   A    
C10   C67   S    
C23   C96   A    
C15   C19   A    
C83   C92   S    
Cu1   O12   S    
C25   C107  A    
Cu12  O5    S    
C30   H54   S    
C51   C71   S    
Cu1   O15   S    
C26   N1    S    
Cu7   O21   S    
C112  H72   S    
C105  C113  A    
C58   O27   A    
Cu11  O33   S    
C117  C124  T    
C35   H15   S    
C68   O17   A    
C28   H48   S    
C127  H10   S    
C104  C109  A    
C120  C122  T    
C126  H9    S    
Cu6   O9    S    
C63   O34   A    
C20   C25   A    
C105  H6    S    
C59   C127  S    
Cu3   O42   S    
C67   O20   A    
C3    H13   S    
Cu7   O20   S    
C2    C85   A    
C1    O1    A    
H53   N5    S    
C22   C85   A    
C37   H17   S    
C52   O23   A    
C9    C66   S    
C31   H60   S    
C7    C11   D    
C80   C86   A    
C8    N5    S    
C111  H2    S    
Cu9   O31   S    
C23   H25   S    
Cu9   O24   S    
C33   H69   S    
C6    N3    S    
C5    C99   S    
C2    C44   S    
C61   O30   A    
Cu11  O39   S    
C12   C17   A    
C27   N2    S    
Cu7   O13   S    
C59   O28   A    
C21   H22   S    
C7    N4    S    
C92   C103  T    
C64   O39   A    
C16   C37   A    
C31   N6    S    
Cu2   O48   S    
C3    C101  D    
C28   N3    S    
C26   H38   S    
C56   O24   A    
C72   O2    A    
C8    C65   S    
C93   C95   T    
C100  C128  D    
C50   C63   S    
Cu2   O45   S    
C61   O35   A    
C58   O31   A    
H58   N6    S    
Cu5   O17   S    
C29   H50   S    
C80   C83   A    
C31   H59   S    
C74   H27   S    
C81   C83   A    
C64   O38   A    
C10   N7    S    
C90   C94   S    
C3    C61   S    
C76   C102  S    
C70   O43   A    
C74   C118  A    
C78   C88   A    
C67   O16   A    
C31   H61   S    
C116  C121  S    
C73   O3    A    
C13   C96   A    
C76   O6    A    
C86   H31   S    
Cu2   O41   S    
C65   O14   A    
C60   C128  S    
C66   O15   A    
C13   C36   A    
C57   O25   A    
C73   O46   A    
C28   H47   S    
C14   C35   A    
C78   H45   S    
Cu9   O28   S    
C1    C47   S    
C29   N4    S    
C69   O41   A    
C38   C51   T    
C94   C97   T    
H66   N8    S    
C26   H39   S    
C21   C74   A    
C2    C35   A    
C17   C21   A    
C88   H33   S    
Cu8   O27   S    
Cu5   O16   S    
C6    C100  S    
H62   N7    S    
C32   H64   S    
C62   O36   A    
C18   C39   S    
C27   H41   S    
C5    C9    D    
C72   O45   A    
H49   N4    S    
C28   H46   S    
C42   C55   T    
C63   O13   A    
C54   C73   S    
C22   H24   S    
C33   H70   S    
C78   C82   A    
C128  H11   S    
C114  C116  A    
C30   H55   S    
C41   O12   A    
C45   C49   T    
C68   O21   A    
C16   C20   A    
C49   C52   S    
C57   C97   S    
C80   H67   S    
C29   H51   S    
C24   C37   A    
C29   H52   S    
C20   C42   S    
C24   C107  A    
C62   O37   A    
Cu3   O4    S    
C30   N5    S    
C104  C114  A    
C119  C125  T    
C70   C125  S    
Cu1   O1    S    
C81   H71   S    
C88   C90   A    
C75   O4    A    
C77   O7    A    
C34   H14   S    
C40   C54   T    
C96   H29   S    
C69   O40   A    
C98   H1    S    
Cu12  O44   S    
C60   O29   A    
C25   H26   S    
C65   O18   A    
C77   C103  S    
Cu11  O30   S    
C84   C89   A    
Cu11  O26   S    
C91   C102  T    
C12   C34   A    
Cu10  O35   S    
C15   C36   A    
C62   C122  S    
C81   C84   A    
C108  H8    S    
C11   C68   S    
C36   H16   S    
C106  C110  A    
C33   N8    S    
Cu4   O43   S    
C71   O44   A    
C70   O42   A    
C56   O22   A    
C4    N1    S    
Cu12  O40   S    
C76   O5    A    
C18   C22   A    
C85   H28   S    
C104  H5    S    
Cu8   O36   S    
Cu8   O32   S    
C57   O26   A    
H44   N3    S    
C86   C89   A    
C110  C119  S    
C6    C10   D    
C79   C82   A    
C99   C127  D    
C108  C111  A    
C52   O11   A    
C58   C126  S    
Cu9   O37   S    
C16   H21   S    
C64   C123  S    
C87   H35   S    
C99   H12   S    
Cu1   O14   S    
C79   H56   S    
C69   C124  S    
C113  H4    S    
Cu8   O22   S    
C14   H19   S    
C24   C46   S    
C114  H3    S    
C113  C116  A    
C32   H63   S    
Cu4   O8    S    
C27   H42   S    
C55   C75   S    
C15   H20   S    
Cu10  O25   S    
Cu5   O23   S    
Cu4   O47   S    
C13   C45   S    
C106  H7    S    
Cu12  O2    S    
C39   C53   T    
C106  C112  A    
C105  C109  A    
C5    N2    S    
H40   N2    S    
C60   O33   A    
C41   C48   S    
C108  C110  A    
C100  H23   S    
C17   C38   S    
Cu6   O10   S    
C89   C93   S    
C27   H43   S    
C121  C123  T    
C32   N7    S    
C19   C40   S    
C82   C91   S    
C43   C118  S    
Cu1   Cu6   S    
C1    O9    A    
C98   C126  D    
C30   H57   S    
C41   O10   A    
Cu2   O6    S    
C77   O8    A    
Cu5   O34   S    
C115  C120  S    
C7    C101  S    
C87   C90   A    
C59   O32   A    
Cu5   Cu7   S    
H36   N1    S    
Cu8   Cu9   S    
C111  C115  A    
Cu3   O7    S    
C12   H18   S    
C32   H65   S    
C53   C72   S    
C43   C47   T    
C11   N8    S    
C112  C115  A    
Cu3   Cu4   S    
Cu7   O11   S    
C107  H30   S    
C46   C50   T    
