data_mof_unit_68223.cif
_audit_creation_date              2013-03-05T16:09:38-0500
_audit_creation_method            fapswitch 2.2
_symmetry_space_group_name_H-M    P1
_symmetry_Int_Tables_number       1
_space_group_crystal_system       triclinic
_cell_length_a                    15.598068
_cell_length_b                    7.433775
_cell_length_c                    12.72596
_cell_angle_alpha                 89.999646
_cell_angle_beta                  99.469963
_cell_angle_gamma                 89.998878
_cell_volume                      1455.49764401

loop_
_atom_site_label
_atom_site_type_symbol
_atom_site_description
_atom_site_fract_x
_atom_site_fract_y
_atom_site_fract_z
_atom_type_partial_charge
O1    O     O_R   0.398210 0.494340 0.401550 -0.574363
O2    O     O_R   0.601790 0.994340 0.598450 -0.574349
O3    O     O_R   0.586310 0.821730 0.403360 -0.554794
O4    O     O_R   0.413690 0.321730 0.596640 -0.554816
C1    C     C_R   0.614884 0.655785 0.381320 0.904154
C2    C     C_R   0.385116 0.155785 0.618681 0.904097
O5    O     O_R   0.397970 0.823900 0.389580 -0.595300
O6    O     O_R   0.602030 0.323900 0.610420 -0.595307
O7    O     O_R   0.412100 0.996500 0.584560 -0.594101
O8    O     O_R   0.587900 0.496500 0.415440 -0.594092
C3    C     C_R   0.365263 0.656048 0.363436 0.942550
C4    C     C_R   0.634736 0.156046 0.636565 0.942559
O9    O     O_3   0.504860 0.661550 0.563990 -0.314876
O10   O     O_3   0.495140 0.161550 0.436010 -0.314882
V1    V     V_3+5 0.499100 0.935510 0.488130 1.128520
V2    V     V_3+5 0.500900 0.435510 0.511870 1.128511
C5    C     C_1   0.716670 0.147814 0.715995 -0.238548
C6    C     C_1   0.283328 0.647816 0.284008 -0.238289
C7    C     C_1   0.785017 0.137732 0.781323 -0.254841
C8    C     C_1   0.214980 0.637732 0.218682 -0.254980
C9    C     C_3   0.256160 0.298215 0.854909 0.259756
C10   C     C_3   0.743821 0.798219 0.145083 0.259753
C11   C     C_3   0.330087 0.292252 0.781472 0.383257
C12   C     C_3   0.669898 0.792257 0.218525 0.383314
H1    H     H_    0.390877 0.242743 0.831624 0.059857
H2    H     H_    0.609107 0.742743 0.168380 0.059825
H3    H     H_    0.218027 0.320114 0.593449 0.241540
H4    H     H_    0.781966 0.820124 0.406542 0.241538
C13   C     C_3   0.149349 0.147214 0.694560 0.452176
C14   C     C_3   0.850646 0.647232 0.305427 0.452157
C15   C     C_3   0.244313 0.960623 0.827756 -0.218590
C16   C     C_3   0.755686 0.460627 0.172245 -0.218563
C17   C     C_3   0.189399 0.136547 0.817647 -0.339287
C18   C     C_3   0.810591 0.636556 0.182342 -0.339249
H5    H     H_    0.199885 0.849557 0.801911 0.147398
H6    H     H_    0.800121 0.349570 0.198095 0.147374
C19   C     C_3   0.313592 0.148509 0.691380 -0.123737
C20   C     C_3   0.686404 0.648513 0.308617 -0.123784
C21   C     C_3   0.222078 0.181048 0.625937 -0.398591
C22   C     C_3   0.777920 0.681058 0.374055 -0.398600
C23   C     C_3   0.311771 0.963315 0.748440 -0.552481
C24   C     C_3   0.688227 0.463319 0.251560 -0.552448
H7    H     H_    0.377952 0.932924 0.789144 0.201077
H8    H     H_    0.622048 0.432929 0.210853 0.201062
H9    H     H_    0.294607 0.855977 0.687692 0.228117
H10   H     H_    0.705392 0.355979 0.312308 0.228123
H11   H     H_    0.122361 0.012271 0.668406 0.025423
H12   H     H_    0.877644 0.512294 0.331584 0.025423
H13   H     H_    0.211869 0.089716 0.555670 0.121188
H14   H     H_    0.788135 0.589725 0.444323 0.121188
O11   O     O_R   0.912140 0.786650 0.084610 -0.589173
O12   O     O_R   0.087860 0.286650 0.915390 -0.589156
O13   O     O_R   0.102040 0.454810 0.110430 -0.620140
O14   O     O_R   0.897960 0.954810 0.889570 -0.620140
C25   C     C_R   0.133664 0.624066 0.138204 0.998995
C26   C     C_R   0.866332 0.124066 0.861802 0.999128
O15   O     O_R   0.913690 0.457060 0.096650 -0.551203
O16   O     O_R   0.086310 0.957060 0.903350 -0.551192
O17   O     O_R   0.898200 0.284560 0.901540 -0.537652
O18   O     O_R   0.101800 0.784560 0.098460 -0.537618
C27   C     C_R   0.885684 0.625290 0.117485 0.848363
C28   C     C_R   0.114301 0.125288 0.882494 0.848218
O19   O     O_3   0.995160 0.617270 0.936040 -0.282522
O20   O     O_3   0.004840 0.117270 0.063960 -0.282466
V3    V     V_3+5 0.000900 0.343280 0.011870 1.189453
V4    V     V_3+5 0.999100 0.843280 0.988130 1.189441
C29   C     C_2   0.207557 0.479066 0.837054 1.024878
O21   O     O_2   0.187315 0.563819 0.910955 -0.651226
O22   O     O_R   0.180529 0.542729 0.733551 -0.762986
H15   H     H_    0.128602 0.626297 0.727612 0.314600
C30   C     C_2   0.792423 0.979069 0.162930 1.024731
O23   O     O_2   0.812684 0.063793 0.089029 -0.651241
O24   O     O_R   0.819441 0.042747 0.266431 -0.762974
H16   H     H_    0.871381 0.126276 0.272376 0.314626
O25   O     O_3   0.303918 0.274571 0.963117 -0.709820
C31   C     C_3   0.261752 0.304395 0.053184 0.253362
H17   H     H_    0.198065 0.245219 0.043004 0.171510
H18   H     H_    0.261833 0.449646 0.069118 0.145360
C32   C     C_3   0.307286 0.214590 0.157333 -0.387337
H19   H     H_    0.330671 0.080028 0.141230 0.233731
H20   H     H_    0.362689 0.298911 0.195283 0.195731
C33   C     C_3   0.246732 0.178024 0.238468 -0.876337
H21   H     H_    0.217068 0.301898 0.263549 0.258420
H22   H     H_    0.284387 0.114692 0.310718 0.265205
H23   H     H_    0.194060 0.083836 0.204561 0.273145
O26   O     O_3   0.696057 0.774541 0.036882 -0.709764
C34   C     C_3   0.738178 0.804601 0.946807 0.252969
H24   H     H_    0.801927 0.745761 0.957022 0.171730
H25   H     H_    0.737938 0.949871 0.930855 0.145228
C35   C     C_3   0.692756 0.714552 0.842678 -0.387283
H26   H     H_    0.669427 0.579976 0.858840 0.233821
H27   H     H_    0.637323 0.798703 0.804626 0.195701
C36   C     C_3   0.753384 0.677986 0.761627 -0.876119
H28   H     H_    0.782834 0.801939 0.736309 0.258387
H29   H     H_    0.715841 0.614098 0.689491 0.265088
H30   H     H_    0.806210 0.584269 0.795712 0.273190
O27   O     O_3   0.342273 0.464000 0.736655 -0.647711
C37   C     C_3   0.423289 0.539776 0.780007 0.229697
H31   H     H_    0.432562 0.661802 0.733166 0.162760
H32   H     H_    0.478599 0.447857 0.773488 0.080184
C38   C     C_3   0.423629 0.590793 0.895105 -0.458573
H33   H     H_    0.360895 0.649334 0.902232 0.236206
H34   H     H_    0.429052 0.471573 0.945672 0.243779
C39   C     C_3   0.498280 0.712628 0.936333 -0.856191
H35   H     H_    0.556075 0.656791 0.914512 0.293133
H36   H     H_    0.505512 0.715892 0.024128 0.276124
H37   H     H_    0.492147 0.848148 0.900225 0.268175
O28   O     O_3   0.657706 0.964008 0.263336 -0.647694
C40   C     C_3   0.576693 0.039794 0.219967 0.229748
H38   H     H_    0.567418 0.161830 0.266798 0.162739
H39   H     H_    0.521381 0.947886 0.226488 0.080164
C41   C     C_3   0.576364 0.090787 0.104865 -0.458556
H40   H     H_    0.639104 0.149296 0.097735 0.236169
H41   H     H_    0.570928 0.971557 0.054308 0.243765
C42   C     C_3   0.501731 0.212659 0.063618 -0.856331
H42   H     H_    0.443921 0.156840 0.085395 0.293217
H43   H     H_    0.494524 0.215947 0.975826 0.276071
H44   H     H_    0.507861 0.348163 0.099745 0.268201
O29   O     O_3   0.084711 0.282920 0.672130 -0.638106
C43   C     C_3   0.998233 0.217725 0.659121 0.206822
H45   H     H_    0.963849 0.295916 0.713750 0.122479
H46   H     H_    0.991719 0.073326 0.679937 0.036277
C44   C     C_3   0.953191 0.253251 0.544881 -0.309371
H47   H     H_    0.958475 0.397942 0.526276 0.199798
H48   H     H_    0.985655 0.176130 0.488114 0.199627
C45   C     C_3   0.857147 0.203543 0.529412 -0.965773
H49   H     H_    0.848899 0.059797 0.549418 0.271219
H50   H     H_    0.827205 0.226769 0.445361 0.290294
H51   H     H_    0.823070 0.290212 0.580326 0.255076
O30   O     O_3   0.915277 0.782948 0.327848 -0.638117
C46   C     C_3   0.001758 0.717764 0.340858 0.206847
H52   H     H_    0.036143 0.795981 0.286241 0.122503
H53   H     H_    0.008280 0.573374 0.320025 0.036271
C47   C     C_3   0.046794 0.753255 0.455104 -0.309418
H54   H     H_    0.041502 0.897939 0.473726 0.199806
H55   H     H_    0.014329 0.676107 0.511859 0.199633
C48   C     C_3   0.142839 0.703557 0.470575 -0.965759
H56   H     H_    0.151094 0.559817 0.450561 0.271224
H57   H     H_    0.172779 0.726770 0.554628 0.290294
H58   H     H_    0.176915 0.790241 0.419668 0.255074
C49   C     C_2   0.282704 0.918112 0.942214 1.120751
O31   O     O_2   0.236604 0.866799 0.004667 -0.628631
O32   O     O_R   0.370519 0.939045 0.978346 -0.822144
H59   H     H_    0.388775 0.880339 0.050541 0.294241
C50   C     C_2   0.717300 0.418103 0.057790 1.120790
O33   O     O_2   0.763404 0.366774 0.995344 -0.628633
O34   O     O_R   0.629489 0.439058 0.021649 -0.822099
H60   H     H_    0.611237 0.380352 0.949454 0.294219

loop_
_geom_bond_atom_site_label_1
_geom_bond_atom_site_label_2
_geom_bond_distance
_ccdc_geom_bond_type
C7    C26   1.496834 S    
O16   C28   1.364968 A    
C34   H24   1.074446 S    
C3    C6    1.494570 S    
C15   C49   1.514288 S    
C36   H28   1.101170 S    
C10   O26   1.464408 S    
O24   H16   1.013656 S    
O34   H60   1.014662 S    
O1    C3    1.364681 A    
C31   C32   1.548226 S    
C46   C47   1.529972 S    
O2    C4    1.364690 A    
C47   C48   1.523994 S    
C41   H41   1.090313 S    
O27   C37   1.410400 S    
C44   H47   1.107339 S    
O5    C3    1.368239 A    
C13   O29   1.421602 S    
C38   H33   1.088258 S    
C13   H11   1.117221 S    
C16   H6    1.093209 S    
C14   H12   1.117223 S    
C12   H2    1.114781 S    
C20   C24   1.558887 S    
C40   H39   1.114282 S    
C44   H48   1.107856 S    
C9    C17   1.609708 S    
H4    C22   1.111324 S    
C42   H42   1.069726 S    
C13   C17   1.590014 S    
O28   C40   1.410414 S    
C24   H10   1.112618 S    
C39   H35   1.069789 S    
C49   O31   1.217499 D    
O16   V4    2.052524 S    
H3    C21   1.111324 S    
C17   C28   1.542153 S    
C42   H43   1.104596 S    
O11   C27   1.356830 A    
C4    C5    1.494569 S    
C12   C20   1.557381 S    
C15   C17   1.556991 S    
C12   O28   1.423784 S    
O13   V3    2.024429 S    
C43   C44   1.529973 S    
O5    V1    2.024503 S    
O19   V4    1.803490 S    
O18   V4    1.996976 S    
O6    V2    2.024473 S    
C25   O18   1.357764 A    
C9    C29   1.541773 S    
C23   H7    1.099554 S    
C24   H8    1.099559 S    
C2    O7    1.351997 A    
C8    C25   1.496846 S    
C39   H36   1.104598 S    
C41   H40   1.088273 S    
C50   O34   1.380055 S    
C43   H46   1.114278 S    
C50   O33   1.217498 D    
O13   C25   1.376227 A    
C16   C24   1.573492 S    
C10   C18   1.609724 S    
C48   H58   1.109396 S    
O14   C26   1.376209 A    
C14   C18   1.590013 S    
C29   O21   1.216057 D    
C31   H17   1.074614 S    
O4    C2    1.356555 A    
C40   C41   1.512226 S    
O15   V3    2.052509 S    
C32   H20   1.111593 S    
O26   C34   1.429476 S    
C44   C45   1.523995 S    
C47   H55   1.107852 S    
C16   C50   1.514262 S    
C45   H51   1.109395 S    
C46   H53   1.114279 S    
C11   C19   1.557381 S    
O12   C28   1.356846 A    
C18   C27   1.542180 S    
C29   O22   1.397831 S    
O11   V4    2.018067 S    
C16   C18   1.556976 S    
O4    V2    2.052444 S    
O25   C31   1.429528 S    
C48   H57   1.107995 S    
C35   H27   1.111596 S    
O6    C4    1.368230 A    
C42   H44   1.104864 S    
C13   C21   1.561671 S    
C2    C19   1.563057 S    
C14   C22   1.561676 S    
O1    V2    1.996975 S    
C39   H37   1.104864 S    
O2    V1    1.996993 S    
C11   O27   1.423778 S    
C33   H21   1.101145 S    
C36   H30   1.111221 S    
C37   H32   1.114282 S    
C9    C11   1.599896 S    
C10   C12   1.599883 S    
C34   C35   1.548270 S    
C46   H52   1.109735 S    
C33   H23   1.111206 S    
C10   C30   1.541780 S    
O3    V1    2.052429 S    
C43   H45   1.109734 S    
C35   C36   1.533972 S    
C30   O24   1.397831 S    
C45   H50   1.107993 S    
C15   C23   1.573503 S    
C21   H13   1.113153 S    
C31   H18   1.098601 S    
O3    C1    1.356539 A    
C32   C33   1.533964 S    
O29   C43   1.417153 S    
O15   C27   1.364983 A    
C47   H54   1.107340 S    
O14   V4    2.024398 S    
C38   C39   1.500141 S    
C37   C38   1.512199 S    
C48   H56   1.110855 S    
C9    O25   1.464423 S    
C33   H22   1.110984 S    
C26   O17   1.357782 A    
O20   V3    1.803481 S    
C49   O32   1.380066 S    
O30   C46   1.417152 S    
O7    V1    2.025092 S    
C1    O8    1.352000 A    
C19   C21   1.548714 S    
C14   O30   1.421601 S    
C40   H38   1.107921 S    
O17   V3    1.996993 S    
C20   C22   1.548720 S    
C35   H26   1.095522 S    
C36   H29   1.111002 S    
C45   H49   1.110855 S    
C22   H14   1.113153 S    
C15   H5    1.093214 S    
C5    C7    1.241630 T    
C6    C8    1.241631 T    
C11   H1    1.114778 S    
C19   C23   1.558885 S    
O22   H15   1.013656 S    
C32   H19   1.095550 S    
C30   O23   1.216062 D    
C38   H34   1.090318 S    
C37   H31   1.107922 S    
O9    V2    1.803828 S    
C34   H25   1.098712 S    
C23   H9    1.112620 S    
O10   V1    1.803819 S    
O8    V2    2.025101 S    
C1    C20   1.563034 S    
C41   C42   1.500134 S    
O12   V3    2.018057 S    
O32   H59   1.014663 S    
