data_mof_unit_24565.cif
_audit_creation_date              2012-12-11T16:20:24-0500
_audit_creation_method            fapswitch 2.2
_symmetry_space_group_name_H-M    P1
_symmetry_Int_Tables_number       1
_space_group_crystal_system       triclinic
_cell_length_a                    6.922409
_cell_length_b                    34.319624
_cell_length_c                    38.271033
_cell_angle_alpha                 99.570899
_cell_angle_beta                  89.498398
_cell_angle_gamma                 90.456307
_cell_volume                      8965.1235283

loop_
_atom_site_label
_atom_site_type_symbol
_atom_type_description
_atom_site_fract_x
_atom_site_fract_y
_atom_site_fract_z
_atom_type_partial_charge
O1    O     O_R   0.494320 0.461440 0.460990 -0.539805
O2    O     O_R   0.821450 0.462560 0.532500 -0.542892
O3    O     O_R   0.994330 0.538560 0.539010 -0.539146
C1    C     C_R   0.651897 0.454117 0.543999 0.735885
O4    O     O_R   0.823870 0.456770 0.460860 -0.541786
O5    O     O_R   0.996760 0.532730 0.466860 -0.538861
C2    C     C_R   0.655301 0.446157 0.447831 0.712229
O6    O     O_R   0.491880 0.467270 0.533140 -0.537123
O7    O     O_3   0.661650 0.524930 0.502050 -0.367296
V1    V     V_3+5 0.935500 0.495380 0.499620 1.430957
O8    O     O_R   0.326630 0.537440 0.467500 -0.542027
C3    C     C_R   0.158641 0.546037 0.456159 0.710828
O9    O     O_R   0.324210 0.543230 0.539140 -0.537656
C4    C     C_R   0.155185 0.553981 0.552067 0.744134
V2    V     V_3+5 0.435810 0.504620 0.500380 1.439307
O10   O     O_3   0.159790 0.475070 0.497950 -0.370916
C5    C     C_R   0.969469 0.830324 0.793603 0.636671
N1    N     N_R   0.046693 0.823707 0.824969 -0.549770
C6    C     C_R   0.138809 0.788963 0.827181 0.681178
C7    C     C_R   0.156006 0.759206 0.797125 -0.053054
C8    C     C_R   0.077213 0.765581 0.764751 -0.012925
C9    C     C_R   0.983005 0.801404 0.762882 -0.038448
C10   C     C_R   0.249709 0.723321 0.798651 -0.096929
C11   C     C_R   0.264281 0.694151 0.768518 -0.103488
C12   C     C_R   0.186020 0.700163 0.736062 -0.055174
C13   C     C_R   0.092748 0.736081 0.734168 -0.010631
C14   C     C_R   0.015172 0.742590 0.701745 -0.023403
C15   C     C_R   0.921504 0.778465 0.700202 -0.112239
C16   C     C_R   0.905322 0.807473 0.730400 -0.124952
C17   C     C_R   0.198111 0.671126 0.705380 0.722192
N2    N     N_R   0.122221 0.677923 0.673955 -0.534923
C18   C     C_R   0.033348 0.712972 0.671647 0.660804
O11   O     O_2   0.880435 0.864824 0.792102 -0.502485
O12   O     O_2   0.212755 0.783133 0.858379 -0.466198
H1    H     H_    0.311919 0.717616 0.823157 0.191021
H2    H     H_    0.337172 0.666879 0.770756 0.191300
O13   O     O_2   0.285259 0.636443 0.706914 -0.463191
O14   O     O_2   0.963625 0.719226 0.640298 -0.526790
H3    H     H_    0.860001 0.784235 0.675658 0.177723
H4    H     H_    0.831987 0.834700 0.728173 0.178214
C19   C     C_R   0.290646 0.645316 0.618783 -0.041652
C20   C     C_R   0.295933 0.614369 0.589500 -0.216288
H5    H     H_    0.416885 0.612249 0.571143 0.177838
C21   C     C_R   0.145902 0.586365 0.583137 -0.132735
C22   C     C_R   0.988035 0.589460 0.606643 -0.201167
H6    H     H_    0.870583 0.568199 0.602266 0.164317
C23   C     C_R   0.982026 0.619297 0.636433 0.429749
C24   C     C_R   0.132736 0.647373 0.642984 0.236762
C25   C     C_R   0.861916 0.859313 0.876293 0.434094
C26   C     C_R   0.850480 0.889384 0.905990 -0.230563
H7    H     H_    0.717242 0.893015 0.921200 0.164540
C27   C     C_R   0.010352 0.914157 0.916298 -0.117130
C28   C     C_R   0.181593 0.908290 0.896038 -0.173738
H8    H     H_    0.307144 0.926894 0.903032 0.146688
C29   C     C_R   0.192035 0.878758 0.866095 -0.102225
H9    H     H_    0.323922 0.875224 0.850536 0.185153
C30   C     C_R   0.033114 0.854007 0.855995 0.297612
C31   C     C_R   0.211433 0.841532 0.160097 0.634843
O15   O     O_2   0.356110 0.867419 0.157148 -0.496780
N3    N     N_R   0.048763 0.841681 0.140081 -0.568610
C32   C     C_R   0.901487 0.815196 0.142344 0.668051
C33   C     C_R   0.169872 0.871026 0.089113 -0.015989
C34   C     C_R   0.156649 0.898928 0.066513 -0.165480
C35   C     C_R   0.865636 0.925720 0.097427 -0.069518
C36   C     C_R   0.881015 0.897314 0.119923 -0.101990
C37   C     C_R   0.032642 0.870005 0.116088 0.314017
C38   C     C_R   0.074405 0.788946 0.188449 -0.085661
C39   C     C_R   0.227444 0.815227 0.184354 0.009168
C40   C     C_R   0.396940 0.813664 0.203568 -0.075913
C41   C     C_R   0.913790 0.786969 0.165671 -0.142505
C42   C     C_R   0.004910 0.926403 0.069996 -0.129175
H10   H     H_    0.777736 0.897092 0.141343 0.181196
H11   H     H_    0.523139 0.830928 0.198716 0.165326
C43   C     C_R   0.150971 0.572962 0.429646 -0.057000
C44   C     C_R   0.250497 0.746491 0.267172 -0.053929
C45   C     C_R   0.936687 0.715973 0.247620 0.110939
C46   C     C_R   0.098517 0.719225 0.270611 0.055761
C47   C     C_R   0.391398 0.753104 0.294741 0.346258
C48   C     C_R   0.400858 0.728108 0.319933 -0.147314
C49   C     C_R   0.260602 0.699052 0.321652 -0.108323
C50   C     C_R   0.104228 0.695919 0.298212 -0.047438
C51   C     C_R   0.951047 0.670078 0.302972 -0.010221
C52   C     C_R   0.964271 0.645602 0.328982 0.600969
N4    N     N_R   0.121263 0.648081 0.350962 -0.553853
C53   C     C_R   0.266567 0.674863 0.348048 0.615787
C54   C     C_R   0.978813 0.621348 0.401966 -0.073295
C55   C     C_R   0.987027 0.596267 0.427252 -0.197704
C56   C     C_R   0.305978 0.575091 0.406037 -0.189260
C57   C     C_R   0.295500 0.599381 0.380117 -0.072856
C58   C     C_R   0.131955 0.622876 0.377806 0.345043
O16   O     O_2   0.415278 0.678653 0.370961 -0.518458
C59   C     C_R   0.247853 0.767362 0.237843 0.093646
C60   C     C_R   0.084509 0.764498 0.215095 0.097117
C61   C     C_R   0.935471 0.736651 0.218037 -0.070797
C62   C     C_R   0.409425 0.788856 0.228602 -0.100060
H12   H     H_    0.865891 0.595453 0.445232 0.139936
H13   H     H_    0.852485 0.639574 0.401159 0.162246
H14   H     H_    0.513515 0.733162 0.339695 0.209463
H15   H     H_    0.550558 0.785651 0.239269 0.168698
O17   O     O_2   0.744003 0.816573 0.122169 -0.461712
C63   C     C_R   0.779046 0.755577 0.165570 0.363033
H16   H     H_    0.264508 0.898634 0.045787 0.143590
H17   H     H_    0.287309 0.850044 0.085560 0.169551
C64   C     C_R   0.774547 0.694330 0.256813 -0.143571
C65   C     C_R   0.784435 0.670488 0.282755 -0.113680
O18   O     O_2   0.822007 0.619179 0.331841 -0.523241
C66   C     C_R   0.797434 0.729098 0.190054 -0.147700
H18   H     H_    0.634959 0.696351 0.245050 0.121906
H19   H     H_    0.433615 0.557277 0.407086 0.138711
H20   H     H_    0.658089 0.653283 0.287636 0.168447
H21   H     H_    0.414642 0.599699 0.361641 0.169396
C67   C     C_R   0.735752 0.320276 0.646568 0.653414
O19   O     O_2   0.860955 0.312936 0.619073 -0.512722
N5    N     N_R   0.617909 0.352524 0.649815 -0.559184
C68   C     C_R   0.488272 0.360287 0.677341 0.747048
C69   C     C_R   0.792738 0.401473 0.619613 0.456841
C70   C     C_R   0.800501 0.425434 0.593374 -0.237751
C71   C     C_R   0.474934 0.405599 0.575621 -0.173231
C72   C     C_R   0.468544 0.380824 0.601277 -0.111913
C73   C     C_R   0.627196 0.378374 0.623478 0.270045
C74   C     C_R   0.586609 0.300677 0.698911 -0.092515
C75   C     C_R   0.726695 0.294580 0.671574 -0.003346
C76   C     C_R   0.855804 0.263087 0.669852 -0.116653
C77   C     C_R   0.461117 0.333333 0.701537 -0.151772
C78   C     C_R   0.642056 0.427849 0.571139 -0.117228
H22   H     H_    0.350231 0.406918 0.558972 0.146124
H23   H     H_    0.339800 0.363383 0.603883 0.180558
H24   H     H_    0.970707 0.258887 0.650217 0.168742
C79   C     C_R   0.513387 0.072714 0.929312 -0.076600
C80   C     C_R   0.661666 0.210940 0.741684 -0.013768
C81   C     C_R   0.465867 0.259610 0.780825 0.066843
C82   C     C_R   0.564233 0.223018 0.774378 0.060301
C83   C     C_R   0.728058 0.171103 0.733659 -0.035416
C84   C     C_R   0.723997 0.147086 0.760033 -0.153474
C85   C     C_R   0.644683 0.160477 0.793618 -0.061928
C86   C     C_R   0.564520 0.198482 0.800848 -0.032882
C87   C     C_R   0.483350 0.211915 0.834554 -0.030782
C88   C     C_R   0.480575 0.186768 0.860128 0.630908
N6    N     N_R   0.551406 0.149163 0.852051 -0.543773
C89   C     C_R   0.634107 0.135840 0.819652 0.632339
C90   C     C_R   0.364906 0.100015 0.880577 -0.013056
C91   C     C_R   0.356361 0.075613 0.906851 -0.226858
C92   C     C_R   0.681061 0.094927 0.925555 -0.156382
C93   C     C_R   0.690242 0.120056 0.900355 -0.045623
C94   C     C_R   0.534400 0.122923 0.877758 0.317061
O20   O     O_2   0.702581 0.098654 0.812432 -0.498742
C95   C     C_R   0.690477 0.239672 0.719056 0.087801
C96   C     C_R   0.573233 0.273991 0.723540 0.071354
C97   C     C_R   0.444598 0.281792 0.752700 -0.067930
C98   C     C_R   0.839895 0.236505 0.693508 -0.104014
H25   H     H_    0.227812 0.058063 0.909434 0.163740
H26   H     H_    0.775234 0.116953 0.753644 0.198650
H27   H     H_    0.949655 0.214093 0.692091 0.136023
O21   O     O_2   0.391308 0.394622 0.681722 -0.409345
C99   C     C_R   0.309851 0.336960 0.727221 0.388439
H28   H     H_    0.929433 0.442926 0.590945 0.163232
C100  C     C_R   0.400310 0.273649 0.815646 -0.132474
C101  C     C_R   0.407245 0.250092 0.841940 -0.117032
O22   O     O_2   0.404250 0.199480 0.892538 -0.512742
C102  C     C_R   0.299424 0.310921 0.752326 -0.124805
H29   H     H_    0.347811 0.303432 0.823262 0.154509
H30   H     H_    0.804473 0.093278 0.942440 0.135425
H31   H     H_    0.351139 0.261865 0.868038 0.183529
H32   H     H_    0.819937 0.137390 0.898237 0.136160
C103  C     C_R   0.580209 0.166980 0.206838 0.577554
N7    N     N_R   0.538909 0.177061 0.174592 -0.574344
C104  C     C_R   0.509387 0.215684 0.171014 0.650008
C105  C     C_R   0.522130 0.246470 0.200786 -0.135949
C106  C     C_R   0.565487 0.236129 0.234179 -0.067039
C107  C     C_R   0.593960 0.196170 0.237207 -0.007032
C108  C     C_R   0.494629 0.287079 0.198725 0.424274
C109  C     C_R   0.512034 0.315899 0.229074 -0.150529
C110  C     C_R   0.555373 0.305723 0.262096 -0.086823
C111  C     C_R   0.581089 0.265741 0.264746 -0.008584
C112  C     C_R   0.623101 0.255329 0.297985 -0.011662
C113  C     C_R   0.649764 0.215383 0.300503 -0.134957
C114  C     C_R   0.635769 0.186206 0.270505 -0.126127
C115  C     C_R   0.574092 0.334730 0.292661 0.648168
N8    N     N_R   0.614577 0.324127 0.324800 -0.543862
C116  C     C_R   0.638063 0.285242 0.327939 0.629180
O23   O     O_2   0.606992 0.128696 0.209548 -0.508920
O24   O     O_2   0.470031 0.223970 0.138643 -0.452171
H33   H     H_    0.490999 0.346583 0.226641 0.209492
O25   O     O_2   0.553034 0.373223 0.290229 -0.517539
O26   O     O_2   0.677270 0.275566 0.359874 -0.514098
H34   H     H_    0.682259 0.206506 0.325662 0.176584
H35   H     H_    0.657974 0.155745 0.273531 0.178214
C117  C     C_R   0.471516 0.361758 0.378849 -0.097094
H36   H     H_    0.340483 0.344447 0.373445 0.143153
C118  C     C_R   0.478278 0.391688 0.408473 -0.165436
H37   H     H_    0.352001 0.396797 0.425482 0.135477
C119  C     C_R   0.646780 0.414391 0.416281 -0.073508
C120  C     C_R   0.807564 0.406798 0.393510 -0.234781
H38   H     H_    0.937824 0.424308 0.399328 0.163876
C121  C     C_R   0.801807 0.377216 0.363175 0.012804
C122  C     C_R   0.630942 0.354305 0.355875 0.310625
C123  C     C_R   0.696655 0.127237 0.129538 -0.070236
H39   H     H_    0.835176 0.135391 0.141632 0.120004
C124  C     C_R   0.687184 0.097543 0.099689 -0.183315
H40   H     H_    0.819783 0.083266 0.089484 0.145660
C125  C     C_R   0.508774 0.086229 0.083473 -0.075817
C126  C     C_R   0.340373 0.105663 0.097867 -0.176944
H41   H     H_    0.200612 0.097808 0.086174 0.132894
C127  C     C_R   0.350386 0.135530 0.127635 -0.070296
H42   H     H_    0.219312 0.150062 0.138331 0.122258
C128  C     C_R   0.528486 0.146449 0.143739 0.369482
O27   O     O_R   0.662230 0.032770 0.966890 -0.539686
O28   O     O_R   0.330090 0.043230 0.039150 -0.540864
O29   O     O_R   0.157350 0.967260 0.033130 -0.535349
C129  C     C_R   0.498796 0.054091 0.052089 0.719972
O30   O     O_R   0.332650 0.037450 0.967510 -0.543782
O31   O     O_R   0.159930 0.961430 0.960980 -0.541992
C130  C     C_R   0.502310 0.046003 0.956095 0.710361
O32   O     O_R   0.659640 0.038600 0.039040 -0.529876
O33   O     O_3   0.492510 0.975090 0.997960 -0.367761
V3    V     V_3+5 0.218600 0.004620 0.000380 1.446158
O34   O     O_R   0.830050 0.956730 0.960830 -0.543415
C131  C     C_R   0.999241 0.946066 0.947810 0.726409
O35   O     O_R   0.827490 0.962520 0.032470 -0.531728
C132  C     C_R   0.995377 0.954362 0.044215 0.760003
V4    V     V_3+5 0.718310 0.995320 0.999580 1.461376
O36   O     O_3   0.994270 0.024900 0.002040 -0.370998
C133  C     C_2   0.710040 0.955447 0.104938 0.790019
O37   O     O_2   0.551246 0.945711 0.114970 -0.533704
O38   O     O_R   0.746827 0.994911 0.102160 -0.662919
H43   H     H_    0.630936 0.012387 0.109275 0.292463
Cl1   Cl    Cl    0.534672 0.796294 0.305090 -0.602685
Cl2   Cl    Cl    0.600398 0.745331 0.132089 -0.481090
C134  C     C_2   0.697114 0.690196 0.181935 0.877114
O39   O     O_2   0.521713 0.688452 0.178232 -0.515089
O40   O     O_R   0.804402 0.655493 0.179501 -0.629909
H44   H     H_    0.720784 0.630849 0.174422 0.324488
C135  C     C_2   0.197357 0.100186 0.856254 0.803646
O41   O     O_2   0.060397 0.077849 0.858099 -0.539375
O42   O     O_R   0.194946 0.125260 0.830975 -0.658040
H45   H     H_    0.074215 0.122089 0.815973 0.322911
C136  C     C_2   0.772465 0.151217 0.697009 0.778667
O43   O     O_2   0.899058 0.126210 0.691724 -0.532272
O44   O     O_R   0.664822 0.160099 0.668621 -0.648308
H46   H     H_    0.707930 0.144512 0.645028 0.318785
Cl3   Cl    Cl    0.989622 0.402427 0.648235 -0.488794
Cl4   Cl    Cl    0.116825 0.370412 0.725738 -0.422592
C137  C     C_2   0.120415 0.310066 0.774071 0.835678
O45   O     O_2   0.056642 0.340522 0.791317 -0.491377
O46   O     O_R   0.027761 0.273984 0.775390 -0.667767
H47   H     H_    0.909774 0.276978 0.791463 0.298760
Cl5   Cl    Cl    0.438077 0.304721 0.159302 -0.461645
C138  C     C_2   0.449689 0.675196 0.622535 0.880459
O47   O     O_2   0.468966 0.699026 0.649829 -0.535790
O48   O     O_R   0.578471 0.676166 0.594308 -0.662437
H48   H     H_    0.675666 0.698568 0.599214 0.342010
C139  C     C_2   0.975251 0.371454 0.339724 0.777754
O49   O     O_2   0.999157 0.340563 0.319133 -0.551423
O50   O     O_R   0.113418 0.401652 0.341414 -0.660416
H49   H     H_    0.223924 0.394574 0.324057 0.336652
Cl6   Cl    Cl    0.782929 0.620962 0.665528 -0.547809
Cl7   Cl    Cl    0.661539 0.828039 0.865290 -0.595238

loop_
_geom_bond_atom_site_label_1
_geom_bond_atom_site_label_2
_ccdc_geom_bond_type
C32   C41   A    
C63   C66   A    
C29   H9    S    
C45   C64   A    
C60   C61   A    
C9    C16   A    
C3    C43   S    
C109  C110  A    
C106  C107  A    
C48   H14   S    
C25   Cl7   S    
C6    C7    A    
N4    C58   S    
C108  C109  A    
C67   N5    A    
N5    C68   A    
C53   O16   S    
C41   C63   A    
C85   C86   A    
C22   H6    S    
C27   C28   A    
C5    O11   S    
C13   C14   A    
C103  N7    A    
C83   C136  S    
C87   C101  A    
C63   Cl2   S    
C4    C21   S    
C15   C16   A    
C65   H20   S    
O5    C3    A    
C17   N2    A    
C62   H15   S    
C51   C65   A    
C104  O24   S    
C31   N3    A    
C92   C93   A    
C136  O44   S    
O27   C130  A    
C136  O43   D    
C25   C30   A    
C69   C70   A    
C117  C118  A    
N1    C6    A    
C19   C20   A    
C35   C42   A    
C1    O6    A    
C123  C124  A    
C54   H13   S    
C111  C112  A    
C67   O19   S    
C74   C77   A    
C95   C96   A    
C45   C61   A    
C71   C72   A    
O8    V2    S    
C88   O22   S    
C105  C108  A    
N6    C94   S    
C33   C34   A    
O44   H46   S    
C39   C40   A    
C120  C121  A    
C98   H27   S    
C81   C100  A    
C137  O45   D    
C26   C27   A    
C106  C111  A    
C77   C99   A    
C40   H11   S    
O1    V2    S    
C71   C78   A    
C18   O14   S    
C43   C55   A    
C135  O41   D    
C92   H30   S    
C48   C49   A    
C90   C94   A    
C28   C29   A    
O30   V3    S    
C99   C102  A    
C76   C98   A    
N3    C37   S    
C124  H40   S    
O28   V3    S    
C110  C111  A    
C8    C9    A    
C93   H32   S    
C100  C101  A    
C127  H42   S    
C123  C128  A    
C20   C21   A    
C34   H16   S    
O33   V4    S    
C64   C65   A    
C97   C102  A    
C8    C13   A    
C138  O48   S    
O38   H43   S    
N8    C122  S    
C22   C23   A    
O34   V4    S    
C85   C89   A    
N6    C89   A    
C61   C66   A    
O29   V3    S    
C126  H41   S    
C33   C37   A    
C107  C114  A    
C90   C135  S    
C38   C39   A    
C23   C24   A    
C115  N8    A    
C35   C133  S    
C95   C98   A    
C11   C12   A    
C133  O37   D    
C54   C58   A    
C89   O20   S    
C104  C105  A    
O4    C2    A    
O31   V3    S    
C47   C48   A    
C93   C94   A    
C79   C91   A    
C15   H3    S    
C137  O46   S    
C31   O15   S    
C28   H8    S    
C51   C52   A    
C59   C62   A    
C50   C51   A    
C42   C132  S    
N8    C116  A    
C17   O13   S    
C108  Cl5   S    
N3    C32   A    
C91   H25   S    
C80   C82   A    
O33   V3    S    
C118  H37   S    
C67   C75   A    
C49   C53   A    
O32   V4    S    
O35   V4    S    
V4    O36   S    
C135  O42   S    
N1    C30   S    
C52   N4    A    
C7    C10   A    
C46   C50   A    
C82   C86   A    
C84   H26   S    
C55   H12   S    
C7    C8    A    
C70   H28   S    
C5    N1    A    
C74   C96   A    
C26   H7    S    
C11   H2    S    
C115  O25   S    
N4    C53   A    
C44   C46   A    
C74   C75   A    
C112  C116  A    
O3    C4    A    
C126  C127  A    
C44   C59   A    
C79   C130  S    
C56   H19   S    
C1    C78   S    
C31   C39   A    
C113  C114  A    
O30   C130  A    
C34   C42   A    
C47   Cl1   S    
C25   C26   A    
O6    V2    S    
C10   H1    S    
N2    C24   S    
O9    V2    S    
C68   O21   S    
C83   C84   A    
C134  O40   S    
O9    C4    A    
C2    C119  S    
C81   C97   A    
C80   C83   A    
C20   H5    S    
C121  C139  S    
C81   C82   A    
O2    V1    S    
C100  H29   S    
C125  C129  S    
C64   H18   S    
C138  O47   D    
C54   C55   A    
C139  O50   S    
C33   H17   S    
O7    V1    S    
C12   C17   A    
O35   C132  A    
C69   Cl3   S    
C105  C106  A    
O42   H45   S    
C118  C119  A    
C68   C77   A    
C14   C18   A    
O1    C2    A    
O29   C132  A    
N2    C18   A    
C101  H31   S    
C21   C22   A    
C127  C128  A    
C49   C50   A    
C40   C62   A    
C6    O12   S    
C114  H35   S    
O5    V1    S    
C72   C73   A    
C133  O38   S    
C113  H34   S    
C84   C85   A    
C79   C92   A    
C36   H10   S    
C71   H22   S    
C87   C88   A    
C57   H21   S    
C27   C131  S    
C5    C9    A    
C134  O39   D    
C52   O18   S    
C125  C126  A    
C38   C41   A    
C103  O23   S    
C35   C36   A    
O50   H49   S    
C29   C30   A    
C12   C13   A    
C23   Cl6   S    
C19   C138  S    
C112  C113  A    
C129  O32   A    
C90   C91   A    
C119  C120  A    
C45   C46   A    
C109  H33   S    
C76   H24   S    
N7    C104  A    
O31   C131  A    
C110  C115  A    
O3    V1    S    
O2    C1    A    
C16   H4    S    
C38   C60   A    
C59   C60   A    
C19   C24   A    
C80   C95   A    
C96   C97   A    
C36   C37   A    
C102  C137  S    
O7    V2    S    
C123  H39   S    
C44   C47   A    
V3    O36   S    
O48   H48   S    
O34   C131  A    
C88   N6    A    
C10   C11   A    
C121  C122  A    
C32   O17   S    
C99   Cl4   S    
C69   C73   A    
O4    V1    S    
C75   C76   A    
C56   C57   A    
C117  C122  A    
O28   C129  A    
C120  H38   S    
C116  O26   S    
O40   H44   S    
C124  C125  A    
C66   C134  S    
C117  H36   S    
V1    O10   S    
N7    C128  S    
C43   C56   A    
C57   C58   A    
O46   H47   S    
C70   C78   A    
C103  C107  A    
N5    C73   S    
C86   C87   A    
V2    O10   S    
O8    C3    A    
C139  O49   D    
C14   C15   A    
O27   V4    S    
C72   H23   S    
