data_mof_unit_18482.cif
_audit_creation_date              2012-12-11T15:59:47-0500
_audit_creation_method            fapswitch 2.2
_symmetry_space_group_name_H-M    P1
_symmetry_Int_Tables_number       1
_space_group_crystal_system       triclinic
_cell_length_a                    10.693755
_cell_length_b                    10.82841
_cell_length_c                    16.976958
_cell_angle_alpha                 98.518778
_cell_angle_beta                  98.492
_cell_angle_gamma                 61.170468
_cell_volume                      1696.60874095

loop_
_atom_site_label
_atom_site_type_symbol
_atom_type_description
_atom_site_fract_x
_atom_site_fract_y
_atom_site_fract_z
_atom_type_partial_charge
C1    C     C_R   0.386998 0.704490 0.387692 0.570744
C2    C     C_R   0.874301 0.294956 0.339570 -0.012806
C3    C     C_R   0.344953 0.792347 0.146337 0.006573
C4    C     C_R   0.370652 0.347527 0.357502 0.575569
C5    C     C_R   0.482591 0.741982 0.183150 0.016566
C6    C     C_R   0.507563 0.718454 0.265568 0.002789
C7    C     C_R   0.269200 0.733005 0.254283 -0.150179
C8    C     C_R   0.244208 0.771472 0.178283 -0.134201
C9    C     C_R   0.593470 0.716587 0.137943 -0.112811
C10   C     C_R   0.726838 0.684983 0.174024 -0.090386
C11   C     C_R   0.753371 0.677540 0.255635 0.047559
C12   C     C_R   0.837738 0.207619 0.202707 0.007308
C13   C     C_R   0.645064 0.695347 0.302769 -0.085616
C14   C     C_R   0.391310 0.721682 0.302989 -0.007692
C15   C     C_R   0.299500 0.286499 0.800513 -0.001575
C16   C     C_R   0.783807 0.370280 0.406707 0.539056
C17   C     C_R   0.423825 0.185225 0.762690 0.011527
C18   C     C_R   0.482665 0.231668 0.713585 0.031302
C19   C     C_R   0.262363 0.456493 0.710637 -0.128031
C20   C     C_R   0.216594 0.422696 0.772234 0.070165
C21   C     C_R   0.494355 0.039515 0.774779 -0.086526
C22   C     C_R   0.631106 0.949004 0.751124 -0.095174
C23   C     C_R   0.850729 0.191191 0.286025 0.044231
C24   C     C_R   0.700245 0.002424 0.714720 -0.109249
C25   C     C_R   0.626733 0.142370 0.695918 -0.085602
C26   C     C_R   0.391333 0.360593 0.678909 -0.033846
C27   C     C_1   0.818049 0.341866 0.708798 -0.041704
C28   C     C_R   0.357804 0.768164 0.627384 0.555888
C29   C     C_1   0.845764 0.314387 0.776903 -0.033612
C30   C     C_1   0.338692 0.808202 0.709425 -0.055060
C31   C     C_1   0.314733 0.836065 0.778045 -0.054673
C32   C     C_R   0.904203 0.302068 0.092905 0.530292
C33   C     C_R   0.319147 0.299208 0.119725 0.562882
C34   C     C_R   0.956920 0.346412 0.316124 -0.139396
C35   C     C_R   0.295965 0.883087 0.081131 0.546027
C36   C     C_R   0.887670 0.297269 0.859161 0.550740
C37   C     C_R   0.279685 0.256383 0.877458 0.548795
C38   C     C_R   0.280336 0.883687 0.857819 0.542861
C39   C     C_R   0.411443 0.377096 0.599075 0.562054
C40   C     C_R   0.772762 0.380832 0.629491 0.542419
C41   C     C_1   0.344462 0.337405 0.273998 -0.022118
C42   C     C_1   0.332587 0.326918 0.202996 -0.027812
C43   C     C_R   0.889517 0.294210 0.177474 0.008548
C44   C     C_3   0.857909 0.044259 0.399218 -0.241797
C45   C     C_R   0.971198 0.337942 0.234982 -0.117150
C46   C     C_3   0.919029 0.894876 0.419988 -0.341111
C47   C     C_3   0.950076 0.885685 0.510377 -0.402267
C48   C     C_R   0.775705 0.136394 0.148578 -0.098565
C49   C     C_R   0.741107 0.041276 0.174631 -0.119139
C50   C     C_R   0.769286 0.012608 0.254511 -0.087351
C51   C     C_R   0.830404 0.080225 0.311369 0.043145
Cr1   Cr    Cr6+3 0.608100 0.610860 0.522250 1.020259
Cr2   Cr    Cr6+3 0.288890 0.599990 0.488420 0.995131
Cr3   Cr    Cr6+3 0.603040 0.289190 0.489390 0.961009
Cr4   Cr    Cr6+3 0.053960 0.052250 0.967380 1.035976
Cr5   Cr    Cr6+3 0.059890 0.373160 0.992710 1.051166
Cr6   Cr    Cr6+3 0.373370 0.061690 0.991710 0.999717
H1    H     H_    0.004363 0.397418 0.360613 0.171731
H2    H     H_    0.042456 0.370031 0.216138 0.171054
H3    H     H_    0.692869 0.987997 0.132202 0.140216
H4    H     H_    0.738796 0.940124 0.272436 0.147667
H5    H     H_    0.185173 0.723101 0.276433 0.177547
H6    H     H_    0.577895 0.719558 0.073626 0.130341
H7    H     H_    0.139972 0.795522 0.147269 0.164273
H8    H     H_    0.021803 0.931983 0.535306 0.183323
H9    H     H_    0.848757 0.944312 0.540129 0.126810
H10   H     H_    0.001843 0.773177 0.523422 0.183600
H11   H     H_    0.837079 0.859124 0.400980 0.176072
H12   H     H_    0.809489 0.669557 0.137883 0.161779
H13   H     H_    0.018009 0.831430 0.390765 0.246423
H14   H     H_    0.928828 0.086368 0.432950 0.163170
H15   H     H_    0.752293 0.090464 0.423355 0.219335
H16   H     H_    0.668581 0.695467 0.366308 0.183139
H17   H     H_    0.193932 0.556704 0.685476 0.163140
H18   H     H_    0.444730 0.995457 0.803270 0.149293
H19   H     H_    0.684185 0.838687 0.762781 0.153422
H20   H     H_    0.808717 0.934592 0.698602 0.127891
H21   H     H_    0.682488 0.178187 0.665855 0.150672
H22   H     H_    0.751164 0.154595 0.085972 0.142601
I1    I     I_    0.965323 0.636048 0.293356 -0.564343
I2    I     I_    0.015625 0.585352 0.810132 -0.361420
O1    O     O_R   0.749810 0.499790 0.438040 -0.522999
O2    O     O_R   0.411730 0.181020 0.091530 -0.517596
O3    O     O_R   0.365010 0.944360 0.063320 -0.505544
O4    O     O_R   0.477660 0.726260 0.439290 -0.502354
O5    O     O_R   0.159380 0.906670 0.876210 -0.484432
O6    O     O_R   0.930820 0.177420 0.886730 -0.497677
O7    O     O_R   0.910360 0.395420 0.895720 -0.489076
O8    O     O_R   0.186010 0.361730 0.919870 -0.454813
O9    O     O_R   0.400000 0.173010 0.914630 -0.518159
O10   O     O_R   0.354140 0.936940 0.899340 -0.540110
O11   O     O_3   0.162410 0.162370 0.983930 -0.279203
O12   O     O_R   0.298970 0.468800 0.557390 -0.493931
O13   O     O_R   0.260150 0.743000 0.412270 -0.527714
O14   O     O_R   0.297740 0.466550 0.394720 -0.486191
O15   O     O_R   0.488080 0.253500 0.386430 -0.523840
O16   O     O_R   0.722670 0.303800 0.421940 -0.535515
O17   O     O_R   0.751130 0.502220 0.613520 -0.484168
O18   O     O_R   0.478890 0.728510 0.601960 -0.483660
O19   O     O_R   0.261470 0.745430 0.587750 -0.539897
O20   O     O_R   0.489400 0.255930 0.561910 -0.512281
O21   O     O_R   0.723890 0.306050 0.584610 -0.555153
O22   O     O_3   0.500010 0.500010 0.500020 -0.293097
O23   O     O_R   0.171100 0.914680 0.053100 -0.516374
O24   O     O_R   0.941680 0.184840 0.050710 -0.505371
O25   O     O_R   0.922080 0.403420 0.072610 -0.514859
O26   O     O_R   0.196880 0.369150 0.083850 -0.488566

loop_
_geom_bond_atom_site_label_1
_geom_bond_atom_site_label_2
_ccdc_geom_bond_type
Cr1   O22   S    
Cr6   O11   S    
Cr2   O14   S    
C41   C42   T    
Cr3   O20   S    
C19   C20   A    
C18   C26   A    
C22   H19   S    
C12   C48   A    
C7    C8    A    
Cr5   O26   S    
C36   O7    A    
C46   H11   S    
C29   C36   S    
C49   H3    S    
C37   O9    A    
Cr4   O24   S    
C33   C42   S    
C48   H22   S    
Cr1   O4    S    
C12   C43   A    
C40   O17   A    
C30   C31   T    
C26   C39   S    
Cr5   O7    S    
C27   C29   T    
C4    C41   S    
C44   H14   S    
C19   C26   A    
C39   O12   A    
C4    O15   A    
C7    C14   A    
C15   C37   S    
C1    O13   A    
C33   O26   A    
Cr6   O2    S    
Cr3   O16   S    
C38   O5    A    
C2    C16   S    
C9    C10   A    
C47   H9    S    
Cr3   O15   S    
C2    C34   A    
Cr2   O19   S    
C32   O25   A    
C21   C22   A    
C18   C25   A    
C47   H10   S    
C44   C46   S    
C39   O20   A    
C36   O6    A    
C1    O4    A    
C15   C20   A    
Cr6   O9    S    
Cr2   O12   S    
C25   H21   S    
Cr3   O22   S    
C24   C25   A    
C35   O23   A    
C10   C11   A    
C50   C51   A    
Cr4   O23   S    
C17   C21   A    
C7    H5    S    
C5    C9    A    
Cr4   O11   S    
C6    C14   A    
C4    O14   A    
C43   C45   A    
C23   C51   A    
C12   C23   A    
C3    C35   S    
C27   C40   S    
C16   O1    A    
C17   C18   A    
Cr6   O3    S    
C34   C45   A    
Cr1   O1    S    
C33   O2    A    
Cr5   O25   S    
C8    H7    S    
C28   O18   A    
Cr5   O8    S    
C13   H16   S    
C3    C8    A    
C32   O24   A    
C22   C24   A    
C44   C51   S    
C15   C17   A    
C46   C47   S    
C45   H2    S    
Cr6   O10   S    
Cr2   O13   S    
C9    H6    S    
Cr3   O21   S    
C19   H17   S    
C3    C5    A    
C35   O3    A    
C21   H18   S    
Cr1   O18   S    
C31   C38   S    
C37   O8    A    
Cr4   O5    S    
C28   C30   S    
C6    C13   A    
C11   C13   A    
C28   O19   A    
C5    C6    A    
Cr2   O22   S    
C48   C49   A    
C38   O10   A    
Cr1   O17   S    
C32   C43   S    
C44   H15   S    
Cr4   O6    S    
C16   O16   A    
C46   H13   S    
C11   I1    S    
C40   O21   A    
C10   H12   S    
C24   H20   S    
Cr5   O11   S    
C49   C50   A    
C2    C23   A    
C34   H1    S    
C50   H4    S    
C1    C14   S    
C20   I2    S    
C47   H8    S    
