data_mof_unit_23939.cif
_audit_creation_date              2012-12-10T17:19:53-0500
_audit_creation_method            fapswitch 2.2
_symmetry_space_group_name_H-M    P1
_symmetry_Int_Tables_number       1
_space_group_crystal_system       triclinic
_cell_length_a                    9.57579
_cell_length_b                    10.88343
_cell_length_c                    15.471871
_cell_angle_alpha                 86.241115
_cell_angle_beta                  74.108136
_cell_angle_gamma                 91.697337
_cell_volume                      1545.57331452

loop_
_atom_site_label
_atom_site_type_symbol
_atom_type_description
_atom_site_fract_x
_atom_site_fract_y
_atom_site_fract_z
_atom_type_partial_charge
C1    C     C_R   0.994323 0.261599 0.506136 0.812896
C2    C     C_R   0.679936 0.535789 0.909801 -0.017550
C3    C     C_R   0.783847 0.524597 0.959167 0.094356
C4    C     C_R   0.534915 0.560681 0.955447 0.067271
C5    C     C_R   0.486743 0.539220 0.050324 0.063580
C6    C     C_R   0.592117 0.528085 0.098251 -0.121983
C7    C     C_R   0.739050 0.523535 0.053129 -0.164813
C8    C     C_R   0.440258 0.614827 0.909931 -0.137100
C9    C     C_R   0.298644 0.638105 0.956114 -0.242463
C10   C     C_R   0.244812 0.600609 0.047521 0.139781
C11   C     C_R   0.336121 0.542187 0.094390 0.056008
C12   C     C_R   0.917649 0.504278 0.672199 0.804189
C13   C     C_R   0.100481 0.620784 0.092521 -0.190410
C14   C     C_R   0.045322 0.582759 0.183292 -0.223192
C15   C     C_R   0.272220 0.487975 0.182601 0.084137
C16   C     C_R   0.134778 0.101934 0.622002 0.465705
C17   C     C_R   0.270054 0.061666 0.627051 -0.160400
C18   C     C_R   0.330949 0.963776 0.578510 -0.177909
C19   C     C_R   0.250126 0.898983 0.532088 -0.142261
C20   C     C_R   0.115450 0.941935 0.524584 0.070886
C21   C     C_R   0.080331 0.060118 0.552313 0.022467
C22   C     C_R   0.981448 0.126046 0.516479 -0.148884
C23   C     C_R   0.004378 0.738425 0.496614 0.786685
C24   C     C_R   0.883822 0.060097 0.480328 0.158990
C25   C     C_R   0.895150 0.934107 0.474882 -0.246525
C26   C     C_R   0.011043 0.873530 0.494618 -0.113657
C27   C     C_R   0.705018 0.658902 0.372848 -0.328464
C28   C     C_R   0.663936 0.730827 0.305999 0.433978
C29   C     C_R   0.518198 0.731611 0.308491 0.112734
C30   C     C_R   0.415506 0.661475 0.375747 -0.308562
C31   C     C_R   0.454650 0.580061 0.439087 0.185491
C32   C     C_R   0.604365 0.579585 0.438528 0.174091
C33   C     C_R   0.546305 0.422369 0.556969 0.024678
C34   C     C_R   0.082405 0.500442 0.327845 0.828954
C35   C     C_R   0.398425 0.422386 0.556911 -0.034814
C36   C     C_R   0.871252 0.510421 0.771157 -0.148527
C37   C     C_R   0.130994 0.518440 0.229244 -0.084646
C38   C     C_R   0.930695 0.513945 0.913824 -0.194620
C39   C     C_R   0.974670 0.512122 0.820256 -0.278987
C40   C     C_R   0.722182 0.513929 0.817418 0.429993
Cu1   Cu    Cu3+1 0.140660 0.499990 0.500010 0.951398
Cu2   Cu    Cu3+1 0.859340 0.500010 0.499990 0.980030
H1    H     H_    0.816979 0.515766 0.092094 0.155805
H2    H     H_    0.031467 0.669172 0.058092 0.164445
H3    H     H_    0.318525 0.095116 0.677139 0.137376
H4    H     H_    0.433843 0.930577 0.584093 0.169830
H5    H     H_    0.298031 0.819519 0.500751 0.177560
H6    H     H_    0.813392 0.883504 0.453210 0.167712
H7    H     H_    0.579468 0.357736 0.602683 0.136953
H8    H     H_    0.816841 0.665654 0.369456 0.205696
H9    H     H_    0.306400 0.674067 0.374955 0.225707
H10   H     H_    0.321174 0.358035 0.602909 0.106181
H11   H     H_    0.935865 0.604474 0.217740 0.196847
H12   H     H_    0.230142 0.683390 0.919717 0.154958
H13   H     H_    0.011714 0.507366 0.950620 0.155667
H14   H     H_    0.089372 0.507349 0.786742 0.180439
H15   H     H_    0.562759 0.529980 0.170744 0.179342
H16   H     H_    0.477239 0.647680 0.839598 0.197012
N1    N     N_R   0.648320 0.501210 0.499140 -0.175280
N2    N     N_R   0.352470 0.501290 0.499110 -0.178878
O1    O     O_R   0.118810 0.319640 0.500010 -0.570206
O2    O     O_R   0.881240 0.319660 0.500000 -0.550509
O3    O     O_R   0.055570 0.499980 0.629840 -0.602897
O4    O     O_R   0.818000 0.500010 0.629830 -0.523290
O5    O     O_R   0.118760 0.680340 0.500000 -0.613264
O6    O     O_R   0.881190 0.680360 0.499990 -0.593994
O7    O     O_R   0.182000 0.499990 0.370170 -0.565790
O8    O     O_R   0.944430 0.500020 0.370160 -0.590911
I1    I     I_    0.709843 0.135350 0.435370 -0.379785
O9    O     O_3   0.034510 0.110567 0.704514 -0.579006
C41   C     C_3   0.012995 0.233857 0.721732 -0.292810
H17   H     H_    0.955720 0.237714 0.794194 0.198820
H18   H     H_    0.940223 0.271100 0.683212 0.146195
H19   H     H_    0.116646 0.289591 0.708422 0.146852
O10   O     O_3   0.765610 0.788338 0.231456 -0.569430
C42   C     C_3   0.850377 0.878805 0.257878 -0.246042
H20   H     H_    0.931621 0.836589 0.288379 0.138218
H21   H     H_    0.781314 0.940885 0.303833 0.193177
H22   H     H_    0.911928 0.936609 0.196855 0.214305
I2    I     I_    0.359841 0.328154 0.234495 -0.301894
I3    I     I_    0.448103 0.840088 0.211030 -0.307347
O11   O     O_3   0.617522 0.487570 0.773864 -0.584377
C43   C     C_3   0.572015 0.361845 0.794114 -0.311881
H23   H     H_    0.530121 0.337864 0.867994 0.173881
H24   H     H_    0.661776 0.301683 0.764074 0.161252
H25   H     H_    0.481176 0.342662 0.764536 0.170826

loop_
_geom_bond_atom_site_label_1
_geom_bond_atom_site_label_2
_ccdc_geom_bond_type
C30   H9    S    
C16   C21   A    
C34   C37   S    
Cu1   Cu2   S    
C19   C20   A    
C42   H22   S    
Cu1   O1    S    
C4    C8    A    
C1    O2    A    
Cu1   O7    S    
C43   H23   S    
C23   O6    A    
C28   C29   A    
C42   H21   S    
C5    C11   A    
C3    C7    A    
C5    C6    A    
C12   O4    A    
C19   H5    S    
C33   H7    S    
C18   C19   A    
C23   C26   S    
C15   C37   A    
C8    H16   S    
C11   C15   A    
C38   H13   S    
C31   C32   A    
C3    C38   A    
C8    C9    A    
O9    C41   S    
C7    H1    S    
C12   C36   S    
C9    C10   A    
Cu2   O2    S    
C27   H8    S    
C1    C22   S    
C33   N1    A    
C21   C22   A    
Cu2   O8    S    
C6    H15   S    
C18   H4    S    
C24   I1    S    
C38   C39   A    
C40   O11   S    
C36   C40   A    
C16   O9    S    
C42   H20   S    
C34   O8    A    
C41   H18   S    
C12   O3    A    
C16   C17   A    
Cu1   O5    S    
C25   C26   A    
C35   N2    A    
C31   N2    A    
Cu2   N1    S    
C2    C4    A    
O10   C42   S    
C29   I3    S    
C29   C30   A    
C39   H14   S    
C14   H11   S    
C17   C18   A    
C24   C25   A    
C25   H6    S    
C43   H24   S    
C22   C24   A    
Cu1   O3    S    
Cu2   O4    S    
C35   H10   S    
C27   C32   A    
C36   C39   A    
Cu1   N2    S    
C17   H3    S    
C4    C5    A    
C10   C13   A    
C1    O1    A    
C34   O7    A    
C41   H19   S    
C6    C7    A    
C23   O5    A    
C2    C3    A    
C41   H17   S    
C14   C37   A    
C30   C31   A    
C20   C26   A    
C33   C35   A    
C15   I2    S    
C10   C11   A    
C2    C40   A    
C43   H25   S    
C20   C21   A    
O11   C43   S    
C27   C28   A    
Cu2   O6    S    
C9    H12   S    
C32   N1    A    
C13   C14   A    
C28   O10   S    
C13   H2    S    
