data_mof_unit_24068.cif
_audit_creation_date              2012-12-11T17:43:42-0500
_audit_creation_method            fapswitch 2.2
_symmetry_space_group_name_H-M    P1
_symmetry_Int_Tables_number       1
_space_group_crystal_system       triclinic
_cell_length_a                    15.06849
_cell_length_b                    15.196514
_cell_length_c                    16.920062
_cell_angle_alpha                 108.77345
_cell_angle_beta                  106.139812
_cell_angle_gamma                 109.387232
_cell_volume                      3122.68294354

loop_
_atom_site_label
_atom_site_type_symbol
_atom_type_description
_atom_site_fract_x
_atom_site_fract_y
_atom_site_fract_z
_atom_type_partial_charge
C1    C     C_R   0.090329 0.277294 0.037659 -0.134010
C2    C     C_R   0.076241 0.058743 0.946369 -0.228524
C3    C     C_R   0.995475 0.889153 0.939090 0.057496
C4    C     C_R   0.998645 0.079232 0.965798 0.058905
C5    C     C_R   0.075551 0.962881 0.932248 0.020983
C6    C     C_R   0.916427 0.002443 0.968210 0.019395
C7    C     C_R   0.729272 0.956069 0.931390 -0.191644
C8    C     C_R   0.262613 0.015747 0.960410 -0.149183
C9    C     C_R   0.679354 0.043654 0.045028 -0.087322
C10   C     C_R   0.310368 0.898352 0.866923 -0.092518
C11   C     C_R   0.507904 0.699318 0.359441 -0.240173
C12   C     C_R   0.913007 0.708367 0.920030 -0.160286
C13   C     C_R   0.504322 0.409568 0.718588 -0.286774
C14   C     C_R   0.525310 0.693136 0.280938 0.586936
C15   C     C_R   0.507897 0.426343 0.806219 0.533378
C16   C     C_R   0.935513 0.450348 0.735041 -0.128577
C17   C     C_R   0.064272 0.484020 0.254934 -0.144309
C18   C     C_R   0.526521 0.601578 0.224736 -0.099533
C19   C     C_R   0.548706 0.530421 0.875255 -0.073585
C20   C     C_R   0.515431 0.521382 0.251381 -0.233830
C21   C     C_R   0.579777 0.613973 0.853116 -0.251551
C22   C     C_R   0.499498 0.529556 0.330306 -0.087846
C23   C     C_R   0.027556 0.463833 0.725878 0.062073
C24   C     C_R   0.576323 0.595722 0.765824 -0.098636
C25   C     C_R   0.494834 0.617949 0.383777 -0.183817
C26   C     C_R   0.539102 0.493674 0.698788 -0.160299
C27   C     C_R   0.619808 0.573731 0.126236 -0.199974
C28   C     C_R   0.471416 0.568711 0.980530 -0.189479
C29   C     C_R   0.627367 0.556589 0.042512 0.089962
C30   C     C_R   0.458889 0.577331 0.060589 0.108142
C31   C     C_R   0.552482 0.554776 0.968846 0.115177
C32   C     C_R   0.535230 0.585147 0.136514 0.138811
C33   C     C_R   0.651882 0.969056 0.956503 -0.111629
C34   C     C_R   0.972885 0.426686 0.257897 0.074277
C35   C     C_R   0.338891 0.994279 0.939325 -0.056184
C36   C     C_R   0.964091 0.388776 0.326168 0.126864
C37   C     C_R   0.035753 0.418394 0.639157 0.126321
C38   C     C_R   0.139384 0.435505 0.553175 -0.224211
C39   C     C_R   0.858970 0.318775 0.397417 -0.198267
C40   C     C_R   0.720963 0.215012 0.823152 -0.100953
C41   C     C_R   0.223001 0.796369 0.187584 -0.027832
C42   C     C_R   0.133362 0.449126 0.636528 -0.169840
C43   C     C_R   0.866175 0.340016 0.325061 -0.208267
C44   C     C_R   0.944671 0.358357 0.556191 -0.258814
C45   C     C_R   0.664977 0.216656 0.744076 0.076368
C46   C     C_R   0.054200 0.408997 0.397527 -0.281946
C47   C     C_R   0.949976 0.352729 0.474407 0.187100
C48   C     C_R   0.048237 0.395465 0.473629 0.188880
C49   C     C_R   0.556700 0.141969 0.677033 0.186776
C50   C     C_R   0.280442 0.896983 0.360594 0.127582
C51   C     C_R   0.384553 0.085453 0.445213 -0.214476
C52   C     C_R   0.410315 0.969101 0.607186 -0.201859
C53   C     C_R   0.315700 0.995836 0.362202 -0.136299
C54   C     C_R   0.502807 0.049936 0.681839 -0.083061
C55   C     C_R   0.299531 0.890651 0.444064 -0.267330
C56   C     C_R   0.239694 0.801954 0.274381 0.055376
C57   C     C_R   0.510246 0.157342 0.601985 -0.238827
C58   C     C_R   0.373060 0.979024 0.526720 0.187409
C59   C     C_R   0.420131 0.075809 0.526007 0.193518
C60   C     C_R   0.784211 0.105216 0.108450 -0.114272
C61   C     C_R   0.205459 0.823837 0.815153 -0.112682
C62   C     C_R   0.862045 0.093434 0.083447 -0.118350
C63   C     C_R   0.128876 0.845106 0.835677 -0.124429
C64   C     C_R   0.300230 0.595396 0.004009 -0.080240
C65   C     C_R   0.738044 0.463697 0.048288 -0.013233
C66   C     C_R   0.835039 0.019043 0.994427 0.113300
C67   C     C_R   0.357469 0.561572 0.053210 0.101933
C68   C     C_R   0.156772 0.941028 0.909108 0.105440
C69   C     C_R   0.726189 0.309523 0.746537 -0.125542
C70   C     C_R   0.217916 0.701823 0.265370 -0.104400
C71   C     C_R   0.294555 0.497639 0.078061 -0.130689
C72   C     C_R   0.754286 0.565219 0.976655 -0.128653
C73   C     C_R   0.109514 0.535253 0.812458 -0.136484
C74   C     C_R   0.891386 0.400286 0.177602 -0.153167
C75   C     C_R   0.916073 0.194195 0.954746 -0.112667
C76   C     C_R   0.085478 0.795913 0.999890 -0.137561
C77   C     C_R   0.002947 0.179704 0.981369 0.053425
C78   C     C_R   0.710314 0.536412 0.030733 0.042315
C79   C     C_R   0.999465 0.799805 0.948695 0.061663
C80   C     C_R   0.915066 0.907714 0.952638 -0.231683
H1    H     H_    0.170078 0.293911 0.073272 0.102328
H2    H     H_    0.608566 0.693714 0.904403 0.147266
H3    H     H_    0.489757 0.466761 0.349542 0.113729
H4    H     H_    0.602192 0.660779 0.750078 0.112185
H5    H     H_    0.678798 0.576734 0.182638 0.126955
H6    H     H_    0.411659 0.561566 0.921749 0.115634
H7    H     H_    0.130161 0.444379 0.398889 0.115380
H8    H     H_    0.868703 0.328276 0.555925 0.121521
H9    H     H_    0.795031 0.322482 0.270842 0.118128
H10   H     H_    0.205228 0.490824 0.699012 0.119180
H11   H     H_    0.215356 0.466441 0.553132 0.127823
H12   H     H_    0.834787 0.681144 0.870113 0.106397
H13   H     H_    0.783068 0.285545 0.397155 0.134435
H14   H     H_    0.856561 0.400971 0.682407 0.096122
H15   H     H_    0.142754 0.504828 0.299115 0.089014
H16   H     H_    0.570646 0.920880 0.907544 0.103067
H17   H     H_    0.420230 0.051893 0.979392 0.110653
H18   H     H_    0.548834 0.228113 0.597305 0.098406
H19   H     H_    0.267970 0.815814 0.444594 0.116801
H20   H     H_    0.534734 0.036796 0.740031 0.101115
H21   H     H_    0.297785 0.004111 0.299394 0.112343
H22   H     H_    0.417935 0.160148 0.444473 0.121443
H23   H     H_    0.707015 0.897414 0.862790 0.113123
H24   H     H_    0.373689 0.895789 0.609271 0.119648
H25   H     H_    0.619396 0.053235 0.064707 0.104637
H26   H     H_    0.369546 0.881802 0.850884 0.094840
H27   H     H_    0.805104 0.161322 0.177272 0.126923
H28   H     H_    0.183413 0.749562 0.759014 0.115066
H29   H     H_    0.942976 0.141399 0.133429 0.115356
H30   H     H_    0.047881 0.786711 0.794398 0.115457
H31   H     H_    0.691415 0.163138 0.851084 0.097533
H32   H     H_    0.232620 0.859135 0.168882 0.078492
H33   H     H_    0.328928 0.655401 0.983208 0.101862
H34   H     H_    0.286290 0.089947 0.017550 0.111487
H35   H     H_    0.714086 0.422978 0.086435 0.090719
H36   H     H_    0.702142 0.345001 0.704353 0.090491
H37   H     H_    0.223276 0.676853 0.318568 0.091149
H38   H     H_    0.316522 0.463786 0.122592 0.107152
H39   H     H_    0.751637 0.622672 0.953371 0.118326
H40   H     H_    0.191814 0.563987 0.831096 0.090072
H41   H     H_    0.811020 0.342858 0.149870 0.094747
H42   H     H_    0.835915 0.135606 0.911293 0.109432
H43   H     H_    0.166355 0.850818 0.025513 0.108954
H44   H     H_    0.854931 0.851441 0.959747 0.134355
H45   H     H_    0.481710 0.623773 0.444584 0.128662
H46   H     H_    0.136453 0.117192 0.941334 0.147246
H47   H     H_    0.619818 0.863042 0.179873 0.370403
H48   H     H_    0.314669 0.223903 0.699371 0.338892
H49   H     H_    0.535903 0.479497 0.630893 0.124183
H50   H     H_    0.505010 0.767727 0.402417 0.168062
H51   H     H_    0.473058 0.330976 0.664747 0.163795
H52   H     H_    0.516530 0.451103 0.209521 0.143642
N1    N     N_R   0.055660 0.348550 0.045620 -0.042151
N2    N     N_R   0.185200 0.638170 0.176300 -0.042120
N3    N     N_R   0.201680 0.494570 0.045620 -0.042875
N4    N     N_R   0.798320 0.505430 0.954380 -0.039325
N5    N     N_R   0.068420 0.560530 0.871650 -0.041694
N6    N     N_R   0.931580 0.439470 0.128350 -0.044688
N7    N     N_R   0.948070 0.295860 0.997670 -0.044970
N8    N     N_R   0.051930 0.704140 0.002330 -0.047591
N9    N     N_R   0.944340 0.651450 0.954380 -0.041335
N10   N     N_R   0.960830 0.507850 0.823700 -0.042910
N11   N     N_R   0.039170 0.492150 0.176300 -0.043729
N12   N     N_R   0.811290 0.303410 0.871650 -0.044414
N13   N     N_R   0.188710 0.696590 0.128350 -0.038001
N14   N     N_R   0.205200 0.552990 0.997670 -0.048128
N15   N     N_R   0.794800 0.447010 0.002330 -0.041197
N16   N     N_R   0.814800 0.361830 0.823700 -0.042451
Ni1   Ni    Ni4+2 0.119340 0.493420 0.109960 0.217767
Ni2   Ni    Ni4+2 0.880660 0.506580 0.890040 0.220213
Ni3   Ni    Ni4+2 0.872590 0.372590 0.000000 0.233287
Ni4   Ni    Ni4+2 0.127410 0.627410 0.000000 0.234969
O1    O     O_2   0.445653 0.791370 0.200205 -0.337761
O2    O     O_2   0.600974 0.901466 0.347726 -0.288219
O3    O     O_3   0.624528 0.811008 0.201885 -0.547104
O4    O     O_2   0.546413 0.296408 0.869027 -0.293364
O5    O     O_2   0.404759 0.332055 0.887337 -0.309525
O6    O     O_3   0.372534 0.208542 0.723637 -0.516776
S1    S     S_3+6 0.548287 0.802568 0.258120 -0.066802
S2    S     S_3+6 0.458107 0.315439 0.824968 -0.057828

loop_
_geom_bond_atom_site_label_1
_geom_bond_atom_site_label_2
_ccdc_geom_bond_type
O6    S2    S    
N5    N10   A    
C11   H50   S    
C69   H36   S    
C15   S2    S    
C27   C29   A    
C75   H42   S    
C1    C77   A    
C14   C18   A    
C16   N10   A    
C76   C79   A    
N12   N16   A    
C19   C31   S    
H48   O6    S    
C51   H22   S    
C15   C19   A    
C74   N6    A    
C43   H9    S    
C19   C21   A    
C20   H52   S    
C38   C42   A    
N12   Ni3   S    
N6    N11   A    
C71   N3    A    
C11   C14   A    
C57   C59   A    
C26   H49   S    
C11   C25   A    
C70   H37   S    
C1    H1    S    
C49   C54   A    
C12   C79   A    
C49   C57   A    
C12   N9    A    
C60   C62   A    
C37   C42   A    
C27   H5    S    
C61   H28   S    
C25   H45   S    
C39   H13   S    
C72   C78   A    
C29   C78   S    
C53   H21   S    
C22   C25   A    
N11   Ni1   S    
N5    Ni4   S    
C36   C46   A    
C10   C35   A    
C17   H15   S    
C65   N15   A    
N8    Ni4   S    
C67   C71   A    
C30   C67   S    
C44   C47   A    
C8    H34   S    
C3    C79   S    
C73   H40   S    
C7    H23   S    
C9    C33   A    
C7    C33   A    
C54   H20   S    
C23   C73   A    
C5    C68   S    
C1    N1    A    
C3    C80   A    
C52   C54   A    
N9    Ni2   S    
C40   H31   S    
C76   N8    A    
C40   C45   A    
C46   C48   A    
C50   C53   A    
C62   C66   A    
C45   C69   A    
N4    N15   A    
C64   C67   A    
O4    S2    D    
N1    Ni1   S    
N8    N9    A    
C4    C6    A    
H47   O3    S    
C39   C43   A    
C44   H8    S    
C58   C59   A    
N3    Ni1   S    
N2    Ni1   S    
O3    S1    S    
C38   H11   S    
C41   H32   S    
C50   C56   S    
C42   H10   S    
C8    C35   A    
O1    S1    D    
C2    C4    A    
C41   C56   A    
C6    C80   A    
C47   C48   A    
C45   C49   S    
N3    N14   A    
N16   Ni2   S    
C61   C63   A    
C13   H51   S    
C41   N13   A    
C75   C77   A    
C60   H27   S    
C52   C58   A    
C34   C74   A    
N14   Ni4   S    
C2    H46   S    
C20   C22   A    
C8    C68   A    
O5    S2    D    
C56   C70   A    
C13   C15   A    
C28   H6    S    
C13   C26   A    
C10   H26   S    
C10   C61   A    
C51   C59   A    
C17   C34   A    
C21   C24   A    
C33   H16   S    
O2    S1    D    
C39   C47   A    
C46   H7    S    
C80   H44   S    
N2    N13   A    
C63   C68   A    
C52   H24   S    
C65   C78   A    
C71   H38   S    
C64   N14   A    
C27   C32   A    
C76   H43   S    
C38   C48   A    
C12   H12   S    
C28   C31   A    
C24   C26   A    
C3    C5    A    
N4    Ni2   S    
N1    N7    A    
N6    Ni3   S    
C16   C23   A    
C16   H14   S    
C50   C55   A    
C40   N12   A    
C14   S1    S    
C17   N11   A    
C9    C60   A    
C22   H3    S    
N10   Ni2   S    
C37   C44   A    
C28   C30   A    
C65   H35   S    
C4    C77   S    
C29   C31   A    
C23   C37   S    
C7    C66   A    
C30   C32   A    
C62   H29   S    
C73   N5    A    
C63   H30   S    
N15   Ni3   S    
C72   H39   S    
N7    Ni3   S    
C34   C36   S    
C18   C20   A    
C24   H4    S    
C57   H18   S    
N13   Ni4   S    
C72   N4    A    
C2    C5    A    
C6    C66   S    
C74   H41   S    
C18   C32   S    
C21   H2    S    
C55   C58   A    
C55   H19   S    
C70   N2    A    
C69   N16   A    
C36   C43   A    
C75   N7    A    
C51   C53   A    
C35   H17   S    
C9    H25   S    
C64   H33   S    
