data_mof_unit_40156.cif
_audit_creation_date              2012-12-10T19:00:16-0500
_audit_creation_method            fapswitch 2.2
_symmetry_space_group_name_H-M    P1
_symmetry_Int_Tables_number       1
_space_group_crystal_system       triclinic
_cell_length_a                    9.564204
_cell_length_b                    10.795772
_cell_length_c                    13.346587
_cell_angle_alpha                 89.538725
_cell_angle_beta                  72.394844
_cell_angle_gamma                 90.065426
_cell_volume                      1313.47861461

loop_
_atom_site_label
_atom_site_type_symbol
_atom_type_description
_atom_site_fract_x
_atom_site_fract_y
_atom_site_fract_z
_atom_type_partial_charge
C1    C     C_R   0.499723 0.737512 0.500654 0.812370
C2    C     C_R   0.435941 0.475959 0.980311 0.129260
C3    C     C_R   0.465331 0.445147 0.873440 0.047211
C4    C     C_R   0.543271 0.450704 0.031523 -0.120181
C5    C     C_R   0.657846 0.365300 0.985736 -0.019672
C6    C     C_R   0.672112 0.318146 0.884453 0.463553
C7    C     C_R   0.579940 0.362486 0.828225 -0.328989
C8    C     C_R   0.542183 0.510134 0.125612 0.170789
C9    C     C_R   0.729171 0.368609 0.146873 0.061218
C10   C     C_R   0.373299 0.492063 0.816405 -0.078170
C11   C     C_R   0.404446 0.936405 0.461017 0.092248
C12   C     C_R   0.421160 0.495286 0.700546 0.779482
C13   C     C_R   0.496044 0.870757 0.506029 -0.082513
C14   C     C_R   0.578612 0.934893 0.559903 -0.190411
C15   C     C_R   0.578092 0.064148 0.560162 -0.199223
C16   C     C_R   0.496275 0.129164 0.505634 -0.054578
C17   C     C_R   0.405208 0.064211 0.460237 0.096972
C18   C     C_3   0.401731 0.070624 0.349027 -0.462864
C19   C     C_3   0.399404 0.930376 0.350453 -0.390826
C20   C     C_R   0.938014 0.396386 0.471791 0.334820
C21   C     C_R   0.917502 0.604770 0.520079 -0.068428
C22   C     C_R   0.065859 0.604857 0.519858 -0.062405
C23   C     C_R   0.499693 0.262482 0.500600 0.803170
C24   C     C_R   0.085080 0.396060 0.472822 0.259646
C25   C     C_3   0.064362 0.275014 0.530337 -0.492170
C26   C     C_3   0.907859 0.274431 0.527052 -0.501173
C27   C     C_R   0.578736 0.492266 0.300045 0.923825
C28   C     C_R   0.754880 0.328614 0.042459 0.424312
C29   C     C_R   0.623493 0.461039 0.187771 -0.196847
C30   C     C_R   0.238095 0.545009 0.871155 -0.175554
C31   C     C_R   0.197198 0.555176 0.979979 -0.133048
C32   C     C_R   0.295316 0.522047 0.034216 -0.080472
Cu1   Cu    Cu3+1 0.359330 0.500020 0.500010 0.969066
Cu2   Cu    Cu3+1 0.640670 0.499980 0.499990 0.977083
H1    H     H_    0.643343 0.112882 0.600910 0.139879
H2    H     H_    0.298995 0.111438 0.341354 0.199677
H3    H     H_    0.504076 0.110578 0.294396 0.230018
H4    H     H_    0.294372 0.890477 0.345769 0.219793
H5    H     H_    0.500151 0.889065 0.296178 0.237555
H6    H     H_    0.854989 0.689156 0.539571 0.147057
H7    H     H_    0.112215 0.689382 0.539018 0.149100
H8    H     H_    0.130742 0.199950 0.483050 0.202705
H9    H     H_    0.073208 0.283244 0.611233 0.232516
H10   H     H_    0.886084 0.200715 0.475960 0.227837
H11   H     H_    0.825575 0.281417 0.605733 0.194125
H12   H     H_    0.164075 0.578863 0.829785 0.164134
H13   H     H_    0.257880 0.528158 0.118955 0.179928
H14   H     H_    0.090440 0.591665 0.022271 0.164442
H15   H     H_    0.592822 0.325046 0.751083 0.144678
H16   H     H_    0.645230 0.885447 0.599682 0.153785
N1    N     N_R   0.852320 0.499070 0.499340 -0.190884
N2    N     N_R   0.148230 0.499110 0.499340 -0.188650
O1    O     O_R   0.381190 0.680360 0.500000 -0.582160
O2    O     O_R   0.618780 0.680320 0.499990 -0.590731
O3    O     O_R   0.323230 0.500000 0.650990 -0.577771
O4    O     O_R   0.560820 0.499960 0.650980 -0.578452
O5    O     O_R   0.381220 0.319680 0.500010 -0.590228
O6    O     O_R   0.618810 0.319640 0.500000 -0.574932
O7    O     O_R   0.439180 0.500040 0.349020 -0.555897
O8    O     O_R   0.676770 0.500000 0.349010 -0.534712
Br1   Br    Br    0.828979 0.285633 0.234723 -0.545495
O9    O     O_3   0.776423 0.229282 0.841090 -0.656545
H17   H     H_    0.762731 0.198679 0.774904 0.303738
O10   O     O_3   0.869232 0.249279 0.996534 -0.632866
H18   H     H_    0.948125 0.260522 0.029480 0.355804
Br2   Br    Br    0.461064 0.674607 0.159484 -0.554947

loop_
_geom_bond_atom_site_label_1
_geom_bond_atom_site_label_2
_ccdc_geom_bond_type
C25   H8    S    
C24   N2    A    
C23   O6    A    
C2    C4    A    
C1    O2    A    
Cu1   O3    S    
C6    C7    A    
C19   H4    S    
C27   C29   S    
C5    C28   A    
C10   C30   A    
C31   C32   A    
C9    C29   A    
Cu2   O4    S    
C27   O8    A    
O10   H18   S    
C6    O9    S    
C23   O5    A    
C2    C3    A    
C26   H10   S    
Cu1   O7    S    
C3    C10   A    
C27   O7    A    
C21   C22   A    
C24   C25   S    
Cu1   N2    S    
Cu2   O8    S    
C11   C13   A    
C30   C31   A    
C11   C19   S    
Cu2   N1    S    
O9    H17   S    
C21   H6    S    
C19   H5    S    
C9    Br1   S    
C8    C29   A    
C10   C12   S    
C2    C32   A    
C15   H1    S    
C25   H9    S    
C12   O4    A    
C18   H3    S    
Cu1   Cu2   S    
Cu2   O2    S    
C20   N1    A    
C3    C7    A    
C31   H14   S    
Cu1   O1    S    
C5    C6    A    
C32   H13   S    
C12   O3    A    
C1    C13   S    
C14   H16   S    
C15   C16   A    
C22   H7    S    
C16   C17   A    
C28   O10   S    
C21   N1    A    
C16   C23   S    
C7    H15   S    
C17   C18   S    
C18   C19   S    
C4    C8    A    
Cu2   O6    S    
C1    O1    A    
C14   C15   A    
C11   C17   A    
Cu1   O5    S    
C26   H11   S    
C22   N2    A    
C25   C26   S    
C13   C14   A    
C18   H2    S    
C30   H12   S    
C8    Br2   S    
C20   C24   A    
C9    C28   A    
C4    C5    A    
C20   C26   S    
