data_mof_unit_64208.cif
_audit_creation_date              2012-10-26T18:19:40-0400
_audit_creation_method            fapswitch 2.2
_symmetry_space_group_name_H-M    P1
_symmetry_Int_Tables_number       1
_space_group_crystal_system       triclinic
_cell_length_a                    18.365838
_cell_length_b                    30.768799
_cell_length_c                    30.699174
_cell_angle_alpha                 90.038247
_cell_angle_beta                  89.737841
_cell_angle_gamma                 89.884201
_cell_volume                      17347.7219153

loop_
_atom_site_label
_atom_site_type_symbol
_atom_type_description
_atom_site_fract_x
_atom_site_fract_y
_atom_site_fract_z
_atom_type_partial_charge
C1    C     C_R   0.499745 0.690705 0.309362 0.553631
C2    C     C_R   0.444703 0.625104 0.594214 0.035134
C3    C     C_R   0.139735 0.750077 0.250049 0.571930
C4    C     C_R   0.360249 0.250083 0.750016 0.572919
C5    C     C_R   0.360266 0.249934 0.249993 0.555814
C6    C     C_R   0.639750 0.249926 0.749943 0.552107
C7    C     C_R   0.639735 0.250078 0.250050 0.572199
C8    C     C_3   0.592056 0.899478 0.184360 -0.271129
C9    C     C_3   0.404225 0.898064 0.817151 -0.277113
C10   C     C_3   0.092070 0.399472 0.184354 -0.271128
C11   C     C_3   0.904182 0.398045 0.817169 -0.277134
C12   C     C_3   0.091988 0.899505 0.684386 -0.271098
C13   C     C_R   0.043114 0.090484 0.371522 0.060486
C14   C     C_3   0.905899 0.898776 0.316456 -0.276584
C15   C     C_3   0.592059 0.399477 0.684359 -0.271124
C16   C     C_3   0.404355 0.398119 0.317096 -0.277077
C17   C     C_R   0.500111 0.940464 0.940456 0.572589
C18   C     C_R   0.499998 0.940413 0.059476 0.552308
C19   C     C_R   0.000111 0.440464 0.940456 0.572600
C20   C     C_R   0.999998 0.440412 0.059476 0.552312
C21   C     C_R   0.000106 0.940475 0.440452 0.572238
C22   C     C_R   0.999998 0.940413 0.559476 0.552234
C23   C     C_R   0.500110 0.440465 0.440455 0.572562
C24   C     C_R   0.944701 0.125096 0.594216 0.035127
C25   C     C_R   0.499998 0.440413 0.559476 0.552306
C26   C     C_R   0.500064 0.559556 0.440823 0.585766
C27   C     C_R   0.499504 0.559876 0.559087 0.567485
C28   C     C_R   0.000064 0.059568 0.440832 0.585503
C29   C     C_R   0.999503 0.059871 0.559091 0.567491
C30   C     C_R   0.000064 0.559555 0.940823 0.585796
C31   C     C_R   0.999504 0.559876 0.059087 0.567482
C32   C     C_R   0.500064 0.059555 0.940823 0.585785
C33   C     C_R   0.499504 0.059876 0.059087 0.567480
C34   C     C_R   0.499190 0.809257 0.190566 0.592738
C35   C     C_R   0.042674 0.590289 0.871346 0.060466
C36   C     C_R   0.500855 0.809250 0.809404 0.593919
C37   C     C_R   0.999191 0.309257 0.190566 0.592767
C38   C     C_R   0.000854 0.309250 0.809404 0.593928
C39   C     C_R   0.999189 0.809257 0.690565 0.592754
C40   C     C_R   0.000892 0.809252 0.309408 0.593587
C41   C     C_R   0.499190 0.309257 0.690566 0.592766
C42   C     C_R   0.500858 0.309250 0.309404 0.593891
C43   C     C_1   0.282658 0.750209 0.250094 -0.033286
C44   C     C_1   0.282675 0.749810 0.749936 -0.052727
C45   C     C_1   0.717342 0.749793 0.249885 -0.053285
C46   C     C_R   0.944701 0.625104 0.094215 0.035169
C47   C     C_1   0.717325 0.750195 0.750085 -0.033719
C48   C     C_1   0.782658 0.250210 0.250095 -0.033330
C49   C     C_1   0.782675 0.249810 0.749936 -0.052727
C50   C     C_1   0.217342 0.249792 0.249886 -0.053350
C51   C     C_1   0.217325 0.250195 0.750085 -0.033717
C52   C     C_1   0.782658 0.750210 0.750095 -0.033313
C53   C     C_1   0.782675 0.749810 0.249936 -0.052680
C54   C     C_1   0.217342 0.749793 0.749886 -0.053316
C55   C     C_1   0.217325 0.750194 0.250084 -0.033816
C56   C     C_1   0.282658 0.250210 0.750095 -0.033310
C57   C     C_R   0.542694 0.090299 0.871355 0.060468
C58   C     C_1   0.282675 0.249810 0.249936 -0.052740
C59   C     C_1   0.717342 0.249793 0.749886 -0.053318
C60   C     C_1   0.717325 0.250195 0.250085 -0.033742
C61   C     C_R   0.539937 0.620163 0.339108 -0.071024
C62   C     C_R   0.449154 0.657956 0.624811 -0.067412
C63   C     C_R   0.040348 0.120328 0.339255 -0.071150
C64   C     C_R   0.949173 0.157958 0.624799 -0.067363
C65   C     C_R   0.039887 0.620144 0.839091 -0.071001
C66   C     C_R   0.949152 0.657955 0.124813 -0.067405
C67   C     C_R   0.539912 0.120154 0.839100 -0.071012
C68   C     C_R   0.444704 0.125105 0.094214 0.035143
C69   C     C_R   0.449154 0.157956 0.124812 -0.067409
C70   C     C_R   0.499007 0.657916 0.342870 0.007294
C71   C     C_R   0.500513 0.656852 0.657902 0.003393
C72   C     C_R   0.998982 0.157921 0.342865 0.007395
C73   C     C_R   0.000523 0.156855 0.657895 0.003408
C74   C     C_R   0.999008 0.657915 0.842871 0.007298
C75   C     C_R   0.000513 0.656852 0.157902 0.003388
C76   C     C_R   0.499006 0.157915 0.842870 0.007304
C77   C     C_R   0.500512 0.156852 0.157902 0.003389
C78   C     C_R   0.457562 0.663617 0.381303 -0.147380
C79   C     C_3   0.590607 0.560105 0.345684 0.535606
C80   C     C_R   0.545628 0.620149 0.661687 -0.152892
C81   C     C_R   0.957085 0.163474 0.381143 -0.147379
C82   C     C_R   0.045625 0.120147 0.661689 -0.152877
C83   C     C_R   0.957616 0.663633 0.881321 -0.147449
C84   C     C_R   0.045629 0.620149 0.161687 -0.152894
C85   C     C_R   0.457584 0.163624 0.881310 -0.147440
C86   C     C_R   0.545625 0.120148 0.161688 -0.152901
C87   C     C_R   0.456828 0.631049 0.413548 -0.154730
C88   C     C_R   0.545258 0.588238 0.629141 -0.167879
C89   C     C_R   0.956374 0.130910 0.413395 -0.154206
C90   C     C_3   0.420400 0.657396 0.559759 0.526295
C91   C     C_R   0.045252 0.088232 0.629146 -0.167886
C92   C     C_R   0.956879 0.631065 0.913566 -0.154832
C93   C     C_R   0.045259 0.588238 0.129140 -0.167878
C94   C     C_R   0.456849 0.131056 0.913556 -0.154784
C95   C     C_R   0.545256 0.088237 0.129142 -0.167892
C96   C     C_R   0.500270 0.593527 0.408622 -0.005199
C97   C     C_R   0.497215 0.591808 0.593779 -0.005832
C98   C     C_R   0.000258 0.093548 0.408631 -0.005386
C99   C     C_R   0.997210 0.091800 0.593784 -0.005882
C100  C     C_R   0.000270 0.593526 0.908621 -0.005169
C101  C     C_3   0.091780 0.060533 0.346065 0.535883
C102  C     C_R   0.997215 0.591809 0.093778 -0.005830
C103  C     C_R   0.500268 0.093526 0.908622 -0.005177
C104  C     C_R   0.497215 0.091808 0.093778 -0.005839
C105  C     C_3   0.692786 0.586812 0.385906 -0.127457
C106  C     C_3   0.327585 0.614577 0.529921 -0.072319
C107  C     C_3   0.594017 0.493769 0.309204 -0.079122
C108  C     C_3   0.536869 0.673554 0.527667 -0.144888
C109  C     C_3   0.193022 0.087765 0.386783 -0.127442
C110  C     C_3   0.827476 0.114531 0.530001 -0.072332
C111  C     C_3   0.096623 0.994239 0.309558 -0.079245
C112  C     C_R   0.501454 0.690609 0.690658 0.554049
C113  C     C_3   0.920351 0.157364 0.559753 0.526305
C114  C     C_3   0.036756 0.173497 0.527574 -0.144760
C115  C     C_3   0.192757 0.586711 0.885807 -0.127442
C116  C     C_3   0.827583 0.614576 0.029917 -0.072330
C117  C     C_3   0.093729 0.493716 0.809171 -0.079108
C118  C     C_3   0.036854 0.673565 0.027668 -0.144930
C119  C     C_3   0.692765 0.086760 0.885862 -0.127447
C120  C     C_3   0.327591 0.114581 0.029915 -0.072344
C121  C     C_3   0.593871 0.993743 0.809190 -0.079103
C122  C     C_3   0.536872 0.173558 0.027672 -0.144914
C123  C     C_3   0.387153 0.784814 0.091143 -0.106419
C124  C     C_3   0.090475 0.560057 0.845643 0.535570
C125  C     C_3   0.618994 0.786566 0.906429 -0.102458
C126  C     C_3   0.887133 0.284820 0.091151 -0.106414
C127  C     C_3   0.119061 0.286585 0.906403 -0.102450
C128  C     C_3   0.887252 0.784785 0.591105 -0.106452
C129  C     C_3   0.116685 0.785823 0.407392 -0.102249
C130  C     C_3   0.387151 0.284815 0.591144 -0.106424
C131  C     C_3   0.618807 0.286502 0.406504 -0.102443
C132  C     C_3   0.920391 0.657396 0.059763 0.526282
C133  C     C_3   0.590539 0.060081 0.845665 0.535581
C134  C     C_3   0.420401 0.157398 0.059760 0.526284
C135  C     C_3   0.587135 0.594571 0.308716 -0.208768
C136  C     C_3   0.429397 0.693443 0.594024 -0.167796
C137  C     C_3   0.088308 0.094984 0.309084 -0.208966
C138  C     C_3   0.929412 0.193431 0.593994 -0.167897
C139  C     C_3   0.087001 0.594523 0.808675 -0.208749
C140  C     C_R   0.999747 0.190708 0.309360 0.553574
C141  C     C_3   0.929384 0.693442 0.094029 -0.167814
C142  C     C_3   0.587069 0.094548 0.808697 -0.208761
C143  C     C_3   0.429395 0.193444 0.094026 -0.167812
C144  C     C_R   0.557821 0.869736 0.152009 -0.042410
C145  C     C_R   0.441381 0.868888 0.848891 -0.046051
C146  C     C_R   0.057825 0.369732 0.152005 -0.042424
C147  C     C_R   0.941368 0.368875 0.848903 -0.046055
C148  C     C_R   0.057803 0.869753 0.652025 -0.042417
C149  C     C_R   0.941824 0.869336 0.348462 -0.045780
C150  C     C_R   0.557822 0.369735 0.652008 -0.042424
C151  C     C_R   0.001454 0.190610 0.690657 0.554055
C152  C     C_R   0.441414 0.368922 0.348858 -0.046038
C153  C     C_R   0.498750 0.841760 0.156552 0.033879
C154  C     C_R   0.501531 0.841808 0.843323 0.032237
C155  C     C_R   0.998750 0.341760 0.156552 0.033897
C156  C     C_R   0.001531 0.341808 0.843323 0.032238
C157  C     C_R   0.998750 0.841760 0.656551 0.033877
C158  C     C_R   0.001528 0.841812 0.343340 0.031984
C159  C     C_R   0.498750 0.341760 0.656552 0.033896
C160  C     C_R   0.501530 0.341808 0.343325 0.032212
C161  C     C_R   0.444390 0.841493 0.124228 0.246970
C162  C     C_R   0.999744 0.690705 0.809362 0.553613
C163  C     C_R   0.557543 0.842445 0.874580 0.243360
C164  C     C_R   0.944384 0.341496 0.124231 0.246995
C165  C     C_R   0.057559 0.342455 0.874569 0.243354
C166  C     C_R   0.944417 0.841478 0.624211 0.247002
C167  C     C_R   0.056923 0.842062 0.375009 0.243584
C168  C     C_R   0.444389 0.341494 0.624228 0.247000
C169  C     C_R   0.557493 0.342414 0.374615 0.243377
C170  C     C_R   0.444374 0.874496 0.092379 -0.142838
C171  C     C_R   0.557527 0.875478 0.906423 -0.145109
C172  C     C_R   0.944369 0.374499 0.092383 -0.142816
C173  C     C_R   0.001454 0.690609 0.190658 0.554054
C174  C     C_R   0.057541 0.375486 0.906413 -0.145111
C175  C     C_R   0.944399 0.874482 0.592363 -0.142865
C176  C     C_R   0.056936 0.875117 0.406829 -0.145136
C177  C     C_R   0.444373 0.374496 0.592380 -0.142820
C178  C     C_R   0.557479 0.375448 0.406456 -0.145110
C179  C     C_R   0.500623 0.905393 0.091151 -0.030505
C180  C     C_R   0.499785 0.905480 0.908710 -0.025976
C181  C     C_R   0.000623 0.405393 0.091151 -0.030499
C182  C     C_R   0.999784 0.405477 0.908712 -0.025983
C183  C     C_R   0.000624 0.905394 0.591151 -0.030511
C184  C     C_R   0.499745 0.190705 0.809362 0.553607
C185  C     C_R   0.999746 0.905514 0.408695 -0.025793
C186  C     C_R   0.500623 0.405393 0.591151 -0.030499
C187  C     C_R   0.499780 0.405481 0.408710 -0.025964
C188  C     C_R   0.559193 0.900701 0.119543 0.013917
C189  C     C_R   0.440075 0.899856 0.881374 0.010030
C190  C     C_R   0.059197 0.400697 0.119540 0.013913
C191  C     C_R   0.940062 0.399842 0.881386 0.010034
C192  C     C_R   0.059176 0.900719 0.619560 0.013912
C193  C     C_R   0.940466 0.900306 0.380943 0.009979
C194  C     C_R   0.559194 0.400701 0.619543 0.013913
C195  C     C_R   0.501454 0.190609 0.190658 0.554048
C196  C     C_R   0.440103 0.399890 0.381341 0.010021
C197  C     C_3   0.593751 0.933615 0.148614 -0.260685
C198  C     C_3   0.402414 0.932167 0.852966 -0.256297
C199  C     C_3   0.093765 0.433609 0.148609 -0.260666
C200  C     C_3   0.902370 0.432147 0.852985 -0.256290
C201  C     C_3   0.093685 0.933642 0.648640 -0.260682
C202  C     C_3   0.904017 0.932881 0.352269 -0.256731
C203  C     C_3   0.593754 0.433614 0.648613 -0.260668
C204  C     C_3   0.402536 0.432222 0.352912 -0.256331
C205  C     C_R   0.360250 0.750083 0.250015 0.572941
C206  C     C_R   0.542719 0.590308 0.371364 0.060466
C207  C     C_R   0.360266 0.749934 0.749992 0.555814
C208  C     C_R   0.639750 0.749926 0.249944 0.552099
C209  C     C_R   0.639735 0.750078 0.750050 0.572224
C210  C     C_R   0.860249 0.250083 0.250016 0.572881
C211  C     C_R   0.860266 0.249934 0.749992 0.555817
C212  C     C_R   0.139750 0.249925 0.249944 0.552063
C213  C     C_R   0.139735 0.250078 0.750050 0.572233
C214  C     C_R   0.860249 0.750083 0.750016 0.572913
C215  C     C_R   0.860266 0.749934 0.249992 0.555845
C216  C     C_R   0.139750 0.749926 0.749943 0.552113
Cu1   Cu    Cu3+1 0.500000 0.780890 0.280900 0.949013
Cu2   Cu    Cu3+1 0.500000 0.719080 0.780910 0.943612
Cu3   Cu    Cu3+1 1.000000 0.219080 0.219090 0.945580
Cu4   Cu    Cu3+1 0.000000 0.219080 0.780910 0.943605
Cu5   Cu    Cu3+1 0.000000 0.719080 0.719090 0.945497
Cu6   Cu    Cu3+1 1.000000 0.719080 0.280910 0.944003
Cu7   Cu    Cu3+1 0.500000 0.219080 0.719090 0.945525
Cu8   Cu    Cu3+1 0.500000 0.219080 0.280910 0.943673
Cu9   Cu    Cu3+1 0.427490 0.999980 0.000000 0.904263
Cu10  Cu    Cu3+1 0.572510 0.999980 0.000000 0.950200
Cu11  Cu    Cu3+1 0.927490 0.499980 0.000000 0.904297
Cu12  Cu    Cu3+1 0.500000 0.780890 0.719100 0.937716
Cu13  Cu    Cu3+1 0.072510 0.499980 0.000000 0.950175
Cu14  Cu    Cu3+1 0.927490 0.999980 0.500000 0.904206
Cu15  Cu    Cu3+1 0.072510 0.999980 0.500000 0.950803
Cu16  Cu    Cu3+1 0.427490 0.499980 0.500000 0.904291
Cu17  Cu    Cu3+1 0.572510 0.499980 0.500000 0.950224
Cu18  Cu    Cu3+1 0.000000 0.280890 0.280900 0.948946
Cu19  Cu    Cu3+1 0.000000 0.280890 0.719100 0.937699
Cu20  Cu    Cu3+1 0.000000 0.780890 0.780900 0.948901
Cu21  Cu    Cu3+1 0.000000 0.780890 0.219100 0.937380
Cu22  Cu    Cu3+1 0.500000 0.280890 0.780900 0.948920
Cu23  Cu    Cu3+1 0.500000 0.280890 0.219100 0.937647
Cu24  Cu    Cu3+1 0.500000 0.719080 0.219090 0.945537
H1    H     H_    0.424497 0.692469 0.385860 0.140899
H2    H     H_    0.583177 0.561302 0.631164 0.125851
H3    H     H_    0.822584 0.589091 0.055326 0.132778
H4    H     H_    0.866905 0.604814 0.004172 0.172635
H5    H     H_    0.773582 0.617756 0.014203 0.115764
H6    H     H_    0.137907 0.478163 0.828296 0.178848
H7    H     H_    0.116756 0.510901 0.780377 0.109056
H8    H     H_    0.058094 0.467380 0.796901 0.115361
H9    H     H_    0.071161 0.660177 0.001001 0.140491
H10   H     H_    0.061163 0.662545 0.058792 0.108545
H11   H     H_    0.039262 0.709524 0.025246 0.126478
H12   H     H_    0.664725 0.092021 0.917529 0.137384
H13   H     H_    0.922137 0.135096 0.441802 0.168256
H14   H     H_    0.693185 0.117238 0.866586 0.096505
H15   H     H_    0.750252 0.078526 0.893133 0.139311
H16   H     H_    0.322598 0.089097 0.055325 0.132768
H17   H     H_    0.366908 0.104818 0.004167 0.172631
H18   H     H_    0.273585 0.117759 0.014206 0.115760
H19   H     H_    0.638052 0.978205 0.828323 0.178839
H20   H     H_    0.616899 0.010937 0.780401 0.109046
H21   H     H_    0.558268 0.967396 0.796912 0.115388
H22   H     H_    0.571179 0.160168 0.001006 0.140483
H23   H     H_    0.561174 0.162534 0.058797 0.108539
H24   H     H_    0.083166 0.061294 0.631173 0.125841
H25   H     H_    0.539291 0.209516 0.025252 0.126471
H26   H     H_    0.346935 0.758566 0.096902 0.143595
H27   H     H_    0.441288 0.769063 0.086333 0.119087
H28   H     H_    0.370421 0.802304 0.061139 0.102693
H29   H     H_    0.660383 0.761031 0.899961 0.148752
H30   H     H_    0.565943 0.769890 0.911933 0.117372
H31   H     H_    0.635970 0.804251 0.936269 0.107323
H32   H     H_    0.846911 0.258575 0.096912 0.143598
H33   H     H_    0.941264 0.269065 0.086339 0.119081
H34   H     H_    0.870400 0.302311 0.061147 0.102693
H35   H     H_    0.922981 0.635375 0.942095 0.168961
H36   H     H_    0.160463 0.261059 0.899926 0.148746
H37   H     H_    0.066023 0.269897 0.911915 0.117379
H38   H     H_    0.136041 0.304270 0.936242 0.107325
H39   H     H_    0.847054 0.758523 0.596852 0.143594
H40   H     H_    0.941404 0.769052 0.586307 0.118990
H41   H     H_    0.870524 0.802272 0.561099 0.102633
H42   H     H_    0.157588 0.759937 0.401224 0.148679
H43   H     H_    0.063178 0.769592 0.412646 0.116998
H44   H     H_    0.133600 0.803443 0.437284 0.107217
H45   H     H_    0.346931 0.258567 0.596903 0.143590
H46   H     H_    0.083178 0.561302 0.131163 0.125856
H47   H     H_    0.441285 0.269063 0.586334 0.119069
H48   H     H_    0.370419 0.302305 0.561140 0.102677
H49   H     H_    0.660165 0.260943 0.400062 0.148722
H50   H     H_    0.565721 0.269857 0.411980 0.117348
H51   H     H_    0.635764 0.304180 0.436352 0.107311
H52   H     H_    0.422933 0.135359 0.942078 0.168904
H53   H     H_    0.583173 0.061300 0.131165 0.125850
H54   H     H_    0.639345 0.611078 0.301118 0.109668
H55   H     H_    0.377370 0.709280 0.603857 0.148148
H56   H     H_    0.556334 0.583770 0.279574 0.132278
H57   H     H_    0.583580 0.617323 0.688450 0.128490
H58   H     H_    0.474488 0.716846 0.589021 0.104805
H59   H     H_    0.140378 0.111757 0.301741 0.109606
H60   H     H_    0.877409 0.209291 0.603836 0.148167
H61   H     H_    0.058053 0.084037 0.279792 0.132238
H62   H     H_    0.974521 0.216817 0.588964 0.104694
H63   H     H_    0.139224 0.611001 0.801047 0.109682
H64   H     H_    0.877355 0.709275 0.103865 0.148130
H65   H     H_    0.056138 0.583737 0.779551 0.132275
H66   H     H_    0.974470 0.716849 0.089026 0.104799
H67   H     H_    0.639286 0.111041 0.801087 0.109679
H68   H     H_    0.923684 0.192208 0.385573 0.140436
H69   H     H_    0.377367 0.209280 0.103860 0.148129
H70   H     H_    0.556239 0.083755 0.779564 0.132279
H71   H     H_    0.474485 0.216849 0.089024 0.104796
H72   H     H_    0.399674 0.876696 0.069596 0.136589
H73   H     H_    0.603256 0.878378 0.928371 0.138440
H74   H     H_    0.899665 0.376702 0.069602 0.136596
H75   H     H_    0.103281 0.378394 0.928353 0.138455
H76   H     H_    0.899716 0.876670 0.569567 0.136580
H77   H     H_    0.102269 0.877713 0.429110 0.137954
H78   H     H_    0.399672 0.376697 0.569597 0.136592
H79   H     H_    0.083569 0.117319 0.688455 0.128493
H80   H     H_    0.603178 0.378324 0.428431 0.138407
H81   H     H_    0.649825 0.941982 0.137779 0.142264
H82   H     H_    0.436575 0.961090 0.845757 0.178182
H83   H     H_    0.557664 0.961953 0.155275 0.133676
H84   H     H_    0.346448 0.939594 0.864765 0.143861
H85   H     H_    0.149838 0.441973 0.137770 0.142265
H86   H     H_    0.936511 0.461077 0.845771 0.178194
H87   H     H_    0.057684 0.461949 0.155272 0.133696
H88   H     H_    0.846405 0.439563 0.864794 0.143862
H89   H     H_    0.149761 0.942025 0.637821 0.142271
H90   H     H_    0.924591 0.692500 0.885894 0.140771
H91   H     H_    0.938878 0.961567 0.345318 0.178609
H92   H     H_    0.057571 0.961970 0.655292 0.133691
H93   H     H_    0.847961 0.940694 0.363655 0.143864
H94   H     H_    0.649827 0.441980 0.637777 0.142263
H95   H     H_    0.436751 0.461127 0.345724 0.178242
H96   H     H_    0.557668 0.461952 0.655275 0.133698
H97   H     H_    0.346562 0.439678 0.364679 0.143863
H98   H     H_    0.647146 0.888196 0.194125 0.140296
H99   H     H_    0.439782 0.907096 0.789180 0.148043
H100  H     H_    0.554848 0.907940 0.211774 0.153259
H101  H     H_    0.083580 0.617322 0.188450 0.128498
H102  H     H_    0.349303 0.885929 0.808245 0.141863
H103  H     H_    0.147160 0.388187 0.194116 0.140289
H104  H     H_    0.939722 0.407085 0.789193 0.148019
H105  H     H_    0.054868 0.407936 0.211771 0.153281
H106  H     H_    0.849262 0.385901 0.808272 0.141864
H107  H     H_    0.147079 0.888239 0.694167 0.140295
H108  H     H_    0.942208 0.907569 0.288753 0.148294
H109  H     H_    0.054751 0.907957 0.711789 0.153288
H110  H     H_    0.850929 0.887037 0.307138 0.141893
H111  H     H_    0.647149 0.388194 0.694123 0.140288
H112  H     H_    0.424536 0.192482 0.885874 0.140746
H113  H     H_    0.439974 0.407134 0.289148 0.148050
H114  H     H_    0.554852 0.407939 0.711773 0.153284
H115  H     H_    0.349430 0.386015 0.308157 0.141865
H116  H     H_    0.664721 0.592065 0.417567 0.137369
H117  H     H_    0.693194 0.617291 0.366630 0.096494
H118  H     H_    0.750275 0.578594 0.393190 0.139285
H119  H     H_    0.322597 0.589096 0.555334 0.132764
H120  H     H_    0.366897 0.604812 0.504171 0.172638
H121  H     H_    0.273576 0.617754 0.514215 0.115758
H122  H     H_    0.638200 0.478243 0.328346 0.178831
H123  H     H_    0.583575 0.117321 0.188452 0.128486
H124  H     H_    0.617048 0.510971 0.280421 0.109043
H125  H     H_    0.558443 0.467413 0.296917 0.115370
H126  H     H_    0.571176 0.660165 0.501001 0.140467
H127  H     H_    0.561174 0.662533 0.558792 0.108521
H128  H     H_    0.539285 0.709513 0.525246 0.126505
H129  H     H_    0.164469 0.092862 0.418314 0.137212
H130  H     H_    0.193234 0.118252 0.367519 0.096493
H131  H     H_    0.250532 0.079849 0.394336 0.139174
H132  H     H_    0.822563 0.089061 0.555430 0.132756
H133  H     H_    0.866727 0.104759 0.504220 0.172693
H134  H     H_    0.422895 0.635346 0.442065 0.168907
H135  H     H_    0.773425 0.117695 0.514344 0.115695
H136  H     H_    0.140834 0.978957 0.328872 0.178696
H137  H     H_    0.119705 0.011573 0.280870 0.108941
H138  H     H_    0.061606 0.967685 0.297123 0.115447
H139  H     H_    0.071013 0.160099 0.500889 0.140317
H140  H     H_    0.061120 0.162486 0.558686 0.108428
H141  H     H_    0.039159 0.209455 0.525138 0.126448
H142  H     H_    0.164749 0.591982 0.917482 0.137384
H143  H     H_    0.193184 0.617188 0.866528 0.096503
H144  H     H_    0.250245 0.578461 0.893060 0.139317
O1    O     O_R   0.500000 0.731000 0.321180 -0.514269
O2    O     O_R   0.500000 0.678810 0.731020 -0.509938
O3    O     O_3   0.464556 0.659266 0.521294 -0.571474
O4    O     O_3   0.162631 0.052364 0.363710 -0.553224
O5    O     O_3   0.845275 0.154687 0.549203 -0.560254
O6    O     O_3   0.053741 0.021785 0.336078 -0.570857
O7    O     O_3   0.964434 0.159201 0.521256 -0.571129
O8    O     O_3   0.161452 0.551483 0.862912 -0.553308
O9    O     O_3   0.845335 0.654718 0.049165 -0.560296
O10   O     O_3   0.051659 0.521531 0.835873 -0.570729
O11   O     O_3   0.964543 0.659271 0.021297 -0.571558
O12   O     O_3   0.661509 0.051525 0.862954 -0.553309
O13   O     O_R   1.000000 0.178810 0.268980 -0.512268
O14   O     O_3   0.345347 0.154724 0.049158 -0.560295
O15   O     O_3   0.551760 0.021545 0.835882 -0.570718
O16   O     O_3   0.464558 0.159272 0.021296 -0.571518
O17   O     O_3   0.386757 0.812729 0.127604 -0.552077
O18   O     O_3   0.616385 0.814571 0.870117 -0.553577
O19   O     O_3   0.886748 0.312736 0.127611 -0.552043
O20   O     O_3   0.116415 0.314592 0.870094 -0.553585
O21   O     O_3   0.886806 0.812697 0.627569 -0.551994
O22   O     O_3   0.115279 0.813755 0.370997 -0.553129
O23   O     O_3   0.386756 0.312730 0.627605 -0.552032
O24   O     O_R   1.000000 0.178810 0.731020 -0.509940
O25   O     O_3   0.616298 0.314505 0.370188 -0.553539
O26   O     O_R   0.000000 0.678810 0.768980 -0.512334
O27   O     O_R   1.000000 0.678810 0.231020 -0.509966
O28   O     O_R   0.500000 0.178810 0.768980 -0.512329
O29   O     O_R   0.500000 0.178810 0.231020 -0.509929
O30   O     O_R   0.394200 0.776090 0.276090 -0.498776
O31   O     O_R   0.394200 0.776090 0.723910 -0.508804
O32   O     O_R   0.605800 0.776090 0.276090 -0.509072
O33   O     O_R   0.500000 0.731000 0.678820 -0.518487
O34   O     O_R   0.605800 0.776090 0.723910 -0.499225
O35   O     O_R   0.894200 0.276090 0.276090 -0.498761
O36   O     O_R   0.894200 0.276090 0.723910 -0.508814
O37   O     O_R   0.105800 0.276090 0.276090 -0.509132
O38   O     O_R   0.105800 0.276090 0.723910 -0.499221
O39   O     O_R   0.894200 0.776090 0.776090 -0.498754
O40   O     O_R   0.894200 0.776090 0.223910 -0.508751
O41   O     O_R   0.105800 0.776090 0.776090 -0.509112
O42   O     O_R   0.105800 0.776090 0.223910 -0.499445
O43   O     O_R   0.394200 0.276090 0.776090 -0.498747
O44   O     O_R   1.000000 0.231000 0.321180 -0.514239
O45   O     O_R   0.394200 0.276090 0.223910 -0.508808
O46   O     O_R   0.605800 0.276090 0.776090 -0.509120
O47   O     O_R   0.605800 0.276090 0.223910 -0.499239
O48   O     O_R   0.394210 0.723900 0.223890 -0.501489
O49   O     O_R   0.394210 0.723900 0.776110 -0.507554
O50   O     O_R   0.605790 0.723900 0.223890 -0.507919
O51   O     O_R   0.605790 0.723900 0.776110 -0.503035
O52   O     O_R   0.894210 0.223900 0.223890 -0.501501
O53   O     O_R   0.894210 0.223900 0.776110 -0.507548
O54   O     O_R   0.105790 0.223900 0.223890 -0.507908
O55   O     O_R   0.000000 0.231000 0.678820 -0.518466
O56   O     O_R   0.105790 0.223900 0.776110 -0.503044
O57   O     O_R   0.894210 0.723900 0.723890 -0.501490
O58   O     O_R   0.894210 0.723900 0.276110 -0.507637
O59   O     O_R   0.105790 0.723900 0.723890 -0.507906
O60   O     O_R   0.105790 0.723900 0.276110 -0.502726
O61   O     O_R   0.394210 0.223900 0.723890 -0.501500
O62   O     O_R   0.394210 0.223900 0.276110 -0.507544
O63   O     O_R   0.605790 0.223900 0.723890 -0.507895
O64   O     O_R   0.605790 0.223900 0.276110 -0.503026
O65   O     O_R   0.500000 0.821170 0.231010 -0.517022
O66   O     O_R   1.000000 0.731000 0.821180 -0.514326
O67   O     O_R   0.500000 0.821170 0.768990 -0.517737
O68   O     O_R   1.000000 0.321170 0.231010 -0.516979
O69   O     O_R   1.000000 0.321170 0.768990 -0.517733
O70   O     O_R   0.000000 0.821170 0.731010 -0.516992
O71   O     O_R   0.000000 0.821170 0.268990 -0.518034
O72   O     O_R   0.500000 0.321170 0.731010 -0.516978
O73   O     O_R   0.500000 0.321170 0.268990 -0.517761
O74   O     O_R   0.500000 0.768980 0.178810 -0.494939
O75   O     O_R   0.500000 0.768980 0.821190 -0.497878
O76   O     O_R   1.000000 0.268980 0.178810 -0.494947
O77   O     O_R   0.000000 0.731000 0.178820 -0.518466
O78   O     O_R   0.000000 0.268980 0.821190 -0.497898
O79   O     O_R   0.000000 0.768980 0.678810 -0.494915
O80   O     O_R   1.000000 0.768980 0.321190 -0.497076
O81   O     O_R   0.500000 0.268980 0.678810 -0.494942
O82   O     O_R   0.500000 0.268980 0.321190 -0.497825
O83   O     O_R   0.438730 0.954890 0.954890 -0.506359
O84   O     O_R   0.438730 0.954890 0.045110 -0.514009
O85   O     O_R   0.561270 0.954890 0.954890 -0.499110
O86   O     O_R   0.561270 0.954890 0.045110 -0.508873
O87   O     O_R   0.938730 0.454890 0.954890 -0.506357
O88   O     O_R   0.500000 0.231000 0.821180 -0.514324
O89   O     O_R   0.938730 0.454890 0.045110 -0.513998
O90   O     O_R   0.061270 0.454890 0.954890 -0.499117
O91   O     O_R   0.061270 0.454890 0.045110 -0.508877
O92   O     O_R   0.938730 0.954890 0.454890 -0.506408
O93   O     O_R   0.938730 0.954890 0.545110 -0.513990
O94   O     O_R   0.061270 0.954890 0.454890 -0.498884
O95   O     O_R   0.061270 0.954890 0.545110 -0.508895
O96   O     O_R   0.438730 0.454890 0.454890 -0.506363
O97   O     O_R   0.438730 0.454890 0.545110 -0.513996
O98   O     O_R   0.561270 0.454890 0.454890 -0.499092
O99   O     O_R   0.500000 0.231000 0.178820 -0.518494
O100  O     O_R   0.561270 0.454890 0.545110 -0.508880
O101  O     O_R   0.438760 0.545060 0.454900 -0.526568
O102  O     O_R   0.438760 0.545060 0.545100 -0.533063
O103  O     O_R   0.561240 0.545060 0.454900 -0.493847
O104  O     O_R   0.561240 0.545060 0.545100 -0.517123
O105  O     O_R   0.938760 0.045060 0.454900 -0.526772
O106  O     O_R   0.938760 0.045060 0.545100 -0.533032
O107  O     O_R   0.061240 0.045060 0.454900 -0.493329
O108  O     O_R   0.061240 0.045060 0.545100 -0.517180
O109  O     O_R   0.938760 0.545060 0.954900 -0.526547
O110  O     O_R   0.500000 0.678810 0.268980 -0.512327
O111  O     O_R   0.938760 0.545060 0.045100 -0.533064
O112  O     O_R   0.061240 0.545060 0.954900 -0.493898
O113  O     O_R   0.061240 0.545060 0.045100 -0.517114
O114  O     O_R   0.438760 0.045060 0.954900 -0.526560
O115  O     O_R   0.438760 0.045060 0.045100 -0.533072
O116  O     O_R   0.561240 0.045060 0.954900 -0.493872
O117  O     O_R   0.561240 0.045060 0.045100 -0.517113
O118  O     O_3   0.661572 0.551569 0.362990 -0.553298
O119  O     O_3   0.345345 0.654722 0.549158 -0.560261
O120  O     O_3   0.551867 0.521557 0.335889 -0.570739

loop_
_geom_bond_atom_site_label_1
_geom_bond_atom_site_label_2
_ccdc_geom_bond_type
C204  H97   S    
C7    C60   S    
C27   O102  A    
Cu3   O76   S    
C74   C83   A    
C105  H118  S    
C126  O19   S    
C19   O90   A    
C64   C138  S    
C54   C216  S    
C176  H77   S    
C125  H31   S    
C114  H139  S    
C34   O65   A    
C126  H32   S    
C35   C124  S    
C135  H54   S    
C34   O74   A    
C169  O25   S    
C162  O26   A    
C93   H46   S    
C20   O91   A    
C28   C98   S    
C118  O11   S    
Cu7   O81   S    
C116  O9    S    
C129  H43   S    
C150  C194  A    
C134  C143  S    
C8    H100  S    
C5    O45   A    
C75   C173  S    
C17   O83   A    
C163  O18   S    
C168  C177  A    
C3    O42   A    
C151  O55   A    
Cu9   O115  S    
C205  O30   A    
C164  O19   S    
C88   C97   A    
C204  H95   S    
C61   C206  A    
C48   C60   T    
Cu3   O52   S    
Cu17  O98   S    
C4    C56   S    
C67   C76   A    
Cu3   Cu18  S    
C57   C133  S    
Cu2   Cu12  S    
C107  H122  S    
C108  H126  S    
C158  C167  A    
Cu19  O38   S    
C150  C159  A    
C29   C99   S    
Cu20  O66   S    
C123  O17   S    
C128  O21   S    
C133  O12   S    
C130  H48   S    
C118  H10   S    
Cu12  O67   S    
C130  O23   S    
C152  C196  A    
C122  H22   S    
C173  O77   A    
C179  C188  A    
C112  O2    A    
C21   O92   A    
C177  C186  A    
C153  C161  A    
C111  H137  S    
C181  C190  A    
C154  C163  A    
C86   H123  S    
C13   C63   A    
C3    O60   A    
C101  O6    S    
C191  C200  S    
C199  H87   S    
C112  O33   A    
Cu1   Cu24  S    
C115  H142  S    
C124  O10   S    
Cu5   Cu20  S    
C15   H111  S    
C16   H113  S    
C184  O88   A    
Cu4   O78   S    
C138  H60   S    
C109  H131  S    
C61   C135  S    
Cu14  O105  S    
C175  C183  A    
C34   C153  S    
C27   C97   S    
Cu14  O93   S    
C110  O5    S    
Cu5   O57   S    
C15   C203  S    
C151  O24   A    
C47   C52   T    
Cu9   O84   S    
C109  H129  S    
C1    C70   S    
C131  H51   S    
C28   O105  A    
C77   C195  S    
C80   C88   A    
C107  H125  S    
Cu23  O47   S    
C213  O38   A    
C14   C149  S    
Cu5   O26   S    
C203  H94   S    
C84   C93   A    
C127  H38   S    
C10   H103  S    
C133  O15   S    
C86   C95   A    
C65   C74   A    
C121  H20   S    
C65   C139  S    
C131  O25   S    
C120  O14   S    
C140  O44   A    
Cu17  O100  S    
C35   C65   A    
C177  H78   S    
C16   C204  S    
C76   C85   A    
C108  H128  S    
C111  H136  S    
C78   C87   A    
Cu4   O24   S    
C18   O84   A    
C116  H4    S    
C173  O27   A    
C9    H102  S    
C134  O14   S    
C33   C104  S    
Cu13  O113  S    
C124  C139  S    
C69   C77   A    
Cu7   O63   S    
C11   H104  S    
C198  H82   S    
Cu11  O111  S    
C10   C199  S    
C174  C182  A    
C66   C141  S    
C117  H6    S    
C133  C142  S    
C5    C58   S    
C188  C197  S    
C215  O58   A    
C180  C189  A    
C46   C132  S    
C17   O85   A    
C75   C84   A    
C15   H114  S    
C141  H66   S    
C30   C100  S    
C23   O98   A    
C2    C90   S    
C85   C94   A    
Cu19  O69   S    
C31   O111  A    
C11   C200  S    
Cu18  O68   S    
C149  C193  A    
C3    C55   S    
C123  H28   S    
C31   O113  A    
C147  C191  A    
C64   C73   A    
C16   H115  S    
C1    O110  A    
C149  C158  A    
C25   O100  A    
C139  H63   S    
Cu4   O53   S    
Cu1   O65   S    
C126  H34   S    
C36   O67   A    
C50   C212  S    
Cu15  O94   S    
Cu18  O35   S    
C63   C137  S    
C11   H106  S    
C161  O17   S    
Cu5   O59   S    
C22   O93   A    
Cu10  O85   S    
Cu24  O110  S    
C26   C96   S    
C29   O106  A    
C78   H1    S    
C131  H49   S    
C28   O107  A    
Cu5   O79   S    
Cu21  O42   S    
C168  O23   S    
Cu24  O50   S    
Cu2   O75   S    
C21   O94   A    
C74   C162  S    
C124  O8    S    
C42   O73   A    
C216  O41   A    
C165  C174  A    
Cu23  O45   S    
Cu18  O44   S    
C14   H110  S    
C44   C207  S    
C214  O39   A    
C172  H74   S    
C202  H93   S    
C121  O15   S    
C122  O16   S    
C192  C201  S    
Cu23  O99   S    
C71   C112  S    
C52   C214  S    
Cu1   O1    S    
Cu8   O82   S    
Cu16  O101  S    
C80   H57   S    
C10   C146  S    
C145  C154  A    
C43   C55   T    
Cu11  Cu13  S    
C5    O62   A    
C45   C208  S    
C1    O1    A    
C125  O18   S    
C47   C209  S    
Cu20  O70   S    
C85   H112  S    
C137  H59   S    
C196  C204  S    
Cu7   O61   S    
C35   C100  A    
Cu11  O109  S    
C119  H14   S    
C115  H143  S    
C117  H8    S    
C132  C141  S    
C128  H39   S    
C6    C59   S    
C186  C194  A    
C42   C160  S    
C48   C210  S    
C7    O47   A    
C18   C179  S    
C114  O7    S    
Cu15  O108  S    
C209  O34   A    
Cu6   Cu21  S    
C49   C59   T    
C125  H30   S    
C114  H140  S    
C23   C187  S    
C123  H26   S    
C14   C202  S    
C62   C71   A    
C148  C157  A    
C15   C150  S    
C129  H42   S    
C164  C172  A    
C210  O35   A    
C37   O68   A    
C44   C54   T    
C72   C140  S    
C140  O13   A    
C24   C64   A    
Cu8   O62   S    
C114  H141  S    
C91   C99   A    
C132  O9    S    
C128  H40   S    
Cu11  O89   S    
C20   C181  S    
Cu2   O2    S    
C61   C70   A    
C148  C192  A    
C207  O49   A    
C29   O108  A    
Cu12  O33   S    
C187  C196  A    
Cu4   Cu19  S    
C183  C192  A    
C162  O66   A    
C109  O4    S    
Cu8   O29   S    
C38   O69   A    
C36   C154  S    
C176  C185  A    
Cu20  O41   S    
C95   C104  A    
Cu13  O112  S    
C14   H108  S    
C166  C175  A    
C9    H99   S    
C40   C158  S    
C46   C66   A    
C118  H11   S    
C88   H2    S    
C122  H23   S    
C70   C78   A    
C171  H73   S    
C30   O109  A    
C120  H17   S    
Cu17  O104  S    
C110  H132  S    
Cu6   O80   S    
C38   O78   A    
C4    O61   A    
C37   O76   A    
C146  C155  A    
C2    C97   A    
Cu19  O55   S    
C68   C69   A    
C190  C199  S    
Cu22  O88   S    
C160  C169  A    
C137  H61   S    
Cu14  O92   S    
C174  H75   S    
C163  C171  A    
C22   O95   A    
Cu13  O91   S    
C72   C81   A    
C81   C89   A    
C79   O120  S    
C129  O22   S    
C53   C215  S    
Cu22  O43   S    
Cu3   O13   S    
C143  H69   S    
C19   C182  S    
C25   O97   A    
Cu24  O48   S    
Cu20  O39   S    
Cu14  O106  S    
C213  O56   A    
C19   O87   A    
C57   C103  A    
C105  O118  S    
Cu21  O71   S    
C50   C58   T    
C101  O4    S    
C23   O96   A    
Cu2   O51   S    
Cu9   O83   S    
C170  H72   S    
C134  O16   S    
C193  C202  S    
C105  H117  S    
C138  H62   S    
C129  H44   S    
C31   C102  S    
C4    O43   A    
C12   H107  S    
C211  O36   A    
Cu8   O64   S    
C212  O54   A    
C32   C103  S    
C16   C152  S    
C127  H37   S    
C92   H35   S    
C147  C156  A    
Cu11  O87   S    
Cu1   O32   S    
C119  O12   S    
C198  H84   S    
C94   C103  A    
C155  C164  A    
C182  C191  A    
C73   C82   A    
Cu19  O36   S    
C214  O57   A    
C210  O52   A    
C108  O3    S    
C101  C137  S    
C145  C189  A    
Cu16  O96   S    
C68   C104  A    
C10   H105  S    
C130  H47   S    
C118  H9    S    
C119  H15   S    
C93   C102  A    
C21   C185  S    
C82   H79   S    
C69   C143  S    
C79   C135  S    
C89   C98   A    
C142  H67   S    
Cu23  O73   S    
C68   C134  S    
C41   O81   A    
Cu16  O97   S    
C113  O5    S    
C111  H138  S    
C167  O22   S    
C11   C147  S    
C18   O86   A    
C156  C165  A    
C41   O72   A    
C66   C75   A    
C9    C145  S    
Cu16  Cu17  S    
Cu6   O60   S    
C207  O31   A    
Cu14  Cu15  S    
C7    O64   A    
C201  H92   S    
C208  O32   A    
C25   C186  S    
C82   C91   A    
C200  H86   S    
C79   O118  S    
C123  H27   S    
C63   C72   A    
C87   H134  S    
C113  C138  S    
C6    O46   A    
C67   C142  S    
C216  O59   A    
C91   H24   S    
Cu6   O27   S    
C189  C198  S    
C141  H64   S    
C152  C160  A    
C43   C205  S    
C24   C99   A    
C37   C155  S    
C166  O21   S    
Cu10  O116  S    
C38   C156  S    
C127  H36   S    
C90   O119  S    
C197  H81   S    
Cu10  O86   S    
Cu2   O49   S    
C83   C92   A    
C46   C102  A    
C109  H130  S    
C83   H90   S    
C90   O3    S    
C95   H53   S    
C39   O70   A    
C106  H120  S    
Cu22  O46   S    
C12   H109  S    
C33   O115  A    
Cu22  O72   S    
Cu18  O37   S    
C122  H25   S    
C13   C98   A    
C159  C168  A    
C209  O51   A    
Cu10  O117  S    
C51   C56   T    
Cu4   O56   S    
C62   C136  S    
C144  C153  A    
C121  H21   S    
C41   C159  S    
C30   O112  A    
C208  O50   A    
C110  H135  S    
C6    O63   A    
Cu24  O74   S    
C111  O6    S    
Cu21  O40   S    
C26   O103  A    
C178  H80   S    
Cu16  O102  S    
C215  O40   A    
C108  H127  S    
C195  O99   A    
C32   O114  A    
C51   C213  S    
C116  H3    S    
C24   C113  S    
C195  O29   A    
C89   H13   S    
C73   C151  S    
Cu21  O77   S    
C8    C197  S    
C128  H41   S    
C57   C67   A    
C130  H45   S    
C172  C181  A    
C71   C80   A    
C136  H58   S    
C199  H85   S    
C205  O48   A    
C117  H7    S    
C94   H52   S    
C27   O104  A    
C113  O7    S    
C105  H116  S    
Cu15  O107  S    
C175  H76   S    
Cu6   O58   S    
C125  H29   S    
C132  O11   S    
C135  H56   S    
C120  H16   S    
C22   C183  S    
C136  H55   S    
C200  H88   S    
C90   C136  S    
C203  H96   S    
C96   C206  A    
C117  O10   S    
C87   C96   A    
C49   C211  S    
C20   O89   A    
Cu9   Cu10  S    
C8    C144  S    
C106  H121  S    
C12   C201  S    
C116  H5    S    
Cu12  O31   S    
C8    H98   S    
C161  C170  A    
C17   C180  S    
C40   O71   A    
C126  H33   S    
C121  H19   S    
C77   C86   A    
C165  O20   S    
C171  C180  A    
C202  H91   S    
C178  C187  A    
C13   C101  S    
C169  C178  A    
C197  H83   S    
C9    C198  S    
C92   C100  A    
C144  C188  A    
Cu3   O54   S    
Cu12  O34   S    
C131  H50   S    
C170  C179  A    
C185  C193  A    
Cu7   Cu22  S    
C157  C166  A    
C143  H71   S    
C107  H124  S    
C33   O117  A    
C139  H65   S    
C36   O75   A    
C106  O119  S    
C79   C206  S    
C42   O82   A    
C127  O20   S    
C184  O28   A    
Cu15  O95   S    
C12   C148  S    
Cu9   O114  S    
Cu1   O30   S    
C119  H12   S    
C32   O116  A    
C120  H18   S    
C194  C203  S    
Cu17  O103  S    
C110  H133  S    
C142  H70   S    
C39   O79   A    
C40   O80   A    
C26   O101  A    
Cu8   Cu23  S    
C45   C53   T    
C107  O120  S    
C84   H101  S    
C211  O53   A    
Cu7   O28   S    
C115  O8    S    
C106  H119  S    
C146  C190  A    
C212  O37   A    
C76   C184  S    
C201  H89   S    
Cu13  O90   S    
C39   C157  S    
C115  H144  S    
C2    C62   A    
C81   H68   S    
C167  C176  A    
