data_mof_unit_64733.cif
_audit_creation_date              2012-10-26T17:59:42-0400
_audit_creation_method            fapswitch 2.2
_symmetry_space_group_name_H-M    P1
_symmetry_Int_Tables_number       1
_space_group_crystal_system       tetragonal
_cell_length_a                    38.962762
_cell_length_b                    38.962762
_cell_length_c                    47.249964
_cell_angle_alpha                 90.0
_cell_angle_beta                  90.0
_cell_angle_gamma                 90.0
_cell_volume                      71730.0202196

loop_
_atom_site_label
_atom_site_type_symbol
_atom_type_description
_atom_site_fract_x
_atom_site_fract_y
_atom_site_fract_z
_atom_type_partial_charge
Br1   Br    Br    0.792839 0.058446 0.962284 -0.410039
Br2   Br    Br    0.441560 0.292839 0.462278 -0.410043
Br3   Br    Br    0.707161 0.441559 0.462279 -0.410042
Br4   Br    Br    0.558437 0.707161 0.462275 -0.410042
Br5   Br    Br    0.292839 0.441560 0.537722 -0.410043
Br6   Br    Br    0.441563 0.707161 0.537725 -0.410043
Br7   Br    Br    0.707161 0.558441 0.537721 -0.410044
Br8   Br    Br    0.558440 0.292839 0.537722 -0.410042
Br9   Br    Br    0.707561 0.055236 0.958849 -0.403401
Br10  Br    Br    0.944769 0.707561 0.958845 -0.403400
Br11  Br    Br    0.292439 0.944769 0.958845 -0.403401
Br12  Br    Br    0.941559 0.792839 0.962279 -0.410040
Br13  Br    Br    0.055234 0.292439 0.958847 -0.403401
Br14  Br    Br    0.707561 0.944764 0.041151 -0.403401
Br15  Br    Br    0.944766 0.292439 0.041153 -0.403400
Br16  Br    Br    0.292439 0.055231 0.041155 -0.403400
Br17  Br    Br    0.055231 0.707561 0.041155 -0.403401
Br18  Br    Br    0.207561 0.555230 0.458844 -0.403401
Br19  Br    Br    0.444770 0.207561 0.458844 -0.403401
Br20  Br    Br    0.792439 0.444769 0.458845 -0.403401
Br21  Br    Br    0.555227 0.792439 0.458841 -0.403400
Br22  Br    Br    0.207561 0.444770 0.541156 -0.403401
Br23  Br    Br    0.207161 0.941559 0.962279 -0.410042
Br24  Br    Br    0.444773 0.792439 0.541158 -0.403400
Br25  Br    Br    0.792439 0.555231 0.541155 -0.403402
Br26  Br    Br    0.555230 0.207561 0.541156 -0.403401
Br27  Br    Br    0.058444 0.207161 0.962282 -0.410042
Br28  Br    Br    0.792839 0.941554 0.037716 -0.410041
Br29  Br    Br    0.941556 0.207161 0.037718 -0.410039
Br30  Br    Br    0.207161 0.058441 0.037721 -0.410040
Br31  Br    Br    0.058441 0.792839 0.037721 -0.410042
Br32  Br    Br    0.292839 0.558440 0.462278 -0.410044
C1    C     C_R   0.566228 0.000000 0.000000 0.548912
C2    C     C_R   1.000000 0.500000 0.854473 0.232414
C3    C     C_R   0.523854 0.767982 0.483212 0.156248
C4    C     C_R   0.232018 0.476145 0.516787 0.156248
C5    C     C_R   0.476146 0.767982 0.516788 0.156248
C6    C     C_R   0.767982 0.523856 0.516786 0.156248
C7    C     C_R   0.523855 0.232018 0.516787 0.156248
C8    C     C_R   0.713925 1.000000 0.000000 -0.040411
C9    C     C_R   1.000000 0.713925 0.000000 -0.040411
C10   C     C_R   0.286075 0.000000 0.000000 -0.040411
C11   C     C_R   1.000000 0.286075 0.000000 -0.040410
C12   C     C_R   0.213925 0.500000 0.500000 -0.040411
C13   C     C_R   0.500000 0.000000 0.145527 0.232414
C14   C     C_R   0.500000 0.213925 0.500000 -0.040411
C15   C     C_R   0.786075 0.500000 0.500000 -0.040411
C16   C     C_R   0.500000 0.786075 0.500000 -0.040411
C17   C     C_R   0.786056 0.000000 0.000000 0.049874
C18   C     C_R   0.000000 0.786056 1.000000 0.049875
C19   C     C_R   0.213944 0.000000 0.000000 0.049875
C20   C     C_R   0.000000 0.213944 0.000000 0.049875
C21   C     C_R   0.286056 0.500000 0.500000 0.049875
C22   C     C_R   0.500000 0.286056 0.500000 0.049875
C23   C     C_R   0.713944 0.500000 0.500000 0.049875
C24   C     C_R   1.000000 0.500000 0.145527 0.232414
C25   C     C_R   0.500000 0.713944 0.500000 0.049875
C26   C     C_R   0.500000 1.000000 0.945407 0.553942
C27   C     C_R   1.000000 0.500000 0.945407 0.553942
C28   C     C_R   0.500000 0.000000 0.054593 0.553941
C29   C     C_R   1.000000 0.500000 0.054593 0.553941
C30   C     C_R   0.000000 0.500000 0.445407 0.553943
C31   C     C_R   0.500000 0.000000 0.445407 0.553943
C32   C     C_R   0.000000 0.500000 0.554593 0.553942
C33   C     C_R   0.500000 1.000000 0.554593 0.553943
C34   C     C_R   0.657963 0.972113 0.988633 -0.055894
C35   C     C_R   1.000000 0.500000 0.354473 0.232414
C36   C     C_R   0.027888 0.657963 0.988635 -0.055894
C37   C     C_R   0.342037 0.027888 0.988635 -0.055894
C38   C     C_R   0.972112 0.342037 0.988634 -0.055894
C39   C     C_R   0.657963 0.027887 0.011366 -0.055894
C40   C     C_R   0.027887 0.342037 0.011366 -0.055894
C41   C     C_R   0.342037 0.972112 0.011365 -0.055894
C42   C     C_R   0.972112 0.657963 0.011365 -0.055894
C43   C     C_R   0.157963 0.472111 0.488636 -0.055894
C44   C     C_R   0.527888 0.157963 0.488636 -0.055894
C45   C     C_R   0.842037 0.527888 0.488635 -0.055894
C46   C     C_R   0.500000 1.000000 0.354473 0.232414
C47   C     C_R   0.472111 0.842037 0.488637 -0.055894
C48   C     C_R   0.157963 0.527888 0.511364 -0.055894
C49   C     C_R   0.527889 0.842037 0.511363 -0.055894
C50   C     C_R   0.842037 0.472112 0.511365 -0.055894
C51   C     C_R   0.472112 0.157963 0.511364 -0.055894
C52   C     C_R   0.622150 0.971929 0.988920 -0.105877
C53   C     C_R   0.028072 0.622150 0.988922 -0.105877
C54   C     C_R   0.377850 0.028072 0.988921 -0.105877
C55   C     C_R   0.971929 0.377850 0.988920 -0.105877
C56   C     C_R   0.622150 0.028071 0.011080 -0.105877
C57   C     C_R   0.000000 0.500000 0.645527 0.232414
C58   C     C_R   0.028071 0.377850 0.011079 -0.105877
C59   C     C_R   0.377850 0.971928 0.011079 -0.105877
C60   C     C_R   0.971928 0.622150 0.011078 -0.105877
C61   C     C_R   0.122150 0.471928 0.488922 -0.105878
C62   C     C_R   0.528072 0.122150 0.488922 -0.105878
C63   C     C_R   0.877850 0.528072 0.488921 -0.105878
C64   C     C_R   0.471927 0.877850 0.488923 -0.105877
C65   C     C_R   0.122150 0.528072 0.511078 -0.105878
C66   C     C_R   0.528073 0.877850 0.511077 -0.105878
C67   C     C_R   0.877850 0.471928 0.511078 -0.105878
C68   C     C_R   0.500000 0.000000 0.645527 0.232414
C69   C     C_R   0.471928 0.122150 0.511078 -0.105877
C70   C     C_R   0.603974 1.000000 0.000000 0.017917
C71   C     C_R   0.000000 0.603974 0.000000 0.017916
C72   C     C_R   0.396026 0.000000 0.000000 0.017915
C73   C     C_R   0.000000 0.396026 0.000000 0.017916
C74   C     C_R   0.103974 0.500000 0.500000 0.017916
C75   C     C_R   0.500000 0.103974 0.500000 0.017916
C76   C     C_R   0.896026 0.500000 0.500000 0.017915
C77   C     C_R   0.500000 0.896026 0.500000 0.017915
C78   C     C_R   0.676053 1.000000 0.000000 0.084741
C79   C     C_R   0.000000 0.066272 0.000000 0.564159
C80   C     C_R   1.000000 0.676053 0.000000 0.084742
C81   C     C_R   0.323947 0.000000 0.000000 0.084742
C82   C     C_R   1.000000 0.323947 0.000000 0.084742
C83   C     C_R   0.176053 0.500000 0.500000 0.084742
C84   C     C_R   0.500000 0.176053 0.500000 0.084742
C85   C     C_R   0.823947 0.500000 0.500000 0.084742
C86   C     C_R   0.500000 0.823947 0.500000 0.084743
C87   C     C_R   0.521330 0.022023 0.690357 0.403698
C88   C     C_R   0.977977 0.521330 0.690357 0.403698
C89   C     C_R   0.478670 0.977977 0.690357 0.403698
C90   C     C_R   0.933728 1.000000 0.000000 0.564158
C91   C     C_R   0.022023 0.478670 0.690357 0.403698
C92   C     C_R   0.521330 0.977977 0.309643 0.403698
C93   C     C_R   0.977977 0.478670 0.309643 0.403698
C94   C     C_R   0.478670 0.022023 0.309643 0.403698
C95   C     C_R   0.022023 0.521330 0.309643 0.403698
C96   C     C_R   0.021330 0.522022 0.190357 0.403698
C97   C     C_R   0.477977 0.021330 0.190357 0.403698
C98   C     C_R   0.978670 0.477977 0.190357 0.403698
C99   C     C_R   0.522022 0.978670 0.190357 0.403698
C100  C     C_R   0.021330 0.477977 0.809643 0.403698
C101  C     C_R   0.000000 0.933728 0.000000 0.564158
C102  C     C_R   0.477977 0.978670 0.809643 0.403698
C103  C     C_R   0.978670 0.522022 0.809643 0.403698
C104  C     C_R   0.522022 0.021330 0.809643 0.403698
C105  C     C_R   0.478012 0.977761 0.720104 0.029613
C106  C     C_R   0.022238 0.478012 0.720104 0.029613
C107  C     C_R   0.521988 0.022238 0.720104 0.029613
C108  C     C_R   0.977761 0.521988 0.720104 0.029613
C109  C     C_R   0.478012 0.022238 0.279896 0.029613
C110  C     C_R   0.022238 0.521988 0.279896 0.029613
C111  C     C_R   0.521988 0.977762 0.279896 0.029613
C112  C     C_R   1.000000 0.566228 0.000000 0.548911
C113  C     C_R   0.066272 0.000000 0.000000 0.564158
C114  C     C_R   0.977762 0.478012 0.279896 0.029613
C115  C     C_R   0.978012 0.477762 0.220104 0.029613
C116  C     C_R   0.522238 0.978012 0.220104 0.029613
C117  C     C_R   0.021988 0.522238 0.220104 0.029613
C118  C     C_R   0.477762 0.021988 0.220104 0.029613
C119  C     C_R   0.978012 0.522238 0.779896 0.029613
C120  C     C_R   0.522238 0.021988 0.779896 0.029613
C121  C     C_R   0.021988 0.477762 0.779896 0.029613
C122  C     C_R   0.477762 0.978012 0.779896 0.029613
C123  C     C_R   0.500000 0.000000 0.735033 -0.027048
C124  C     C_R   0.500000 0.566272 0.500000 0.564157
C125  C     C_R   0.000000 0.500000 0.735033 -0.027048
C126  C     C_R   0.500000 1.000000 0.264967 -0.027048
C127  C     C_R   0.000000 0.500000 0.264967 -0.027048
C128  C     C_R   1.000000 0.500000 0.235033 -0.027048
C129  C     C_R   0.500000 0.000000 0.235033 -0.027048
C130  C     C_R   1.000000 0.500000 0.764967 -0.027048
C131  C     C_R   0.500000 1.000000 0.764967 -0.027048
C132  C     C_R   0.456023 0.955814 0.735223 -0.115989
C133  C     C_R   0.044186 0.456023 0.735223 -0.115990
C134  C     C_R   0.543977 0.044186 0.735223 -0.115990
C135  C     C_R   0.433728 0.500000 0.500000 0.564156
C136  C     C_R   0.955814 0.543977 0.735223 -0.115989
C137  C     C_R   0.456023 0.044186 0.264777 -0.115990
C138  C     C_R   0.044186 0.543977 0.264777 -0.115990
C139  C     C_R   0.543977 0.955814 0.264777 -0.115990
C140  C     C_R   0.955814 0.456023 0.264777 -0.115989
C141  C     C_R   0.956023 0.455814 0.235223 -0.115990
C142  C     C_R   0.544186 0.956023 0.235223 -0.115989
C143  C     C_R   0.043977 0.544186 0.235223 -0.115989
C144  C     C_R   0.455814 0.043977 0.235223 -0.115989
C145  C     C_R   0.956023 0.544186 0.764777 -0.115989
C146  C     C_R   0.500000 0.433728 0.500000 0.564157
C147  C     C_R   0.544186 0.043977 0.764777 -0.115990
C148  C     C_R   0.043977 0.455814 0.764777 -0.115989
C149  C     C_R   0.455814 0.956023 0.764777 -0.115989
C150  C     C_R   0.492344 0.030119 0.869481 -0.050562
C151  C     C_R   0.969881 0.492344 0.869481 -0.050562
C152  C     C_R   0.507656 0.969881 0.869481 -0.050562
C153  C     C_R   0.030119 0.507656 0.869481 -0.050562
C154  C     C_R   0.492344 0.969881 0.130519 -0.050562
C155  C     C_R   0.969881 0.507656 0.130519 -0.050562
C156  C     C_R   0.507656 0.030119 0.130519 -0.050562
C157  C     C_R   0.566272 0.500000 0.500000 0.564157
C158  C     C_R   0.030119 0.492344 0.130519 -0.050562
C159  C     C_R   0.992344 0.530119 0.369481 -0.050562
C160  C     C_R   0.469881 0.992344 0.369481 -0.050562
C161  C     C_R   0.007656 0.469881 0.369481 -0.050562
C162  C     C_R   0.530119 0.007656 0.369481 -0.050562
C163  C     C_R   0.992344 0.469881 0.630519 -0.050562
C164  C     C_R   0.469881 0.007656 0.630519 -0.050562
C165  C     C_R   0.007656 0.530119 0.630519 -0.050562
C166  C     C_R   0.530119 0.992344 0.630519 -0.050562
C167  C     C_R   0.492536 0.030190 0.899047 -0.134260
C168  C     C_R   0.877919 0.014183 0.022813 -0.127709
C169  C     C_R   0.969810 0.492536 0.899047 -0.134260
C170  C     C_R   0.507464 0.969810 0.899047 -0.134260
C171  C     C_R   0.030190 0.507464 0.899047 -0.134260
C172  C     C_R   0.492536 0.969810 0.100953 -0.134260
C173  C     C_R   0.969810 0.507464 0.100953 -0.134260
C174  C     C_R   0.507464 0.030190 0.100953 -0.134260
C175  C     C_R   0.030190 0.492536 0.100953 -0.134260
C176  C     C_R   0.992536 0.530190 0.399047 -0.134260
C177  C     C_R   0.469810 0.992536 0.399047 -0.134259
C178  C     C_R   0.007464 0.469810 0.399047 -0.134260
C179  C     C_R   0.985814 0.877919 0.022812 -0.127710
C180  C     C_R   0.530190 0.007464 0.399047 -0.134260
C181  C     C_R   0.992536 0.469810 0.600953 -0.134260
C182  C     C_R   0.469810 0.007464 0.600953 -0.134260
C183  C     C_R   0.007464 0.530190 0.600953 -0.134260
C184  C     C_R   0.530190 0.992536 0.600953 -0.134260
C185  C     C_R   0.500000 1.000000 0.914131 0.007360
C186  C     C_R   1.000000 0.500000 0.914131 0.007360
C187  C     C_R   0.500000 0.000000 0.085869 0.007359
C188  C     C_R   0.000000 0.500000 0.085869 0.007359
C189  C     C_R   1.000000 0.500000 0.414131 0.007360
C190  C     C_R   0.122081 0.985814 0.022812 -0.127709
C191  C     C_R   0.500000 0.000000 0.414131 0.007360
C192  C     C_R   0.000000 0.500000 0.585869 0.007360
C193  C     C_R   0.500000 0.000000 0.585869 0.007360
C194  C     C_3   0.834789 0.018733 0.071771 -0.001098
C195  C     C_3   0.805798 0.022909 0.093043 -0.327603
C196  C     C_3   0.981258 0.834790 0.071770 -0.001097
C197  C     C_3   0.977080 0.805798 0.093041 -0.327602
C198  C     C_3   0.165210 0.981259 0.071770 -0.001097
C199  C     C_3   0.194201 0.977080 0.093041 -0.327603
C200  C     C_3   0.018737 0.165210 0.071771 -0.001098
C201  C     C_R   0.014184 0.122081 0.022813 -0.127710
C202  C     C_3   0.022914 0.194202 0.093042 -0.327603
C203  C     C_3   0.834789 0.981267 0.928229 -0.001098
C204  C     C_3   0.805798 0.977091 0.906957 -0.327603
C205  C     C_3   0.981263 0.165210 0.928229 -0.001098
C206  C     C_3   0.977086 0.194202 0.906958 -0.327603
C207  C     C_3   0.165210 0.018741 0.928230 -0.001099
C208  C     C_3   0.194201 0.022919 0.906959 -0.327604
C209  C     C_3   0.018742 0.834790 0.928230 -0.001099
C210  C     C_3   0.022920 0.805798 0.906959 -0.327603
C211  C     C_3   0.334790 0.518744 0.571770 -0.001097
C212  C     C_R   0.877919 0.985817 0.977187 -0.127709
C213  C     C_3   0.305799 0.522923 0.593041 -0.327602
C214  C     C_3   0.481256 0.334790 0.571770 -0.001097
C215  C     C_3   0.477077 0.305798 0.593041 -0.327602
C216  C     C_3   0.665210 0.481259 0.571770 -0.001099
C217  C     C_3   0.694202 0.477080 0.593041 -0.327602
C218  C     C_3   0.518748 0.665210 0.571769 -0.001098
C219  C     C_3   0.522929 0.694201 0.593040 -0.327603
C220  C     C_3   0.334790 0.481256 0.428230 -0.001098
C221  C     C_3   0.305798 0.477077 0.406959 -0.327603
C222  C     C_3   0.481251 0.665210 0.428231 -0.001098
C223  C     C_R   0.433772 0.000000 0.000000 0.548911
C224  C     C_R   0.985816 0.122081 0.977187 -0.127709
C225  C     C_3   0.477071 0.694201 0.406960 -0.327603
C226  C     C_3   0.665210 0.518741 0.428230 -0.001099
C227  C     C_3   0.694202 0.522920 0.406959 -0.327603
C228  C     C_3   0.518743 0.334790 0.428230 -0.001097
C229  C     C_3   0.522923 0.305799 0.406959 -0.327603
C230  C     C_R   0.122081 0.014185 0.977188 -0.127710
C231  C     C_R   0.014185 0.877919 0.977188 -0.127709
C232  C     C_R   0.377919 0.514186 0.522812 -0.127710
C233  C     C_R   0.485814 0.377919 0.522812 -0.127710
C234  C     C_R   0.622081 0.485814 0.522812 -0.127710
C235  C     C_R   0.514188 0.622081 0.522811 -0.127710
C236  C     C_R   0.377919 0.485814 0.477188 -0.127710
C237  C     C_R   0.485812 0.622081 0.477189 -0.127710
C238  C     C_R   0.622081 0.514185 0.477188 -0.127709
C239  C     C_R   1.000000 0.433772 0.000000 0.548911
C240  C     C_R   0.514186 0.377919 0.477188 -0.127710
C241  C     C_R   0.841798 0.013861 0.023238 0.272344
C242  C     C_R   0.986136 0.841798 0.023237 0.272344
C243  C     C_R   0.158202 0.986136 0.023237 0.272344
C244  C     C_R   0.013862 0.158202 0.023237 0.272344
C245  C     C_R   0.841798 0.986139 0.976762 0.272344
C246  C     C_R   0.986137 0.158202 0.976763 0.272344
C247  C     C_R   0.158202 0.013864 0.976763 0.272345
C248  C     C_R   0.013864 0.841798 0.976763 0.272344
C249  C     C_R   0.341798 0.513864 0.523236 0.272344
C250  C     C_R   0.066228 0.500000 0.500000 0.548912
C251  C     C_R   0.486135 0.341798 0.523236 0.272345
C252  C     C_R   0.658202 0.486136 0.523237 0.272344
C253  C     C_R   0.513866 0.658202 0.523236 0.272345
C254  C     C_R   0.341798 0.486135 0.476764 0.272345
C255  C     C_R   0.486134 0.658202 0.476764 0.272346
C256  C     C_R   0.658202 0.513864 0.476763 0.272344
C257  C     C_R   0.513864 0.341798 0.476764 0.272344
C258  C     C_R   0.823957 0.000000 0.000000 0.122693
C259  C     C_R   0.000000 0.823957 0.000000 0.122694
C260  C     C_R   0.176043 0.000000 0.000000 0.122694
C261  C     C_R   0.500000 0.066228 0.500000 0.548912
C262  C     C_R   1.000000 0.176043 0.000000 0.122694
C263  C     C_R   0.323957 0.500000 0.500000 0.122694
C264  C     C_R   0.500000 0.323957 0.500000 0.122694
C265  C     C_R   0.676043 0.500000 0.500000 0.122694
C266  C     C_R   0.500000 0.676042 0.500000 0.122694
C267  C     C_R   0.895980 1.000000 0.000000 -0.056536
C268  C     C_R   0.000000 0.895980 0.000000 -0.056534
C269  C     C_R   0.104020 0.000000 0.000000 -0.056534
C270  C     C_R   0.000000 0.104020 0.000000 -0.056534
C271  C     C_R   0.395980 0.500000 0.500000 -0.056534
C272  C     C_R   0.933772 0.500000 0.500000 0.548911
C273  C     C_R   0.500000 0.395980 0.500000 -0.056535
C274  C     C_R   0.604020 0.500000 0.500000 -0.056535
C275  C     C_R   0.500000 0.604020 0.500000 -0.056533
C276  C     C_R   0.768054 0.024247 0.983636 0.183538
C277  C     C_R   0.975755 0.768054 0.983634 0.183539
C278  C     C_R   0.231946 0.975755 0.983634 0.183539
C279  C     C_R   0.024246 0.231946 0.983635 0.183539
C280  C     C_R   0.768054 0.975753 0.016364 0.183539
C281  C     C_R   0.975754 0.231946 0.016365 0.183539
C282  C     C_R   0.231946 0.024245 0.016366 0.183539
C283  C     C_R   0.500000 0.933772 0.500000 0.548912
C284  C     C_R   0.024245 0.768054 0.016366 0.183539
C285  C     C_R   0.268054 0.524244 0.483633 0.183539
C286  C     C_R   0.475755 0.268054 0.483633 0.183539
C287  C     C_R   0.731946 0.475755 0.483634 0.183539
C288  C     C_R   0.524243 0.731946 0.483632 0.183540
C289  C     C_R   0.268054 0.475755 0.516367 0.183540
C290  C     C_R   0.475757 0.731946 0.516368 0.183540
C291  C     C_R   0.731946 0.524245 0.516366 0.183539
C292  C     C_R   0.524245 0.268054 0.516366 0.183539
C293  C     C_R   0.732017 0.023858 0.983216 0.156247
C294  C     C_R   0.500000 1.000000 0.854473 0.232414
C295  C     C_R   0.976144 0.732018 0.983214 0.156248
C296  C     C_R   0.267982 0.976144 0.983214 0.156248
C297  C     C_R   0.023857 0.267982 0.983215 0.156248
C298  C     C_R   0.732017 0.976142 0.016784 0.156248
C299  C     C_R   0.976143 0.267982 0.016785 0.156248
C300  C     C_R   0.267982 0.023856 0.016786 0.156247
C301  C     C_R   0.023856 0.732018 0.016786 0.156248
C302  C     C_R   0.232018 0.523855 0.483213 0.156248
C303  C     C_R   0.476145 0.232018 0.483213 0.156248
C304  C     C_R   0.767982 0.476144 0.483214 0.156248
Cu1   Cu    Cu3+1 0.500000 0.965740 0.000000 0.982572
Cu2   Cu    Cu3+1 0.000000 0.000000 0.028160 0.948201
Cu3   Cu    Cu3+1 0.500000 0.500000 0.471840 0.948203
Cu4   Cu    Cu3+1 0.500000 0.500000 0.528160 0.948203
Cu5   Cu    Cu3+1 0.034260 0.500000 0.000000 0.982571
Cu6   Cu    Cu3+1 0.500000 0.034260 0.000000 0.982572
Cu7   Cu    Cu3+1 0.965740 0.500000 0.000000 0.982572
Cu8   Cu    Cu3+1 0.000000 0.465740 0.500000 0.982571
Cu9   Cu    Cu3+1 0.534260 0.000000 0.500000 0.982570
Cu10  Cu    Cu3+1 1.000000 0.534260 0.500000 0.982570
Cu11  Cu    Cu3+1 0.465740 0.000000 0.500000 0.982570
Cu12  Cu    Cu3+1 0.000000 0.000000 0.971840 0.948202
H1    H     H_    0.438828 0.938466 0.724282 0.175428
H2    H     H_    0.561534 0.938827 0.224282 0.175428
H3    H     H_    0.814693 0.014996 0.114396 0.113672
H4    H     H_    0.797458 0.050151 0.093865 0.176381
H5    H     H_    0.964749 0.856540 0.078580 0.137626
H6    H     H_    0.008718 0.842933 0.072080 0.161053
H7    H     H_    0.993361 0.783644 0.086808 0.200762
H8    H     H_    0.984990 0.814694 0.114395 0.113672
H9    H     H_    0.949838 0.797458 0.093860 0.176382
H10   H     H_    0.143460 0.964750 0.078581 0.137627
H11   H     H_    0.157067 0.008719 0.072080 0.161053
H12   H     H_    0.216356 0.993362 0.086808 0.200762
H13   H     H_    0.061172 0.561534 0.224282 0.175428
H14   H     H_    0.185306 0.984991 0.114395 0.113673
H15   H     H_    0.202542 0.949839 0.093861 0.176382
H16   H     H_    0.035245 0.143460 0.078582 0.137626
H17   H     H_    0.991277 0.157067 0.072079 0.161054
H18   H     H_    0.006633 0.216356 0.086807 0.200762
H19   H     H_    0.015002 0.185307 0.114395 0.113673
H20   H     H_    0.050155 0.202542 0.093863 0.176382
H21   H     H_    0.856539 0.964759 0.921417 0.137626
H22   H     H_    0.842932 0.008727 0.927921 0.161053
H23   H     H_    0.783644 0.993371 0.913192 0.200762
H24   H     H_    0.438466 0.061172 0.224282 0.175428
H25   H     H_    0.814693 0.985004 0.885604 0.113672
H26   H     H_    0.797458 0.949849 0.906135 0.176381
H27   H     H_    0.964755 0.143460 0.921418 0.137626
H28   H     H_    0.008723 0.157067 0.927921 0.161053
H29   H     H_    0.993367 0.216356 0.913193 0.200762
H30   H     H_    0.984998 0.185307 0.885605 0.113672
H31   H     H_    0.949845 0.202542 0.906137 0.176382
H32   H     H_    0.143460 0.035250 0.921419 0.137627
H33   H     H_    0.157067 0.991281 0.927920 0.161053
H34   H     H_    0.216356 0.006638 0.913192 0.200762
H35   H     H_    0.938827 0.561534 0.775718 0.175428
H36   H     H_    0.185306 0.015009 0.885605 0.113673
H37   H     H_    0.202542 0.050161 0.906139 0.176382
H38   H     H_    0.035251 0.856540 0.921419 0.137627
H39   H     H_    0.991282 0.842933 0.927920 0.161054
H40   H     H_    0.006639 0.783644 0.913192 0.200762
H41   H     H_    0.015010 0.814694 0.885605 0.113673
H42   H     H_    0.050161 0.797458 0.906139 0.176382
H43   H     H_    0.356540 0.535254 0.578580 0.137628
H44   H     H_    0.342933 0.491284 0.572080 0.161052
H45   H     H_    0.283644 0.506641 0.586808 0.200762
H46   H     H_    0.561534 0.061172 0.775718 0.175428
H47   H     H_    0.314694 0.515014 0.614395 0.113673
H48   H     H_    0.297458 0.550164 0.593859 0.176383
H49   H     H_    0.464747 0.356540 0.578580 0.137627
H50   H     H_    0.508716 0.342933 0.572080 0.161053
H51   H     H_    0.493359 0.283644 0.586808 0.200762
H52   H     H_    0.484987 0.314694 0.614395 0.113672
H53   H     H_    0.449836 0.297458 0.593860 0.176382
H54   H     H_    0.643460 0.464749 0.578581 0.137627
H55   H     H_    0.657067 0.508718 0.572080 0.161053
H56   H     H_    0.716356 0.493361 0.586808 0.200762
H57   H     H_    0.061172 0.438466 0.775718 0.175428
H58   H     H_    0.685306 0.484990 0.614395 0.113672
H59   H     H_    0.702542 0.449839 0.593861 0.176382
H60   H     H_    0.535259 0.643460 0.578578 0.137628
H61   H     H_    0.491289 0.657066 0.572081 0.161052
H62   H     H_    0.506647 0.716355 0.586808 0.200762
H63   H     H_    0.515022 0.685306 0.614394 0.113672
H64   H     H_    0.550170 0.702542 0.593857 0.176383
H65   H     H_    0.356540 0.464747 0.421420 0.137627
H66   H     H_    0.342933 0.508716 0.427920 0.161052
H67   H     H_    0.283644 0.493358 0.413192 0.200762
H68   H     H_    0.438466 0.938827 0.775718 0.175428
H69   H     H_    0.314694 0.484986 0.385605 0.113672
H70   H     H_    0.297458 0.449835 0.406141 0.176383
H71   H     H_    0.464741 0.643460 0.421422 0.137628
H72   H     H_    0.508711 0.657066 0.427919 0.161053
H73   H     H_    0.493353 0.716355 0.413192 0.200762
H74   H     H_    0.484978 0.685306 0.385606 0.113673
H75   H     H_    0.449830 0.702542 0.406143 0.176383
H76   H     H_    0.643460 0.535250 0.421419 0.137627
H77   H     H_    0.657067 0.491282 0.427920 0.161053
H78   H     H_    0.716356 0.506639 0.413192 0.200762
H79   H     H_    0.486144 0.053506 0.858205 0.145897
H80   H     H_    0.685306 0.515010 0.385605 0.113673
H81   H     H_    0.702542 0.550161 0.406139 0.176382
H82   H     H_    0.535253 0.356540 0.421420 0.137627
H83   H     H_    0.491284 0.342933 0.427920 0.161053
H84   H     H_    0.506641 0.283644 0.413192 0.200762
H85   H     H_    0.515013 0.314694 0.385605 0.113673
H86   H     H_    0.550164 0.297458 0.406140 0.176383
H87   H     H_    0.946494 0.486144 0.858205 0.145896
H88   H     H_    0.513856 0.946494 0.858205 0.145896
H89   H     H_    0.061534 0.438828 0.724282 0.175428
H90   H     H_    0.053506 0.513856 0.858205 0.145897
H91   H     H_    0.486144 0.946494 0.141794 0.145896
H92   H     H_    0.946494 0.513856 0.141794 0.145897
H93   H     H_    0.513856 0.053506 0.141794 0.145896
H94   H     H_    0.053506 0.486144 0.141794 0.145896
H95   H     H_    0.986144 0.553506 0.358205 0.145897
H96   H     H_    0.446494 0.986144 0.358205 0.145897
H97   H     H_    0.013856 0.446494 0.358205 0.145897
H98   H     H_    0.553506 0.013856 0.358205 0.145897
H99   H     H_    0.986144 0.446494 0.641795 0.145897
H100  H     H_    0.561172 0.061534 0.724282 0.175428
H101  H     H_    0.446494 0.013856 0.641795 0.145897
H102  H     H_    0.013856 0.553506 0.641795 0.145897
H103  H     H_    0.553506 0.986144 0.641795 0.145897
H104  H     H_    0.486517 0.053794 0.910082 0.141205
H105  H     H_    0.946206 0.486517 0.910082 0.141205
H106  H     H_    0.513483 0.946206 0.910082 0.141205
H107  H     H_    0.053794 0.513483 0.910082 0.141205
H108  H     H_    0.486517 0.946206 0.089918 0.141205
H109  H     H_    0.946206 0.513483 0.089918 0.141205
H110  H     H_    0.513483 0.053794 0.089918 0.141205
H111  H     H_    0.938466 0.561172 0.724282 0.175428
H112  H     H_    0.053794 0.486517 0.089918 0.141205
H113  H     H_    0.986517 0.553794 0.410082 0.141205
H114  H     H_    0.446206 0.986517 0.410082 0.141205
H115  H     H_    0.013483 0.446206 0.410082 0.141205
H116  H     H_    0.553794 0.013483 0.410082 0.141205
H117  H     H_    0.986517 0.446206 0.589918 0.141205
H118  H     H_    0.446206 0.013483 0.589918 0.141205
H119  H     H_    0.013483 0.553794 0.589918 0.141205
H120  H     H_    0.553794 0.986517 0.589918 0.141205
H121  H     H_    0.891988 0.026071 0.039957 0.130238
H122  H     H_    0.438828 0.061534 0.275718 0.175428
H123  H     H_    0.973925 0.891988 0.039955 0.130236
H124  H     H_    0.108012 0.973925 0.039955 0.130237
H125  H     H_    0.026073 0.108012 0.039956 0.130238
H126  H     H_    0.891988 0.973929 0.960043 0.130239
H127  H     H_    0.973927 0.108012 0.960044 0.130237
H128  H     H_    0.108012 0.026075 0.960045 0.130236
H129  H     H_    0.026075 0.891988 0.960045 0.130236
H130  H     H_    0.391988 0.526076 0.539954 0.130236
H131  H     H_    0.473924 0.391988 0.539954 0.130236
H132  H     H_    0.608012 0.473925 0.539955 0.130237
H133  H     H_    0.061534 0.561172 0.275718 0.175428
H134  H     H_    0.526079 0.608012 0.539953 0.130234
H135  H     H_    0.391988 0.473924 0.460046 0.130236
H136  H     H_    0.473921 0.608012 0.460047 0.130235
H137  H     H_    0.608012 0.526075 0.460045 0.130237
H138  H     H_    0.526076 0.391988 0.460046 0.130236
H139  H     H_    0.671632 0.950481 0.979668 0.149643
H140  H     H_    0.049521 0.671633 0.979671 0.149642
H141  H     H_    0.328367 0.049521 0.979671 0.149642
H142  H     H_    0.950480 0.328367 0.979669 0.149643
H143  H     H_    0.671632 0.049519 0.020332 0.149643
H144  H     H_    0.561172 0.938466 0.275718 0.175429
H145  H     H_    0.049520 0.328367 0.020331 0.149643
H146  H     H_    0.328367 0.950479 0.020329 0.149642
H147  H     H_    0.950479 0.671633 0.020329 0.149642
H148  H     H_    0.171633 0.450478 0.479672 0.149642
H149  H     H_    0.549521 0.171633 0.479672 0.149642
H150  H     H_    0.828367 0.549521 0.479671 0.149642
H151  H     H_    0.450477 0.828367 0.479674 0.149642
H152  H     H_    0.171633 0.549521 0.520328 0.149642
H153  H     H_    0.549523 0.828367 0.520326 0.149642
H154  H     H_    0.828367 0.450479 0.520329 0.149642
H155  H     H_    0.938466 0.438827 0.275718 0.175428
H156  H     H_    0.450478 0.171633 0.520328 0.149642
H157  H     H_    0.608671 0.950092 0.980109 0.136699
H158  H     H_    0.049910 0.608671 0.980113 0.136700
H159  H     H_    0.391329 0.049910 0.980113 0.136700
H160  H     H_    0.950091 0.391329 0.980111 0.136699
H161  H     H_    0.608671 0.049908 0.019891 0.136698
H162  H     H_    0.049909 0.391329 0.019889 0.136699
H163  H     H_    0.391329 0.950090 0.019887 0.136700
H164  H     H_    0.950090 0.608671 0.019887 0.136700
H165  H     H_    0.108671 0.450089 0.480113 0.136701
H166  H     H_    0.938827 0.438466 0.224282 0.175428
H167  H     H_    0.549911 0.108671 0.480113 0.136700
H168  H     H_    0.891329 0.549910 0.480112 0.136700
H169  H     H_    0.450088 0.891329 0.480115 0.136701
H170  H     H_    0.108671 0.549911 0.519887 0.136700
H171  H     H_    0.549912 0.891329 0.519885 0.136701
H172  H     H_    0.891329 0.450090 0.519887 0.136700
H173  H     H_    0.450089 0.108671 0.519887 0.136700
H174  H     H_    0.856539 0.035241 0.078583 0.137626
H175  H     H_    0.842932 0.991273 0.072079 0.161053
H176  H     H_    0.783644 0.006629 0.086808 0.200762
N1    N     N_R   0.500000 0.000000 0.676053 -0.397962
N2    N     N_R   0.000000 0.500000 0.676053 -0.397962
N3    N     N_R   0.500000 0.000000 0.323947 -0.397962
N4    N     N_R   1.000000 0.500000 0.323947 -0.397962
N5    N     N_R   1.000000 0.500000 0.176053 -0.397962
N6    N     N_R   0.500000 0.000000 0.176053 -0.397962
N7    N     N_R   1.000000 0.500000 0.823947 -0.397962
N8    N     N_R   0.500000 1.000000 0.823947 -0.397962
O1    O     O_R   0.549920 0.971060 0.999980 -0.505243
O2    O     O_R   0.528940 0.049920 0.499980 -0.505245
O3    O     O_R   0.950080 0.528940 0.499980 -0.505244
O4    O     O_R   0.471060 0.950080 0.499980 -0.505244
O5    O     O_R   0.049920 0.528940 0.500020 -0.505245
O6    O     O_R   0.528940 0.950080 0.500020 -0.505244
O7    O     O_R   0.950080 0.471060 0.500020 -0.505243
O8    O     O_R   0.471060 0.049920 0.500020 -0.505244
O9    O     O_R   0.499990 0.971060 0.958930 -0.506685
O10   O     O_R   0.028940 0.499990 0.958930 -0.506685
O11   O     O_R   0.500010 0.028940 0.958930 -0.506686
O12   O     O_R   0.028940 0.549920 0.999980 -0.505244
O13   O     O_R   0.971060 0.500010 0.958930 -0.506685
O14   O     O_R   0.499990 0.028940 0.041070 -0.506686
O15   O     O_R   0.028940 0.500010 0.041070 -0.506686
O16   O     O_R   0.500010 0.971060 0.041070 -0.506685
O17   O     O_R   0.971060 0.499990 0.041070 -0.506685
O18   O     O_R   0.999990 0.471060 0.458930 -0.506685
O19   O     O_R   0.528940 0.999990 0.458930 -0.506685
O20   O     O_R   0.000010 0.528940 0.458930 -0.506686
O21   O     O_R   0.471060 0.000010 0.458930 -0.506685
O22   O     O_R   0.999990 0.528940 0.541070 -0.506686
O23   O     O_R   0.450080 0.028940 0.999980 -0.505243
O24   O     O_R   0.528940 0.000010 0.541070 -0.506686
O25   O     O_R   0.000010 0.471060 0.541070 -0.506685
O26   O     O_R   0.471060 0.999990 0.541070 -0.506685
O27   O     O_2   0.541609 0.043910 0.675859 -0.485029
O28   O     O_2   0.956090 0.541609 0.675859 -0.485030
O29   O     O_2   0.458391 0.956090 0.675859 -0.485029
O30   O     O_2   0.043910 0.458391 0.675859 -0.485029
O31   O     O_2   0.541609 0.956090 0.324141 -0.485029
O32   O     O_2   0.956090 0.458391 0.324141 -0.485030
O33   O     O_2   0.458391 0.043910 0.324141 -0.485030
O34   O     O_R   0.971060 0.450080 0.999980 -0.505243
O35   O     O_2   0.043910 0.541609 0.324141 -0.485030
O36   O     O_2   0.041609 0.543910 0.175859 -0.485029
O37   O     O_2   0.456090 0.041609 0.175859 -0.485029
O38   O     O_2   0.958391 0.456090 0.175859 -0.485030
O39   O     O_2   0.543910 0.958391 0.175859 -0.485030
O40   O     O_2   0.041609 0.456090 0.824141 -0.485030
O41   O     O_2   0.456090 0.958391 0.824141 -0.485030
O42   O     O_2   0.958391 0.543910 0.824141 -0.485029
O43   O     O_2   0.543910 0.041609 0.824141 -0.485030
O44   O     O_R   0.000010 0.049920 0.976260 -0.507184
O45   O     O_R   0.549920 0.028940 0.000020 -0.505244
O46   O     O_R   0.950080 0.000010 0.976260 -0.507183
O47   O     O_R   0.999990 0.950080 0.976260 -0.507181
O48   O     O_R   0.049920 0.999990 0.976260 -0.507183
O49   O     O_R   0.000010 0.950080 0.023740 -0.507183
O50   O     O_R   0.950080 0.999990 0.023740 -0.507184
O51   O     O_R   0.999990 0.049920 0.023740 -0.507184
O52   O     O_R   0.049920 0.000010 0.023740 -0.507183
O53   O     O_R   0.500010 0.549920 0.476260 -0.507182
O54   O     O_R   0.450080 0.500010 0.476260 -0.507182
O55   O     O_R   0.499990 0.450080 0.476260 -0.507182
O56   O     O_R   0.028940 0.450080 0.000020 -0.505243
O57   O     O_R   0.549920 0.499990 0.476260 -0.507183
O58   O     O_R   0.500010 0.450080 0.523740 -0.507182
O59   O     O_R   0.450080 0.499990 0.523740 -0.507182
O60   O     O_R   0.499990 0.549920 0.523740 -0.507183
O61   O     O_R   0.549920 0.500010 0.523740 -0.507184
O62   O     O_3   0.823041 0.029235 0.044820 -0.535834
O63   O     O_3   0.970760 0.823041 0.044818 -0.535835
O64   O     O_3   0.176959 0.970760 0.044818 -0.535835
O65   O     O_3   0.029237 0.176959 0.044819 -0.535836
O66   O     O_3   0.823041 0.970765 0.955180 -0.535835
O67   O     O_R   0.450080 0.971060 0.000020 -0.505243
O68   O     O_3   0.970762 0.176959 0.955181 -0.535835
O69   O     O_3   0.176959 0.029240 0.955182 -0.535835
O70   O     O_3   0.029240 0.823041 0.955182 -0.535835
O71   O     O_3   0.323041 0.529242 0.544817 -0.535835
O72   O     O_3   0.470759 0.323041 0.544817 -0.535835
O73   O     O_3   0.676959 0.470760 0.544818 -0.535835
O74   O     O_3   0.529244 0.676959 0.544816 -0.535835
O75   O     O_3   0.323041 0.470758 0.455183 -0.535835
O76   O     O_3   0.470756 0.676959 0.455184 -0.535835
O77   O     O_3   0.676959 0.529240 0.455182 -0.535835
O78   O     O_R   0.971060 0.549920 0.000020 -0.505244
O79   O     O_3   0.529241 0.323041 0.455183 -0.535835
O80   O     O_R   0.049920 0.471060 0.499980 -0.505244

loop_
_geom_bond_atom_site_label_1
_geom_bond_atom_site_label_2
_ccdc_geom_bond_type
C69   C75   A    
C173  C188  A    
C166  C184  A    
C237  H136  S    
Br17  C301  S    
C176  H113  S    
C1    O45   A    
C19   C282  A    
C46   N3    S    
C98   N5    A    
Br19  C303  S    
C215  H52   S    
C91   C106  A    
C233  C251  A    
C216  H55   S    
C106  C133  A    
Cu1   O1    S    
C35   N4    S    
C60   H164  S    
C170  C185  A    
C153  H90   S    
C29   O17   A    
C93   C114  A    
C42   C80   A    
C26   C185  S    
C227  H80   S    
C115  C128  A    
C243  O64   S    
Cu4   O58   S    
C252  C265  A    
Cu3   O55   S    
C30   C189  S    
C42   C60   A    
C238  H137  S    
C199  H15   S    
C276  C293  A    
C44   C62   A    
Cu12  O44   S    
C9    C80   S    
Br3   C287  S    
C224  C270  A    
C53   C71   A    
C158  H94   S    
C110  C138  A    
Cu12  O47   S    
C100  O40   S    
C121  C148  A    
C41   H146  S    
C66   C77   A    
C179  C268  A    
C232  C249  A    
C160  H96   S    
C196  C197  S    
C104  C120  A    
C272  O7    A    
C134  H100  S    
C68   C164  A    
C62   C75   A    
Br1   C276  S    
C96   N5    A    
C213  H48   S    
Cu5   O10   S    
C172  C187  A    
Br7   C291  S    
C1    C70   S    
C151  C169  A    
C286  C303  A    
C152  C170  A    
C58   C73   A    
C218  O74   S    
C228  O79   S    
C203  H21   S    
C149  H68   S    
C8    C78   S    
C209  H39   S    
C210  H40   S    
C150  H79   S    
C88   O28   S    
C116  C142  A    
C182  H118  S    
Cu10  O3    S    
C143  H13   S    
C221  H67   S    
C112  O12   A    
C157  O61   A    
C244  C262  A    
C7    C292  A    
C56   C70   A    
C200  C202  S    
C33   C193  S    
C79   O44   A    
Cu7   O17   S    
C231  C268  A    
C34   C78   A    
C229  H85   S    
C167  H104  S    
C211  H43   S    
C162  H98   S    
C165  H102  S    
C210  H41   S    
C90   O46   A    
C202  H19   S    
C197  H8    S    
C124  O60   A    
C222  O76   S    
C4    C12   A    
C43   C83   A    
C104  O43   S    
C234  C274  A    
C43   C61   A    
C113  O52   A    
C38   H142  S    
C272  O3    A    
C234  C252  A    
C118  C129  A    
C28   O16   A    
C150  C167  A    
C221  H70   S    
C226  O77   S    
C99   O39   S    
C30   O20   A    
C247  O69   S    
C227  H78   S    
C3    C288  A    
Br21  C3    S    
C246  O68   S    
C206  H31   S    
Br22  C4    S    
C64   C77   A    
Cu4   O60   S    
C94   C109  A    
C142  H2    S    
Cu3   O53   S    
C101  O47   A    
C123  C131  A    
C239  O56   A    
C176  C189  A    
C47   C64   A    
C219  H63   S    
C32   O22   A    
C198  O64   S    
C97   N6    A    
C231  H129  S    
C230  C247  A    
C240  H138  S    
C212  C245  A    
Cu7   O13   S    
C137  C144  A    
C196  H5    S    
C87   N1    A    
Cu1   O16   S    
C163  H99   S    
C31   O21   A    
C63   C76   A    
C162  C180  A    
C39   C56   A    
C174  H110  S    
C157  C274  S    
C278  C296  A    
C135  C271  S    
C209  H38   S    
C250  O80   A    
C22   C286  A    
Cu5   O56   S    
C214  H50   S    
C18   C259  S    
C125  C130  A    
C95   C110  A    
Cu9   O24   S    
C22   C264  S    
C220  C221  S    
C68   C166  A    
Br31  C284  S    
C39   C78   A    
C216  O73   S    
Cu6   O14   S    
Cu5   O12   S    
C40   C82   A    
C48   C65   A    
C52   C70   A    
C179  H123  S    
C17   C276  A    
C54   C72   A    
C168  H121  S    
C67   C76   A    
C194  O62   S    
C37   C81   A    
Cu1   O67   S    
C65   H170  S    
Cu2   O49   S    
C222  H72   S    
C124  O53   A    
C146  O58   A    
C91   N2    A    
Br29  C281  S    
C67   H172  S    
Br8   C292  S    
C95   N4    A    
C214  O72   S    
C198  H11   S    
C240  C257  A    
C181  C192  A    
C119  C145  A    
Cu11  O21   S    
Cu6   O23   S    
C57   C163  A    
C47   C86   A    
C209  O70   S    
C199  H12   S    
C40   C58   A    
C105  C123  A    
C209  C210  S    
C36   C80   A    
C89   C105  A    
C245  O66   S    
C89   O29   S    
C132  C149  A    
C32   O25   A    
C237  C275  A    
C190  H124  S    
C227  H81   S    
C205  H28   S    
C248  O70   S    
C88   C108  A    
C225  H73   S    
C95   O35   S    
Br4   C288  S    
C196  O63   S    
Cu1   Cu6   S    
C19   C278  A    
C133  H89   S    
C220  H65   S    
Cu10  O22   S    
Cu7   O34   S    
C205  C206  S    
C36   C53   A    
C224  H127  S    
C17   C258  S    
C198  C199  S    
C236  C271  A    
C38   C55   A    
C204  H23   S    
C27   O10   A    
C113  C269  S    
C201  H125  S    
Cu5   Cu7   S    
C206  H29   S    
C229  H86   S    
C124  C275  S    
C24   C158  A    
C284  C301  A    
C248  C259  A    
C31   C191  S    
C2    C151  A    
C138  H133  S    
C24   N5    S    
Cu9   O19   S    
C236  H135  S    
C222  C225  S    
C79   O51   A    
C201  C244  A    
C213  H45   S    
Br2   C286  S    
C74   C250  S    
C28   O14   A    
C98   O38   S    
Br25  C6    S    
C251  C264  A    
C164  C182  A    
C233  H131  S    
C208  H34   S    
C55   C73   A    
C24   C155  A    
C107  C123  A    
C285  C302  A    
C144  H24   S    
C205  O68   S    
C155  C173  A    
Br24  C5    S    
Cu2   O51   S    
C146  O55   A    
C137  H122  S    
C283  O6    A    
Br32  C285  S    
C9    C301  A    
C155  H92   S    
C229  H84   S    
Br27  C279  S    
Cu1   O9    S    
C33   O24   A    
C13   N6    S    
C88   N2    A    
C111  C126  A    
C241  O62   S    
C184  H120  S    
C42   H147  S    
C214  C215  S    
C51   C69   A    
C98   C115  A    
Cu8   Cu10  S    
C228  C229  S    
C51   H156  S    
C200  O65   S    
C216  H54   S    
C57   C165  A    
C50   C85   A    
C197  H7    S    
Br10  C295  S    
C226  C227  S    
C249  C263  A    
C161  C178  A    
C238  C274  A    
C203  O66   S    
C102  O41   S    
Cu9   O2    S    
C101  C268  S    
C68   N1    S    
Cu6   O45   S    
C11   C299  A    
Cu11  O4    S    
C117  C128  A    
C249  O71   S    
C18   C277  A    
C235  C275  A    
C8    C293  A    
C57   N2    S    
C49   H153  S    
C158  C175  A    
C200  H16   S    
C235  C253  A    
Br5   C289  S    
C247  C260  A    
Br11  C296  S    
C29   O15   A    
C100  N7    A    
C204  H25   S    
C48   H152  S    
C220  H66   S    
C166  H103  S    
C257  O79   S    
C169  H105  S    
C73   C239  S    
C164  H101  S    
C204  H26   S    
C179  C242  A    
C50   C67   A    
C207  C208  S    
C167  C185  A    
C110  C127  A    
Br18  C302  S    
C183  C192  A    
C10   C296  A    
C203  C204  S    
C251  O72   S    
C256  O77   S    
C156  C174  A    
C175  C188  A    
C213  H47   S    
C72   C223  S    
C194  H174  S    
C61   H165  S    
C178  H115  S    
C255  C266  A    
C169  C186  A    
C11   C82   S    
C253  C266  A    
Br26  C7    S    
C208  H36   S    
C49   C66   A    
C225  H75   S    
C136  C145  A    
C122  C149  A    
C89   N1    A    
C281  C299  A    
C41   C81   A    
C32   C192  S    
Br23  C278  S    
C46   C162  A    
C190  C243  A    
C182  C193  A    
C69   H173  S    
C126  C129  A    
C52   H157  S    
C23   C265  S    
C217  H59   S    
Cu11  O26   S    
C154  H91   S    
C228  H83   S    
C218  H60   S    
C23   C291  A    
C256  C265  A    
C92   C111  A    
C27   O13   A    
C97   O37   S    
C33   O26   A    
Cu9   Cu11  S    
C17   C280  A    
C2    N7    S    
C136  H111  S    
C234  H132  S    
C261  O2    A    
C138  C143  A    
C93   O32   S    
C44   H149  S    
C210  H42   S    
C141  H166  S    
C202  H20   S    
C71   C112  S    
Cu10  O5    S    
C3    C16   A    
Br30  C282  S    
C139  C142  A    
C8    C298  A    
C242  O63   S    
C159  H95   S    
C287  C304  A    
C200  H17   S    
Cu5   O15   S    
C218  H61   S    
C294  N8    S    
C168  C267  A    
Br6   C290  S    
C46   C160  A    
C240  C273  A    
C20   C281  A    
C245  C258  A    
C92   O31   S    
C25   C288  A    
C190  C269  A    
C87   O27   S    
C218  C219  S    
C151  H87   S    
C49   C86   A    
C206  H30   S    
C23   C287  A    
C181  H117  S    
C11   C297  A    
C2    C153  A    
Br15  C299  S    
C92   N3    A    
Cu3   Cu4   S    
C48   C83   A    
C119  C130  A    
Br28  C280  S    
C1    O1    A    
C196  H6    S    
C261  O8    A    
C91   O30   S    
C230  H128  S    
C65   C74   A    
C152  H88   S    
C14   C303  A    
C177  C191  A    
C28   C187  S    
C241  C258  A    
C277  C295  A    
C147  H46   S    
C215  H51   S    
C216  C217  S    
C175  H112  S    
C37   H141  S    
C45   H150  S    
C171  C186  A    
C21   C285  A    
Cu8   O25   S    
C177  H114  S    
C27   C186  S    
C75   C261  S    
C203  H22   S    
C47   H151  S    
C79   C270  S    
C21   C289  A    
C184  C193  A    
C14   C84   S    
C121  C130  A    
C243  C260  A    
Cu7   O78   S    
C87   C107  A    
C153  C171  A    
C120  C147  A    
C232  C271  A    
C111  C139  A    
C19   C260  S    
C223  O67   A    
C102  C122  A    
C183  H119  S    
C235  H134  S    
C103  C119  A    
C132  H1    S    
C254  C263  A    
Cu8   O18   S    
C26   O11   A    
C63   H168  S    
C221  H69   S    
C160  C177  A    
C163  C181  A    
C211  H44   S    
Br20  C304  S    
C226  H77   S    
C279  C297  A    
C239  O34   A    
C109  C126  A    
C205  H27   S    
C202  H18   S    
C135  O54   A    
C101  O49   A    
Cu11  O8    S    
C140  H155  S    
C117  C143  A    
C168  C241  A    
C252  O73   S    
C208  H37   S    
C246  C262  A    
C108  C136  A    
C118  C144  A    
C96   C117  A    
C254  O75   S    
C230  C269  A    
C114  C140  A    
Cu6   O11   S    
C62   H167  S    
C29   C188  S    
C59   C72   A    
C244  O65   S    
C195  H3    S    
C31   O19   A    
C43   H148  S    
C282  C300  A    
C38   C82   A    
Cu4   O59   S    
Cu9   O6    S    
Cu3   O54   S    
C116  C129  A    
C225  H74   S    
C224  C246  A    
C76   C272  S    
Br13  C297  S    
C90   C267  S    
C199  H14   S    
C45   C85   A    
C219  H64   S    
C172  H108  S    
C35   C159  A    
C13   C154  A    
C215  H53   S    
C223  O23   A    
Cu2   Cu12  S    
C195  H4    S    
C250  O5    A    
C60   C71   A    
Br16  C300  S    
C127  C128  A    
C12   C83   S    
C211  C213  S    
C103  O42   S    
Cu2   O52   S    
C56   H161  S    
C242  C259  A    
C180  H116  S    
C10   C300  A    
C96   O36   S    
C139  H144  S    
C18   C284  A    
C12   C302  A    
C217  H56   S    
C178  C189  A    
C228  H82   S    
C77   C283  S    
C5    C290  A    
C211  O71   S    
C55   H160  S    
C59   H163  S    
C109  C137  A    
C53   H158  S    
C161  H97   S    
C103  N7    A    
C257  C264  A    
C280  C298  A    
C212  H126  S    
C222  H71   S    
C120  C131  A    
C122  C131  A    
C146  C273  S    
C233  C273  A    
C6    C291  A    
C41   C59   A    
C25   C266  S    
C54   H159  S    
C198  H10   S    
C40   H145  S    
C113  O48   A    
C16   C86   S    
C114  C127  A    
Cu10  O20   S    
C231  C248  A    
C45   C63   A    
C36   H140  S    
C135  O59   A    
C26   O9    A    
C173  H109  S    
C207  H33   S    
C107  C134  A    
C64   H169  S    
C171  H107  S    
C108  C125  A    
C102  N8    A    
C94   N3    A    
C10   C81   S    
Cu8   O80   S    
C220  O75   S    
C25   C290  A    
C100  C121  A    
C154  C172  A    
C99   C116  A    
Cu3   O57   S    
C5    C16   A    
C112  O78   A    
C6    C15   A    
C7    C14   A    
Br14  C298  S    
Br9   C293  S    
C194  C195  S    
C201  C270  A    
C61   C74   A    
C253  O74   S    
C145  H35   S    
C195  H176  S    
C22   C292  A    
C255  O76   S    
Cu8   O7    S    
C226  H76   S    
C115  C141  A    
C232  H130  S    
C140  C141  A    
Cu4   O61   S    
C94   O33   S    
C236  C254  A    
C66   H171  S    
C237  C255  A    
C238  C256  A    
C219  H62   S    
C165  C183  A    
C30   O18   A    
C105  C132  A    
C13   C156  A    
C156  H93   S    
C39   H143  S    
Br12  C277  S    
C150  C294  A    
C20   C279  A    
C194  H175  S    
C9    C295  A    
C214  H49   S    
C20   C262  S    
C58   H162  S    
C97   C118  A    
C106  C125  A    
C104  N8    A    
C15   C304  A    
Cu12  O46   S    
C44   C84   A    
Cu2   O50   S    
C152  C294  A    
C159  C176  A    
C50   H154  S    
C93   N4    A    
C34   C52   A    
C15   C85   S    
C217  H58   S    
C212  C267  A    
C99   N6    A    
C51   C84   A    
C133  C148  A    
C4    C289  A    
C148  H57   S    
C197  H9    S    
C134  C147  A    
C207  O69   S    
Cu12  O48   S    
C207  H32   S    
C35   C161  A    
C283  O4    A    
C34   H139  S    
C21   C263  S    
C90   O50   A    
C37   C54   A    
C170  H106  S    
C174  C187  A    
C157  O57   A    
C180  C191  A    
