data_mof_unit_18625.cif
_audit_creation_date              2012-12-10T21:18:26-0500
_audit_creation_method            fapswitch 2.2
_symmetry_space_group_name_H-M    P1
_symmetry_Int_Tables_number       1
_space_group_crystal_system       triclinic
_cell_length_a                    17.645643
_cell_length_b                    17.199318
_cell_length_c                    10.716401
_cell_angle_alpha                 87.215216
_cell_angle_beta                  92.94023
_cell_angle_gamma                 89.035748
_cell_volume                      3243.62718333

loop_
_atom_site_label
_atom_site_type_symbol
_atom_type_description
_atom_site_fract_x
_atom_site_fract_y
_atom_site_fract_z
_atom_type_partial_charge
C1    C     C_R   0.354231 0.500512 0.498757 0.861715
C2    C     C_R   0.555238 0.246942 0.568243 0.150294
C3    C     C_R   0.553288 0.746943 0.572980 0.155309
C4    C     C_R   0.445107 0.252770 0.430694 0.143914
C5    C     C_R   0.502227 0.876847 0.497269 0.031721
C6    C     C_R   0.503004 0.123615 0.491711 0.033719
C7    C     C_1   0.501128 0.964269 0.496883 -0.066268
C8    C     C_1   0.501069 0.036198 0.494291 -0.051709
C9    C     C_R   0.493965 0.501247 0.257339 0.851288
C10   C     C_R   0.503197 0.498077 0.742909 0.858317
C11   C     C_3   0.475953 0.570038 0.026001 0.082502
C12   C     C_R   0.646055 0.499879 0.498814 0.861897
C13   C     C_3   0.516833 0.423998 0.973278 0.094955
C14   C     C_3   0.549097 0.547546 0.963007 0.070322
C15   C     C_3   0.443946 0.446488 0.037935 0.088954
C16   C     C_3   0.428702 0.516074 0.942876 0.080720
C17   C     C_3   0.564312 0.477696 0.057251 0.072245
C18   C     C_3   0.501907 0.494318 0.878677 -0.192144
C19   C     C_3   0.491539 0.501092 0.121371 -0.196929
C20   C     C_R   0.839120 0.556570 0.397455 0.102770
C21   C     C_R   0.153162 0.465515 0.575649 0.102912
C22   C     C_R   0.155884 0.527618 0.364213 0.122456
C23   C     C_1   0.965746 0.501094 0.461091 -0.095414
C24   C     C_R   0.852698 0.452637 0.562475 0.133696
C25   C     C_R   0.760015 0.551651 0.402393 -0.204844
C26   C     C_R   0.232419 0.466328 0.584468 -0.222731
C27   C     C_R   0.234849 0.530567 0.378790 -0.277265
C28   C     C_R   0.774666 0.457088 0.575991 -0.297811
C29   C     C_R   0.728084 0.501272 0.490534 -0.074944
C30   C     C_R   0.272374 0.501277 0.488927 -0.064100
C31   C     C_R   0.885073 0.502523 0.472027 0.076654
C32   C     C_R   0.114842 0.497346 0.464911 0.076641
C33   C     C_3   0.354303 0.536313 0.866006 -0.379602
C34   C     C_1   0.033469 0.499627 0.457858 -0.083592
C35   C     C_3   0.286596 0.552880 0.946822 -0.385054
C36   C     C_3   0.222116 0.596098 0.870355 -0.908260
C37   C     C_3   0.639268 0.457153 0.133642 -0.371851
C38   C     C_3   0.704212 0.432471 0.053224 -0.373479
C39   C     C_3   0.781250 0.439585 0.122889 -0.887523
C40   C     C_3   0.450437 0.651846 0.056628 -0.386750
C41   C     C_3   0.422639 0.702828 0.940534 -0.347172
C42   C     C_3   0.421913 0.788461 0.966550 -0.952363
C43   C     C_3   0.542345 0.342876 0.936940 -0.413500
C44   C     C_3   0.544915 0.281456 0.046565 -0.334215
C45   C     C_R   0.456514 0.837789 0.410179 0.007548
C46   C     C_3   0.592443 0.209958 0.019362 -0.929033
C47   C     C_3   0.607159 0.606912 0.921847 -0.390475
C48   C     C_3   0.652694 0.639707 0.032860 -0.339559
C49   C     C_3   0.667508 0.726206 0.012292 -0.935339
C50   C     C_3   0.384845 0.390146 0.087584 -0.408728
C51   C     C_3   0.343795 0.344981 0.984537 -0.345660
C52   C     C_3   0.289588 0.285957 0.038994 -0.937598
C53   C     C_3   0.876355 0.619586 0.318796 -0.430263
C54   C     C_3   0.823433 0.683952 0.259202 -0.376411
C55   C     C_3   0.867663 0.745991 0.188702 -0.881145
C56   C     C_R   0.556733 0.162329 0.566489 0.009861
C57   C     C_3   0.107657 0.430686 0.680545 -0.429090
C58   C     C_3   0.152247 0.392016 0.794349 -0.371601
C59   C     C_3   0.098632 0.364563 0.894238 -0.887579
C60   C     C_3   0.117618 0.556983 0.240981 -0.423633
C61   C     C_3   0.082311 0.638008 0.252392 -0.329801
C62   C     C_3   0.064535 0.679012 0.124606 -0.908612
C63   C     C_3   0.899270 0.392965 0.643011 -0.422778
C64   C     C_3   0.914533 0.320614 0.568428 -0.324432
C65   C     C_3   0.957016 0.255683 0.647273 -0.911310
C66   C     C_3   0.418007 0.888025 0.302055 -0.419974
C67   C     C_R   0.551356 0.830975 0.579464 0.008722
C68   C     C_3   0.476220 0.913756 0.206766 -0.327877
C69   C     C_3   0.439254 0.958059 0.090973 -0.921621
C70   C     C_3   0.615578 0.110650 0.642911 -0.407855
C71   C     C_3   0.674849 0.075725 0.558658 -0.331314
C72   C     C_3   0.745688 0.045783 0.635095 -0.916586
C73   C     C_3   0.603414 0.872964 0.671923 -0.425556
C74   C     C_3   0.568013 0.877525 0.798257 -0.351077
C75   C     C_3   0.622007 0.914421 0.893645 -0.927599
C76   C     C_3   0.405293 0.129730 0.313127 -0.404986
C77   C     C_3   0.328437 0.099029 0.353363 -0.336512
C78   C     C_R   0.450498 0.169659 0.416478 -0.000578
C79   C     C_3   0.281323 0.067671 0.244056 -0.920349
C80   C     C_3   0.392483 0.716952 0.336337 -0.395797
C81   C     C_3   0.310843 0.736526 0.370634 -0.363203
C82   C     C_3   0.256562 0.742039 0.254540 -0.919691
C83   C     C_3   0.608865 0.283966 0.660741 -0.391975
C84   C     C_3   0.692950 0.276062 0.632466 -0.348528
C85   C     C_3   0.742837 0.274000 0.753613 -0.956002
C86   C     C_3   0.619941 0.704182 0.640331 -0.380755
C87   C     C_3   0.692148 0.711819 0.566239 -0.344872
C88   C     C_3   0.761184 0.676967 0.642108 -0.872388
C89   C     C_R   0.451003 0.753554 0.420475 0.158127
C90   C     C_3   0.370527 0.292030 0.386180 -0.352029
C91   C     C_3   0.312111 0.285362 0.488832 -0.312724
C92   C     C_3   0.231445 0.302541 0.434441 -0.899949
H1    H     H_    0.238345 0.656798 0.846011 0.257835
H2    H     H_    0.826630 0.417322 0.065236 0.246539
H3    H     H_    0.294093 0.145583 0.390302 0.238243
H4    H     H_    0.399360 0.168019 0.227190 0.178391
H5    H     H_    0.439199 0.080060 0.283187 0.213205
H6    H     H_    0.278422 0.780578 0.179268 0.253491
H7    H     H_    0.247792 0.683616 0.217452 0.270289
H8    H     H_    0.201750 0.767992 0.279145 0.256451
H9    H     H_    0.291124 0.691174 0.438230 0.242756
H10   H     H_    0.307885 0.792878 0.416876 0.221444
H11   H     H_    0.402568 0.738804 0.240525 0.191757
H12   H     H_    0.399496 0.653920 0.334745 0.246199
H13   H     H_    0.697653 0.370705 0.030436 0.228159
H14   H     H_    0.736892 0.328975 0.802579 0.253023
H15   H     H_    0.727301 0.225000 0.817808 0.261171
H16   H     H_    0.802519 0.263939 0.732325 0.272795
H17   H     H_    0.705864 0.223602 0.583375 0.238199
H18   H     H_    0.708329 0.323325 0.566093 0.234817
H19   H     H_    0.596043 0.345536 0.669537 0.250709
H20   H     H_    0.598661 0.256368 0.753424 0.185068
H21   H     H_    0.773149 0.710881 0.726236 0.250709
H22   H     H_    0.751083 0.615572 0.672454 0.268485
H23   H     H_    0.811612 0.678967 0.584301 0.256266
H24   H     H_    0.703784 0.468434 0.964429 0.218440
H25   H     H_    0.684575 0.683084 0.476613 0.240282
H26   H     H_    0.703755 0.773530 0.540467 0.200744
H27   H     H_    0.631106 0.727498 0.733296 0.183262
H28   H     H_    0.607603 0.643342 0.662256 0.247391
H29   H     H_    0.228295 0.359897 0.382371 0.278727
H30   H     H_    0.213555 0.257414 0.369040 0.252771
H31   H     H_    0.191446 0.302723 0.511091 0.255299
H32   H     H_    0.314134 0.226298 0.535357 0.192821
H33   H     H_    0.325274 0.324093 0.565928 0.241565
H34   H     H_    0.378566 0.351606 0.349444 0.225209
H35   H     H_    0.655880 0.507984 0.187500 0.185679
H36   H     H_    0.345570 0.265554 0.302547 0.186551
H37   H     H_    0.629792 0.409656 0.204429 0.205254
H38   H     H_    0.381379 0.799630 0.039412 0.273234
H39   H     H_    0.479416 0.805979 0.997939 0.274137
H40   H     H_    0.403716 0.823460 0.880061 0.256967
H41   H     H_    0.457400 0.693519 0.859321 0.229062
H42   H     H_    0.363408 0.689210 0.913509 0.240281
H43   H     H_    0.208010 0.566791 0.782570 0.278246
H44   H     H_    0.402594 0.644263 0.117931 0.174379
H45   H     H_    0.497511 0.679965 0.108959 0.218816
H46   H     H_    0.567845 0.181592 0.936054 0.258809
H47   H     H_    0.651818 0.226547 0.003509 0.261637
H48   H     H_    0.592893 0.167359 0.100698 0.255848
H49   H     H_    0.568605 0.305910 0.133573 0.233256
H50   H     H_    0.486887 0.261392 0.063656 0.221017
H51   H     H_    0.503512 0.323178 0.860750 0.199383
H52   H     H_    0.599192 0.348967 0.899139 0.196821
H53   H     H_    0.700219 0.737138 0.927718 0.272981
H54   H     H_    0.170747 0.597677 0.925777 0.254152
H55   H     H_    0.612720 0.758631 0.003559 0.271969
H56   H     H_    0.699747 0.748161 0.094186 0.254819
H57   H     H_    0.622401 0.632281 0.120799 0.221505
H58   H     H_    0.707670 0.607504 0.045255 0.221153
H59   H     H_    0.646396 0.579997 0.857889 0.163337
H60   H     H_    0.574844 0.654093 0.869513 0.210721
H61   H     H_    0.322152 0.237726 0.089421 0.255504
H62   H     H_    0.251458 0.313816 0.103801 0.269941
H63   H     H_    0.254659 0.261033 0.962167 0.257832
H64   H     H_    0.310294 0.384762 0.918963 0.217290
H65   H     H_    0.264613 0.497836 0.987210 0.220345
H66   H     H_    0.384800 0.313700 0.929483 0.222461
H67   H     H_    0.414965 0.348186 0.154609 0.199650
H68   H     H_    0.342923 0.423264 0.139010 0.179202
H69   H     H_    0.911328 0.771347 0.252247 0.261694
H70   H     H_    0.895491 0.720258 0.109325 0.267876
H71   H     H_    0.828340 0.793455 0.150905 0.246916
H72   H     H_    0.783167 0.657871 0.192094 0.226614
H73   H     H_    0.791716 0.712032 0.332412 0.225438
H74   H     H_    0.917679 0.648484 0.382145 0.203963
H75   H     H_    0.906930 0.591520 0.244191 0.211185
H76   H     H_    0.303427 0.588115 0.026847 0.220535
H77   H     H_    0.064848 0.414522 0.925196 0.259331
H78   H     H_    0.059532 0.320291 0.857474 0.266163
H79   H     H_    0.131786 0.338184 0.976708 0.254882
H80   H     H_    0.185862 0.341352 0.765292 0.221442
H81   H     H_    0.191036 0.434321 0.836448 0.238998
H82   H     H_    0.070809 0.477765 0.713474 0.207319
H83   H     H_    0.071780 0.385597 0.639065 0.215461
H84   H     H_    0.117495 0.687850 0.074542 0.267450
H85   H     H_    0.024683 0.644072 0.067654 0.262827
H86   H     H_    0.038093 0.736951 0.136900 0.254320
H87   H     H_    0.363867 0.586312 0.799901 0.214032
H88   H     H_    0.029773 0.632923 0.302741 0.221533
H89   H     H_    0.120607 0.674069 0.309188 0.230931
H90   H     H_    0.159830 0.559502 0.167279 0.202246
H91   H     H_    0.073433 0.515718 0.210108 0.195759
H92   H     H_    0.017876 0.269165 0.660880 0.258419
H93   H     H_    0.932771 0.246576 0.740225 0.259195
H94   H     H_    0.953026 0.200504 0.597889 0.252775
H95   H     H_    0.859469 0.297721 0.532490 0.224605
H96   H     H_    0.948160 0.336593 0.486446 0.224546
H97   H     H_    0.952473 0.418907 0.677999 0.199695
H98   H     H_    0.341174 0.487589 0.806005 0.163115
H99   H     H_    0.869035 0.376177 0.728150 0.199932
H100  H     H_    0.722519 0.587883 0.340481 0.126028
H101  H     H_    0.263780 0.439088 0.664161 0.123170
H102  H     H_    0.267649 0.553707 0.303147 0.129257
H103  H     H_    0.749901 0.426468 0.653385 0.153631
H104  H     H_    0.384192 0.932867 0.061351 0.266871
H105  H     H_    0.429246 0.020022 0.108540 0.260004
H106  H     H_    0.477290 0.956288 0.012097 0.262516
H107  H     H_    0.519520 0.951484 0.250274 0.222839
H108  H     H_    0.506805 0.861331 0.177728 0.216243
H109  H     H_    0.792590 0.501442 0.140764 0.260181
H110  H     H_    0.371232 0.859217 0.252317 0.215997
H111  H     H_    0.390454 0.939609 0.339340 0.215373
H112  H     H_    0.774646 0.094643 0.680604 0.271839
H113  H     H_    0.730480 0.001587 0.708060 0.267858
H114  H     H_    0.785624 0.018556 0.572566 0.251175
H115  H     H_    0.650700 0.027238 0.506374 0.215728
H116  H     H_    0.691829 0.118910 0.485561 0.210940
H117  H     H_    0.644455 0.140617 0.719821 0.221226
H118  H     H_    0.586225 0.062948 0.693122 0.194383
H119  H     H_    0.678901 0.885595 0.896977 0.270856
H120  H     H_    0.782848 0.405092 0.213432 0.270825
H121  H     H_    0.628034 0.977339 0.869110 0.264228
H122  H     H_    0.599564 0.907906 0.988259 0.253308
H123  H     H_    0.514247 0.912384 0.787466 0.229821
H124  H     H_    0.554590 0.817869 0.832108 0.230506
H125  H     H_    0.660906 0.846487 0.684348 0.206646
H126  H     H_    0.614823 0.932483 0.637025 0.220954
H127  H     H_    0.270130 0.114059 0.169412 0.266876
H128  H     H_    0.310499 0.017871 0.204476 0.273898
H129  H     H_    0.226042 0.047467 0.277143 0.252006
H130  H     H_    0.337598 0.052570 0.428531 0.218637
N1    N     N_R   0.500000 0.707230 0.500000 -0.136986
N2    N     N_R   0.500000 0.292770 0.500000 -0.136366
O1    O     O_R   0.389110 0.566570 0.499990 -0.629484
O2    O     O_R   0.610890 0.433430 0.500010 -0.627622
O3    O     O_R   0.610890 0.566570 0.500010 -0.628215
O4    O     O_R   0.389110 0.433430 0.499990 -0.631521
O5    O     O_R   0.499980 0.566530 0.313950 -0.644288
O6    O     O_R   0.500020 0.433470 0.686050 -0.647606
O7    O     O_R   0.500020 0.566530 0.686050 -0.641153
O8    O     O_R   0.499980 0.433470 0.313950 -0.631619
Zn1   Zn    Zn3+2 0.500000 0.588860 0.500000 0.900223
Zn2   Zn    Zn3+2 0.500000 0.411140 0.500000 0.899977

loop_
_geom_bond_atom_site_label_1
_geom_bond_atom_site_label_2
_ccdc_geom_bond_type
C66   C68   S    
C87   C88   S    
C48   H58   S    
C74   H123  S    
C33   H87   S    
C41   C42   S    
C14   C18   S    
C43   H51   S    
C35   C36   S    
C5    C67   A    
C62   H85   S    
C41   H41   S    
C81   C82   S    
C43   H52   S    
C7    C8    T    
C81   H9    S    
C53   C54   S    
C52   H63   S    
C15   C19   S    
C40   H44   S    
C75   H119  S    
C22   C32   A    
C13   C18   S    
C80   H12   S    
C9    O8    A    
C59   H77   S    
C10   C18   S    
C46   H48   S    
C28   C29   A    
C76   C78   S    
C87   H25   S    
C22   C60   S    
C38   C39   S    
C12   C29   S    
C11   C14   S    
C63   H99   S    
C6    C78   A    
C51   H66   S    
C20   C25   A    
C88   H21   S    
C52   H62   S    
C15   C16   S    
C10   O6    A    
C28   H103  S    
C49   H55   S    
C25   C29   A    
C9    O5    A    
C4    C78   A    
C82   H7    S    
C15   C50   S    
C80   C89   S    
N2    Zn2   S    
C10   O7    A    
N1    Zn1   S    
C17   C19   S    
C68   H108  S    
C57   H83   S    
C12   O2    A    
C36   H1    S    
C9    C19   S    
C83   C84   S    
C44   C46   S    
C44   H49   S    
C42   H40   S    
C73   H126  S    
C86   H27   S    
C67   C73   S    
C85   H16   S    
C45   C89   A    
C65   H94   S    
O4    Zn2   S    
C72   H112  S    
C60   H91   S    
C71   H115  S    
C48   H57   S    
C3    C86   S    
C69   H105  S    
C82   H6    S    
C14   C17   S    
C2    C83   S    
C61   C62   S    
C59   H79   S    
C2    N2    A    
C41   H42   S    
C21   C26   A    
C53   H75   S    
C79   H129  S    
C4    C90   S    
C81   H10   S    
C77   C79   S    
C73   C74   S    
C60   H90   S    
O3    Zn1   S    
C21   C32   A    
C65   H93   S    
C51   H64   S    
C74   C75   S    
C80   H11   S    
C73   H125  S    
C51   C52   S    
C44   H50   S    
C76   C77   S    
C55   H69   S    
C87   H26   S    
O7    Zn1   S    
C92   H31   S    
C91   C92   S    
C5    C7    S    
C27   C30   A    
C86   C87   S    
C68   C69   S    
C12   O3    A    
C6    C8    S    
C50   H68   S    
C76   H5    S    
C63   H97   S    
C5    C45   A    
C77   H3    S    
C69   H104  S    
C84   H18   S    
C63   C64   S    
C49   H56   S    
C33   H98   S    
C23   C31   S    
C58   H80   S    
C43   C44   S    
C35   H65   S    
C39   H2    S    
C21   C57   S    
C37   C38   S    
C92   H30   S    
C16   C33   S    
C38   H24   S    
C11   C16   S    
C53   H74   S    
C79   H127  S    
C47   C48   S    
C13   C15   S    
C23   C34   T    
C62   H84   S    
C40   H45   S    
O8    Zn2   S    
C50   C51   S    
C90   H34   S    
C49   H53   S    
C42   H38   S    
C27   H102  S    
C64   H96   S    
C84   C85   S    
C42   H39   S    
C2    C56   A    
C66   H111  S    
C20   C53   S    
C1    O4    A    
C36   H54   S    
C40   C41   S    
C47   H59   S    
C26   C30   A    
C24   C63   S    
C56   C70   S    
C91   H32   S    
C68   H107  S    
C69   H106  S    
C70   H118  S    
C83   H19   S    
C58   C59   S    
C58   H81   S    
C17   C37   S    
C54   H73   S    
C90   C91   S    
C85   H14   S    
C59   H78   S    
C36   H43   S    
C13   C43   S    
C70   C71   S    
C35   H76   S    
C1    O1    A    
C54   C55   S    
C71   H116  S    
C3    N1    A    
C91   H33   S    
C74   H124  S    
C83   H20   S    
C82   H8    S    
C3    C67   A    
C24   C28   A    
C55   H70   S    
C6    C56   A    
C80   C81   S    
C25   H100  S    
C89   N1    A    
C72   H114  S    
C14   C47   S    
C20   C31   A    
C50   H67   S    
C75   H122  S    
C61   H89   S    
C84   H17   S    
O2    Zn2   S    
C13   C17   S    
C22   C27   A    
O1    Zn1   S    
C64   C65   S    
C88   H23   S    
C39   H109  S    
C62   H86   S    
C52   H61   S    
C24   C31   A    
C55   H71   S    
C71   C72   S    
C4    N2    A    
C92   H29   S    
C76   H4    S    
C79   H128  S    
C38   H13   S    
C48   C49   S    
C1    C30   S    
C33   C35   S    
C75   H121  S    
C39   H120  S    
O6    Zn2   S    
C11   C19   S    
C88   H22   S    
O5    Zn1   S    
C11   C40   S    
C64   H95   S    
C57   H82   S    
C66   H110  S    
C77   H130  S    
C47   H60   S    
C61   H88   S    
C16   C18   S    
C72   H113  S    
C45   C66   S    
C70   H117  S    
C90   H36   S    
C46   H46   S    
C60   C61   S    
C86   H28   S    
C54   H72   S    
C57   C58   S    
C85   H15   S    
C26   H101  S    
C37   H37   S    
C32   C34   S    
C46   H47   S    
C37   H35   S    
C65   H92   S    
