data_mof_unit_33005.cif
_audit_creation_date              2013-03-05T16:24:38-0500
_audit_creation_method            fapswitch 2.2
_symmetry_space_group_name_H-M    P1
_symmetry_Int_Tables_number       1
_space_group_crystal_system       triclinic
_cell_length_a                    21.414768
_cell_length_b                    21.361104
_cell_length_c                    13.859001
_cell_angle_alpha                 89.999831
_cell_angle_beta                  89.99967
_cell_angle_gamma                 89.999851
_cell_volume                      6339.70419148

loop_
_atom_site_label
_atom_site_type_symbol
_atom_site_description
_atom_site_fract_x
_atom_site_fract_y
_atom_site_fract_z
_atom_type_partial_charge
O1    O     O_R   0.064280 0.435730 0.581430 -0.593683
O2    O     O_R   0.935720 0.564270 0.418570 -0.584369
O3    O     O_R   0.935720 0.564270 0.581430 -0.593678
O4    O     O_R   0.064280 0.435730 0.418570 -0.584365
O5    O     O_R   0.935720 0.435730 0.418570 -0.593686
O6    O     O_R   0.064280 0.564270 0.581430 -0.584391
O7    O     O_R   0.064280 0.564270 0.418570 -0.593670
O8    O     O_R   0.935720 0.435730 0.581430 -0.584371
O9    O     O_R   0.564280 0.935730 0.581430 -0.593687
O10   O     O_R   0.435720 0.064270 0.418570 -0.584372
O11   O     O_R   0.435720 0.064270 0.581430 -0.593680
O12   O     O_R   0.564280 0.935730 0.418570 -0.584370
O13   O     O_R   0.435720 0.935730 0.418570 -0.593696
O14   O     O_R   0.564280 0.064270 0.581430 -0.584366
O15   O     O_R   0.564280 0.064270 0.418570 -0.593679
O16   O     O_R   0.435720 0.935730 0.581430 -0.584357
C1    C     C_R   0.085020 0.414948 0.500009 0.845360
C2    C     C_R   0.914978 0.585050 0.500009 0.845349
C3    C     C_R   0.914979 0.414949 0.499991 0.845353
C4    C     C_R   0.085026 0.585046 0.499990 0.845347
C5    C     C_R   0.585020 0.914948 0.500009 0.845356
C6    C     C_R   0.414978 0.085051 0.500010 0.845350
C7    C     C_R   0.414984 0.914944 0.499991 0.845357
C8    C     C_R   0.585021 0.085051 0.499990 0.845354
Cu1   Cu    Cu3+1 0.000000 0.500000 0.596430 0.937182
Cu2   Cu    Cu3+1 0.000000 0.500000 0.403570 0.937191
Cu3   Cu    Cu3+1 0.500000 1.000000 0.596430 0.937191
Cu4   Cu    Cu3+1 0.500000 0.000000 0.403570 0.937182
H1    H     H_    0.025408 0.597966 0.071938 0.132125
H2    H     H_    0.025405 0.402032 0.928062 0.132144
H3    H     H_    0.974592 0.402033 0.071939 0.132141
H4    H     H_    0.974595 0.597967 0.928061 0.132134
H5    H     H_    0.525405 0.097967 0.071938 0.132143
H6    H     H_    0.525407 0.902033 0.928062 0.132147
H7    H     H_    0.474595 0.902033 0.071939 0.132149
H8    H     H_    0.474593 0.097967 0.928061 0.132140
C9    C     C_R   0.778456 0.316995 0.577391 0.451273
C10   C     C_R   0.183229 0.721448 0.422130 0.454410
C11   C     C_R   0.221630 0.682886 0.577372 0.451359
C12   C     C_R   0.816894 0.278458 0.422156 0.454515
C13   C     C_R   0.221537 0.316984 0.422617 0.451273
C14   C     C_R   0.816905 0.721554 0.577827 0.454525
C15   C     C_R   0.778441 0.682987 0.422626 0.451286
C16   C     C_R   0.183073 0.278431 0.577828 0.454571
C17   C     C_R   0.278537 0.816885 0.577397 0.451176
C18   C     C_R   0.683084 0.221562 0.422177 0.454554
C19   C     C_R   0.721557 0.182989 0.577370 0.451298
C20   C     C_R   0.317032 0.778353 0.422193 0.454657
C21   C     C_R   0.721541 0.816991 0.422611 0.451297
C22   C     C_R   0.316885 0.221538 0.577837 0.454512
C23   C     C_R   0.278434 0.182977 0.422624 0.451300
C24   C     C_R   0.683095 0.778449 0.577839 0.454530
C25   C     C_R   0.825845 0.361632 0.578097 -0.293430
C26   C     C_R   0.138486 0.674140 0.421631 -0.296177
C27   C     C_R   0.174200 0.638294 0.578087 -0.293297
C28   C     C_R   0.861592 0.325807 0.421647 -0.295920
C29   C     C_R   0.174156 0.361630 0.421911 -0.293417
C30   C     C_R   0.861604 0.674204 0.578338 -0.295909
C31   C     C_R   0.825830 0.638350 0.421918 -0.293448
C32   C     C_R   0.138384 0.325789 0.578340 -0.295860
C33   C     C_R   0.325883 0.861569 0.578095 -0.293634
C34   C     C_R   0.638388 0.174211 0.421666 -0.295887
C35   C     C_R   0.674170 0.138351 0.578078 -0.293410
C36   C     C_R   0.361684 0.825745 0.421674 -0.295810
C37   C     C_R   0.674154 0.861631 0.421905 -0.293435
C38   C     C_R   0.361590 0.174195 0.578345 -0.295949
C39   C     C_R   0.325830 0.138347 0.421915 -0.293378
C40   C     C_R   0.638400 0.825801 0.578349 -0.295876
H9    H     H_    0.829544 0.393240 0.638994 0.182580
H10   H     H_    0.106909 0.670494 0.360782 0.170424
H11   H     H_    0.170480 0.606687 0.638982 0.182610
H12   H     H_    0.893175 0.329468 0.360807 0.170482
H13   H     H_    0.170468 0.393246 0.361023 0.182579
H14   H     H_    0.893198 0.670555 0.639165 0.170475
H15   H     H_    0.829519 0.606731 0.361034 0.182569
H16   H     H_    0.106792 0.329445 0.639169 0.170493
H17   H     H_    0.329555 0.893184 0.638987 0.182520
H18   H     H_    0.606791 0.170563 0.360842 0.170481
H19   H     H_    0.670485 0.106729 0.638959 0.182574
H20   H     H_    0.393279 0.829415 0.360850 0.170500
H21   H     H_    0.670459 0.893242 0.361012 0.182579
H22   H     H_    0.393179 0.170543 0.639178 0.170471
H23   H     H_    0.329524 0.106731 0.361028 0.182582
H24   H     H_    0.606814 0.829461 0.639186 0.170490
C41   C     C_R   0.866805 0.366773 0.499930 -0.168051
C42   C     C_R   0.133231 0.633190 0.499927 -0.167995
C43   C     C_R   0.133189 0.366768 0.500070 -0.168078
C44   C     C_R   0.866804 0.633225 0.500070 -0.168055
C45   C     C_R   0.366843 0.866737 0.499932 -0.168008
C46   C     C_R   0.633194 0.133227 0.499929 -0.168070
C47   C     C_R   0.633192 0.866770 0.500070 -0.168063
C48   C     C_R   0.366800 0.133222 0.500071 -0.168065
C49   C     C_R   0.013480 0.554664 0.107909 -0.273044
C50   C     C_R   0.013478 0.445336 0.892091 -0.273039
C51   C     C_R   0.986520 0.445336 0.107910 -0.273042
C52   C     C_R   0.986522 0.554664 0.892090 -0.273049
C53   C     C_R   0.513478 0.054664 0.107909 -0.273041
C54   C     C_R   0.513479 0.945336 0.892091 -0.273041
C55   C     C_R   0.486522 0.945336 0.107910 -0.273048
C56   C     C_R   0.486521 0.054664 0.892090 -0.273045
C57   C     C_R   0.774283 0.274334 0.499736 -0.093503
C58   C     C_R   0.225835 0.725547 0.499719 -0.093379
C59   C     C_R   0.225696 0.274314 0.500261 -0.093501
C60   C     C_R   0.774280 0.725662 0.500264 -0.093491
C61   C     C_R   0.274404 0.774214 0.499751 -0.093343
C62   C     C_R   0.725713 0.225668 0.499736 -0.093477
C63   C     C_R   0.725709 0.774327 0.500262 -0.093478
C64   C     C_R   0.274266 0.225648 0.500266 -0.093519
C65   C     C_R   0.012764 0.553753 0.209393 0.090175
C66   C     C_R   0.012763 0.446246 0.790607 0.090175
C67   C     C_R   0.987236 0.446247 0.209393 0.090177
C68   C     C_R   0.987237 0.553754 0.790607 0.090164
C69   C     C_R   0.512763 0.053754 0.209393 0.090172
C70   C     C_R   0.512764 0.946246 0.790607 0.090176
C71   C     C_R   0.487238 0.946246 0.209394 0.090167
C72   C     C_R   0.487236 0.053753 0.790607 0.090172
H25   H     H_    0.022746 0.596339 0.248657 0.119542
H26   H     H_    0.022743 0.403660 0.751343 0.119565
H27   H     H_    0.977254 0.403661 0.248658 0.119559
H28   H     H_    0.977257 0.596340 0.751342 0.119553
H29   H     H_    0.522743 0.096340 0.248657 0.119565
H30   H     H_    0.522745 0.903661 0.751343 0.119568
H31   H     H_    0.477258 0.903660 0.248658 0.119570
H32   H     H_    0.477255 0.096339 0.751342 0.119560
N1    N     N_R   0.000000 0.500000 0.258690 -0.175404
N2    N     N_R   0.000000 0.500000 0.741310 -0.175406
N3    N     N_R   0.500000 0.000000 0.258690 -0.175410
N4    N     N_R   0.500000 0.000000 0.741310 -0.175410
C73   C     C_R   0.000000 0.500000 0.054682 0.129025
C74   C     C_R   0.000000 0.500000 0.945318 0.129022
C75   C     C_R   0.500000 1.000000 0.054682 0.129015
C76   C     C_R   0.500000 0.000000 0.945318 0.129015
O17   O     O_3   0.739043 0.313061 0.656193 -0.524651
C77   C     C_3   0.685099 0.349074 0.637986 0.056898
H33   H     H_    0.655904 0.326328 0.581717 0.118704
H34   H     H_    0.697129 0.397668 0.615094 0.122419
C78   C     C_3   0.646494 0.353058 0.729848 -0.754640
H35   H     H_    0.674032 0.375999 0.787829 0.248836
H36   H     H_    0.603595 0.380920 0.716324 0.183098
H37   H     H_    0.632843 0.305345 0.753766 0.256035
O18   O     O_3   0.187316 0.760849 0.343218 -0.525417
C79   C     C_3   0.151111 0.814812 0.360879 0.053671
H38   H     H_    0.173398 0.844185 0.417413 0.120263
H39   H     H_    0.102554 0.802597 0.383150 0.120509
C80   C     C_3   0.147513 0.853443 0.268909 -0.753120
H40   H     H_    0.125064 0.825713 0.210651 0.246068
H41   H     H_    0.119481 0.896351 0.281993 0.183786
H42   H     H_    0.195192 0.867296 0.245618 0.258185
O19   O     O_3   0.261060 0.686764 0.656161 -0.524619
C81   C     C_3   0.315026 0.650808 0.637837 0.056878
H43   H     H_    0.344243 0.673691 0.581728 0.118802
H44   H     H_    0.303032 0.602259 0.614670 0.122299
C82   C     C_3   0.353579 0.646631 0.729727 -0.754697
H45   H     H_    0.326018 0.623542 0.787543 0.248794
H46   H     H_    0.396499 0.618821 0.716109 0.183105
H47   H     H_    0.367193 0.694294 0.753926 0.256082
O20   O     O_3   0.812883 0.239026 0.343272 -0.525420
C83   C     C_3   0.848949 0.184999 0.361161 0.053628
H48   H     H_    0.826381 0.155594 0.417381 0.120498
H49   H     H_    0.897426 0.197116 0.383967 0.120297
C84   C     C_3   0.852904 0.146466 0.269130 -0.753331
H50   H     H_    0.875667 0.174225 0.211204 0.245979
H51   H     H_    0.880802 0.103496 0.282403 0.183810
H52   H     H_    0.805313 0.132722 0.245278 0.258290
O21   O     O_3   0.260956 0.313051 0.343820 -0.524664
C85   C     C_3   0.314902 0.349057 0.362039 0.056916
H53   H     H_    0.344096 0.326299 0.418300 0.118727
H54   H     H_    0.302878 0.397650 0.384950 0.122423
C86   C     C_3   0.353506 0.353051 0.270178 -0.754628
H55   H     H_    0.325966 0.376000 0.212202 0.248837
H56   H     H_    0.396405 0.380912 0.283708 0.183105
H57   H     H_    0.367156 0.305340 0.246246 0.256030
O22   O     O_3   0.812911 0.761001 0.656695 -0.525419
C87   C     C_3   0.848951 0.815037 0.638746 0.053634
H58   H     H_    0.826343 0.844430 0.582551 0.120530
H59   H     H_    0.897418 0.802933 0.615876 0.120268
C88   C     C_3   0.852948 0.853579 0.730762 -0.753386
H60   H     H_    0.875756 0.825834 0.788659 0.245962
H61   H     H_    0.880821 0.896559 0.717439 0.183813
H62   H     H_    0.805367 0.867307 0.754681 0.258310
O23   O     O_3   0.739014 0.686906 0.343839 -0.524653
C89   C     C_3   0.685076 0.650891 0.362078 0.056919
H63   H     H_    0.655896 0.673633 0.418374 0.118683
H64   H     H_    0.697116 0.602295 0.384955 0.122425
C90   C     C_3   0.646446 0.646913 0.270243 -0.754594
H65   H     H_    0.673969 0.623979 0.212234 0.248829
H66   H     H_    0.603553 0.619045 0.283791 0.183100
H67   H     H_    0.632782 0.694628 0.246345 0.256023
O24   O     O_3   0.187056 0.238981 0.656694 -0.525416
C91   C     C_3   0.151036 0.184936 0.638716 0.053630
H68   H     H_    0.173693 0.155531 0.582582 0.120563
H69   H     H_    0.102584 0.197024 0.615747 0.120231
C92   C     C_3   0.146972 0.146420 0.730751 -0.753414
H70   H     H_    0.124109 0.174177 0.788583 0.245951
H71   H     H_    0.119118 0.103430 0.717405 0.183805
H72   H     H_    0.194536 0.132709 0.754774 0.258316
O25   O     O_3   0.239140 0.812895 0.656212 -0.524671
C93   C     C_3   0.185240 0.849004 0.638160 0.057015
H73   H     H_    0.156075 0.826459 0.581654 0.118547
H74   H     H_    0.197337 0.897661 0.615661 0.122600
C94   C     C_3   0.146557 0.852721 0.729971 -0.754521
H75   H     H_    0.174070 0.875428 0.788209 0.248890
H76   H     H_    0.103706 0.880684 0.716581 0.183084
H77   H     H_    0.132822 0.804940 0.753469 0.255940
O26   O     O_3   0.687071 0.261014 0.343314 -0.525420
C95   C     C_3   0.651041 0.315055 0.361284 0.053652
H78   H     H_    0.673672 0.344448 0.417458 0.120541
H79   H     H_    0.602580 0.302957 0.384195 0.120254
C96   C     C_3   0.647018 0.353592 0.269265 -0.753360
H80   H     H_    0.624185 0.325847 0.211389 0.245952
H81   H     H_    0.619154 0.396577 0.282604 0.183811
H82   H     H_    0.694593 0.367313 0.245304 0.258307
O27   O     O_3   0.760987 0.186904 0.656155 -0.524657
C97   C     C_3   0.814936 0.150911 0.637892 0.056948
H83   H     H_    0.844121 0.173694 0.581641 0.118723
H84   H     H_    0.802914 0.102325 0.614941 0.122388
C98   C     C_3   0.853550 0.146888 0.729740 -0.754630
H85   H     H_    0.826022 0.123909 0.787702 0.248812
H86   H     H_    0.896454 0.119042 0.716172 0.183093
H87   H     H_    0.867194 0.194593 0.753715 0.256035
O28   O     O_3   0.313099 0.738884 0.343343 -0.525381
C99   C     C_3   0.349096 0.684835 0.361412 0.053609
H88   H     H_    0.326363 0.655421 0.417459 0.120613
H89   H     H_    0.397518 0.696916 0.384540 0.120174
C100  C     C_3   0.353283 0.646336 0.269374 -0.753435
H90   H     H_    0.376226 0.674103 0.211630 0.245922
H91   H     H_    0.381116 0.603342 0.282793 0.183819
H92   H     H_    0.305752 0.632633 0.245192 0.258343
O29   O     O_3   0.760957 0.813060 0.343812 -0.524649
C101  C     C_3   0.814901 0.849071 0.362026 0.056927
H93   H     H_    0.844097 0.826318 0.418290 0.118697
H94   H     H_    0.802872 0.897664 0.384931 0.122408
C102  C     C_3   0.853504 0.853064 0.270163 -0.754657
H95   H     H_    0.825964 0.876010 0.212185 0.248833
H96   H     H_    0.896402 0.880926 0.283690 0.183077
H97   H     H_    0.867156 0.805352 0.246233 0.256024
O30   O     O_3   0.312873 0.260976 0.656713 -0.525426
C103  C     C_3   0.348944 0.314999 0.638817 0.053630
H98   H     H_    0.326394 0.344389 0.582559 0.120477
H99   H     H_    0.397428 0.302874 0.616056 0.120315
C104  C     C_3   0.352868 0.353556 0.730826 -0.753285
H100  H     H_    0.375610 0.325812 0.788791 0.245982
H101  H     H_    0.380772 0.396522 0.717548 0.183812
H102  H     H_    0.305268 0.367309 0.754629 0.258280
O31   O     O_3   0.239006 0.186888 0.343836 -0.524652
C105  C     C_3   0.185049 0.150910 0.362115 0.056895
H103  H     H_    0.155854 0.173724 0.418318 0.118758
H104  H     H_    0.197058 0.102335 0.385132 0.122357
C106  C     C_3   0.146457 0.146841 0.270251 -0.754702
H105  H     H_    0.173995 0.123824 0.212341 0.248810
H106  H     H_    0.103544 0.119012 0.283833 0.183097
H107  H     H_    0.132829 0.194533 0.246203 0.256062
O32   O     O_3   0.687099 0.739014 0.656721 -0.525423
C107  C     C_3   0.651059 0.684973 0.638803 0.053645
H108  H     H_    0.673673 0.655566 0.582628 0.120540
H109  H     H_    0.602592 0.697070 0.615919 0.120270
C108  C     C_3   0.647059 0.646456 0.730844 -0.753339
H110  H     H_    0.624248 0.674216 0.788723 0.245962
H111  H     H_    0.619185 0.603473 0.717546 0.183815
H112  H     H_    0.694640 0.632734 0.754776 0.258302

loop_
_geom_bond_atom_site_label_1
_geom_bond_atom_site_label_2
_geom_bond_distance
_ccdc_geom_bond_type
C18   O26   1.382777 S    
C83   H49   1.115613 S    
C26   H10   1.083743 S    
C39   H23   1.083706 S    
O21   C85   1.410646 S    
C96   H80   1.110729 S    
O2    C2    1.291599 A    
C86   H56   1.110547 S    
C86   H55   1.110724 S    
C56   C72   1.406682 A    
C24   O32   1.382775 S    
C25   H9    1.083707 S    
C66   H26   1.081347 S    
C77   C78   1.520353 S    
C80   H40   1.110798 S    
O15   Cu4   1.955220 S    
C65   H25   1.081349 S    
C85   H54   1.115598 S    
C35   H19   1.083706 S    
O26   C95   1.410633 S    
O10   C6    1.291602 A    
C98   H87   1.110941 S    
C78   H36   1.110544 S    
C103  C104  1.520345 S    
O9    Cu3   1.955215 S    
C106  H105  1.110691 S    
C91   H68   1.111382 S    
O7    Cu2   1.955220 S    
C21   C37   1.392525 A    
C18   C34   1.392582 A    
C36   C45   1.398303 A    
C52   C74   1.411019 A    
C23   O31   1.382814 S    
C16   C32   1.392577 A    
C108  H110  1.110724 S    
C100  H91   1.110535 S    
C19   C35   1.392527 A    
O32   C107  1.410633 S    
C87   H58   1.111378 S    
C95   H79   1.115618 S    
C20   C36   1.392564 A    
O6    Cu1   1.955218 S    
C35   C46   1.398215 A    
C20   O28   1.382778 S    
C29   H13   1.083708 S    
O23   C89   1.410640 S    
C100  H92   1.110891 S    
C71   N3    1.363789 A    
O13   C7    1.291373 A    
C101  C102  1.520359 S    
C67   H27   1.081347 S    
C104  H100  1.110741 S    
C94   H75   1.110793 S    
O14   C8    1.291598 A    
C15   C60   1.413035 A    
C107  H109  1.115619 S    
C58   C61   1.470566 S    
C83   C84   1.520344 S    
C80   H41   1.110547 S    
C12   C57   1.412953 A    
C31   C44   1.398219 A    
O19   C81   1.410660 S    
C32   C43   1.398311 A    
O20   C83   1.410624 S    
C11   C27   1.392506 A    
C24   C63   1.412962 A    
C17   C61   1.413030 A    
C23   C64   1.413037 A    
C28   H12   1.083743 S    
C81   C82   1.520340 S    
C13   O21   1.382813 S    
C67   N1    1.363791 A    
C7    C45   1.457130 S    
O13   Cu4   1.955221 S    
C93   H73   1.111439 S    
O14   Cu3   1.955218 S    
C82   H46   1.110535 S    
C102  H95   1.110729 S    
C68   N2    1.363789 A    
C24   C40   1.392581 A    
Cu4   N3    2.007891 S    
C15   C31   1.392527 A    
C9    C25   1.392528 A    
C19   C62   1.413042 A    
O16   Cu3   1.955223 S    
C30   C44   1.398310 A    
C1    C43   1.457137 S    
O31   C105  1.410655 S    
C22   C64   1.412952 A    
O8    Cu1   1.955223 S    
C36   H20   1.083743 S    
C79   C80   1.520377 S    
C14   C30   1.392582 A    
C85   H53   1.111375 S    
C101  H93   1.111385 S    
C94   H76   1.110549 S    
C49   C73   1.411020 A    
C54   C76   1.411022 A    
C102  H97   1.110928 S    
O3    C2    1.291370 A    
C84   H51   1.110532 S    
C16   C59   1.412962 A    
C33   C45   1.398216 A    
C84   H50   1.110718 S    
C105  H104  1.115592 S    
C108  H112  1.110920 S    
C78   H37   1.110912 S    
C103  H99   1.115615 S    
O4    Cu2   1.955216 S    
C106  H106  1.110539 S    
O8    C3    1.291603 A    
C71   H31   1.081349 S    
O22   C87   1.410631 S    
C40   H24   1.083744 S    
C12   O20   1.382772 S    
O3    Cu1   1.955216 S    
C53   C75   1.411019 A    
C21   C63   1.413037 A    
C103  H98   1.111413 S    
C33   H17   1.083706 S    
C68   H28   1.081349 S    
H1    C49   1.081385 S    
C95   H78   1.111401 S    
C90   H67   1.110933 S    
C38   C48   1.398314 A    
C107  C108  1.520344 S    
C12   C28   1.392587 A    
C98   H85   1.110739 S    
O27   C97   1.410644 S    
O12   C5    1.291602 A    
C15   O23   1.382814 S    
C2    C44   1.457136 S    
C29   C43   1.398219 A    
C4    C42   1.457141 S    
C108  H111  1.110540 S    
Cu2   N1    2.007891 S    
C99   H89   1.115609 S    
Cu1   N2    2.007891 S    
O28   C99   1.410645 S    
C16   O24   1.382777 S    
C38   H22   1.083743 S    
C70   N4    1.363790 A    
Cu3   N4    2.007891 S    
C37   H21   1.083706 S    
C20   C61   1.412981 A    
C10   C26   1.392612 A    
O11   Cu3   1.955216 S    
C40   C47   1.398313 A    
C88   H62   1.110901 S    
C93   C94   1.520383 S    
C92   H71   1.110536 S    
C100  H90   1.110694 S    
O24   C91   1.410639 S    
H8    C56   1.081387 S    
C23   C39   1.392523 A    
C82   H47   1.110897 S    
C101  H94   1.115606 S    
H7    C55   1.081386 S    
C87   C88   1.520339 S    
C59   C64   1.470546 S    
C66   N2    1.363791 A    
C69   N3    1.363788 A    
O4    C1    1.291600 A    
C65   N1    1.363788 A    
O15   C8    1.291371 A    
H4    C52   1.081386 S    
O12   Cu4   1.955216 S    
O7    C4    1.291367 A    
O16   C7    1.291594 A    
C32   H16   1.083742 S    
O17   C77   1.410646 S    
C10   O18   1.382770 S    
C79   H39   1.115622 S    
C91   C92   1.520338 S    
C90   H66   1.110541 S    
C53   C69   1.406682 A    
C75   C76   1.515666 S    
C50   C74   1.411019 A    
C31   H15   1.083708 S    
C84   H52   1.110915 S    
O6    C4    1.291606 A    
C80   H42   1.110973 S    
C30   H14   1.083743 S    
C11   C58   1.413057 A    
C26   C42   1.398314 A    
C73   C74   1.515666 S    
C5    C47   1.457139 S    
O10   Cu4   1.955215 S    
C57   C62   1.470553 S    
C37   C47   1.398218 A    
C105  H103  1.111348 S    
C96   H81   1.110541 S    
C106  H107  1.110902 S    
C91   H69   1.115613 S    
C72   H32   1.081348 S    
C89   H64   1.115609 S    
C97   H83   1.111392 S    
C88   H60   1.110702 S    
C34   H18   1.083744 S    
C22   O30   1.382771 S    
C3    C41   1.457147 S    
C14   O22   1.382774 S    
C14   C60   1.412960 A    
O2    Cu2   1.955215 S    
C99   C100  1.520330 S    
C28   C41   1.398315 A    
C77   H34   1.115592 S    
O1    Cu1   1.955215 S    
C77   H33   1.111357 S    
O5    C3    1.291372 A    
C94   H77   1.110975 S    
C98   H86   1.110544 S    
C22   C38   1.392589 A    
C78   H35   1.110702 S    
C11   O19   1.382817 S    
O11   C6    1.291370 A    
O1    C1    1.291371 A    
O29   C101  1.410646 S    
C55   C75   1.411020 A    
C8    C46   1.457138 S    
C104  H102  1.110926 S    
C107  H108  1.111398 S    
C25   C41   1.398222 A    
Cu1   Cu2   2.672848 S    
C97   H84   1.115619 S    
C50   C66   1.406682 A    
C10   C58   1.412941 A    
C51   C67   1.406682 A    
C56   C76   1.411018 A    
C92   H72   1.110904 S    
C9    C57   1.413035 A    
C95   C96   1.520346 S    
O9    C5    1.291371 A    
C90   H65   1.110731 S    
C83   H48   1.111395 S    
C27   C42   1.398217 A    
H3    C51   1.081385 S    
O30   C103  1.410625 S    
C34   C46   1.398309 A    
C55   C71   1.406682 A    
C17   C33   1.392548 A    
C39   C48   1.398220 A    
H6    C54   1.081385 S    
C88   H61   1.110538 S    
C19   O27   1.382815 S    
C81   H44   1.115597 S    
C97   C98   1.520368 S    
C21   O29   1.382814 S    
O25   C93   1.410605 S    
C99   H88   1.111366 S    
C9    O17   1.382814 S    
C87   H59   1.115602 S    
C54   C70   1.406682 A    
C18   C62   1.412965 A    
C13   C29   1.392529 A    
O5    Cu2   1.955221 S    
C70   H30   1.081348 S    
C13   C59   1.413036 A    
C69   H29   1.081349 S    
C85   C86   1.520350 S    
H2    C50   1.081388 S    
C92   H70   1.110703 S    
C72   N4    1.363789 A    
C102  H96   1.110543 S    
Cu3   Cu4   2.672848 S    
C51   C73   1.411020 A    
C6    C48   1.457139 S    
C79   H38   1.111473 S    
C93   H74   1.115617 S    
C86   H57   1.110919 S    
H5    C53   1.081387 S    
C104  H101  1.110545 S    
C82   H45   1.110685 S    
O18   C79   1.410583 S    
C17   O25   1.382810 S    
C96   H82   1.110917 S    
C89   C90   1.520362 S    
C60   C63   1.470549 S    
C27   H11   1.083710 S    
C52   C68   1.406682 A    
C89   H63   1.111385 S    
C49   C65   1.406682 A    
C81   H43   1.111340 S    
C105  C106  1.520345 S    
