data_mof_unit_57425.cif
_audit_creation_date              2012-12-10T16:50:02-0500
_audit_creation_method            fapswitch 2.2
_symmetry_space_group_name_H-M    P1
_symmetry_Int_Tables_number       1
_space_group_crystal_system       triclinic
_cell_length_a                    7.812682
_cell_length_b                    8.564729
_cell_length_c                    10.596851
_cell_angle_alpha                 91.32961
_cell_angle_beta                  85.796583
_cell_angle_gamma                 93.350321
_cell_volume                      705.828981401

loop_
_atom_site_label
_atom_site_type_symbol
_atom_type_description
_atom_site_fract_x
_atom_site_fract_y
_atom_site_fract_z
_atom_type_partial_charge
C1    C     C_R   0.545284 0.794412 0.497424 0.925075
C2    C     C_R   0.454554 0.205505 0.503171 0.950210
C3    C     C_R   0.498644 0.502489 0.260811 0.845840
C4    C     C_R   0.421681 0.788788 0.878080 -0.180899
C5    C     C_R   0.378156 0.921998 0.948771 -0.136467
C6    C     C_R   0.372731 0.920408 0.080335 -0.145246
C7    C     C_R   0.410832 0.785603 0.141607 -0.171520
C8    C     C_R   0.454305 0.649253 0.071263 0.097781
C9    C     C_3   0.948553 0.243655 0.344035 -0.106528
C10   C     C_R   0.459887 0.650914 0.938889 0.093184
C11   C     C_R   0.507823 0.514590 0.871336 -0.084156
C12   C     C_R   0.555064 0.382110 0.930308 -0.210008
C13   C     C_R   0.549703 0.380469 0.059403 -0.209928
C14   C     C_R   0.497276 0.511349 0.128673 -0.074517
C15   C     C_2   0.568823 0.957718 0.497660 -0.390896
C16   C     C_2   0.430263 0.042045 0.504205 -0.397720
C17   C     C_R   0.502522 0.504137 0.739164 0.850971
H1    H     H_    0.592086 0.278798 0.876218 0.148163
H2    H     H_    0.825563 0.259921 0.301790 0.175175
H3    H     H_    0.930063 0.173140 0.431144 0.128369
H4    H     H_    0.029056 0.176705 0.273891 0.122131
H5    H     H_    0.986222 0.606563 0.603683 0.144621
H6    H     H_    0.427476 0.795576 0.776073 0.141318
H7    H     H_    0.349747 0.027028 0.901310 0.139478
H8    H     H_    0.340051 0.024193 0.135065 0.134859
H9    H     H_    0.407612 0.790011 0.243737 0.145887
H10   H     H_    0.584656 0.276476 0.105745 0.138416
H11   H     H_    0.699742 0.007841 0.493172 0.168579
H12   H     H_    0.298923 0.991591 0.509545 0.180839
N1    N     N_2   0.950330 0.457950 0.466250 0.124257
N2    N     N_2   0.049670 0.542050 0.533750 -0.088223
O1    O     O_R   0.389250 0.738570 0.508280 -0.629119
O2    O     O_R   0.678390 0.711630 0.486650 -0.634481
O3    O     O_R   0.355400 0.513470 0.694050 -0.623530
O4    O     O_R   0.644540 0.486530 0.672420 -0.636491
O5    O     O_R   0.321610 0.288370 0.513350 -0.589811
O6    O     O_R   0.610750 0.261430 0.491720 -0.645115
O7    O     O_R   0.355460 0.513470 0.327580 -0.558145
O8    O     O_R   0.644600 0.486530 0.305950 -0.619436
O9    O     O_3   0.036081 0.387333 0.368113 -0.483799
Zn1   Zn    Zn3+2 0.306930 0.517990 0.514440 0.997500
Zn2   Zn    Zn3+2 0.693070 0.482010 0.485560 0.963383

loop_
_geom_bond_atom_site_label_1
_geom_bond_atom_site_label_2
_ccdc_geom_bond_type
C17   O3    A    
O1    Zn1   S    
C6    C7    A    
C1    C15   S    
C2    C16   S    
C9    H3    S    
C11   C12   A    
C5    H7    S    
C15   H11   S    
C3    O8    A    
C7    C8    A    
N2    Zn1   S    
C13   C14   A    
O3    Zn1   S    
C2    O6    A    
C9    H4    S    
O5    Zn1   S    
C5    C6    A    
C3    C14   S    
C7    H9    S    
O2    Zn2   S    
O8    Zn2   S    
C9    O9    S    
N1    N2    D    
C6    H8    S    
H5    N2    S    
C1    O2    A    
C15   C16   D    
N1    O9    S    
C2    O5    A    
C12   C13   A    
O7    Zn1   S    
C8    C10   A    
C10   C11   A    
C12   H1    S    
O6    Zn2   S    
C4    H6    S    
O4    Zn2   S    
N1    Zn2   S    
C8    C14   A    
C17   O4    A    
C16   H12   S    
C4    C10   A    
C9    H2    S    
C1    O1    A    
C13   H10   S    
C3    O7    A    
C4    C5    A    
C11   C17   S    
