data_mof_unit_21986.cif
_audit_creation_date              2012-12-11T15:22:16-0500
_audit_creation_method            fapswitch 2.2
_symmetry_space_group_name_H-M    P1
_symmetry_Int_Tables_number       1
_space_group_crystal_system       triclinic
_cell_length_a                    22.441033
_cell_length_b                    13.005066
_cell_length_c                    27.033765
_cell_angle_alpha                 90.215953
_cell_angle_beta                  90.612779
_cell_angle_gamma                 90.081408
_cell_volume                      7889.21064793

loop_
_atom_site_label
_atom_site_type_symbol
_atom_type_description
_atom_site_fract_x
_atom_site_fract_y
_atom_site_fract_z
_atom_type_partial_charge
C1    C     C_R   0.719642 0.342577 0.177461 0.527412
C2    C     C_R   0.279399 0.345146 0.821821 0.537707
C3    C     C_R   0.219642 0.842578 0.177461 0.526876
C4    C     C_R   0.779399 0.845147 0.821821 0.538367
C5    C     C_R   0.477537 0.168820 0.869798 0.011437
C6    C     C_R   0.540300 0.159032 0.123394 -0.004560
C7    C     C_R   0.977534 0.668819 0.869800 0.012184
C8    C     C_R   0.040295 0.659031 0.123396 -0.004251
C9    C     C_R   0.514110 0.246714 0.102562 -0.206518
C10   C     C_R   0.465802 0.256063 0.899041 -0.187854
C11   C     C_R   0.014107 0.746715 0.102563 -0.207543
C12   C     C_R   0.965800 0.756062 0.899042 -0.187398
C13   C     C_R   0.504352 0.251881 0.051378 -0.005039
C14   C     C_R   0.481605 0.257718 0.949032 0.004239
C15   C     C_R   0.004349 0.751881 0.051380 -0.004907
C16   C     C_R   0.981602 0.757717 0.949034 0.004299
C17   C     C_R   0.522002 0.168972 0.020882 0.006296
C18   C     C_R   0.510941 0.172113 0.969670 0.011806
C19   C     C_R   0.021997 0.668970 0.020884 0.006325
C20   C     C_R   0.010936 0.672112 0.969672 0.011717
C21   C     C_R   0.477027 0.338157 0.030109 -0.096490
C22   C     C_R   0.465561 0.340949 0.979261 -0.092927
C23   C     C_R   0.977026 0.838158 0.030110 -0.096767
C24   C     C_R   0.965560 0.840950 0.979262 -0.092781
C25   C     C_R   0.734514 0.979297 0.126266 0.007861
C26   C     C_R   0.257756 0.953511 0.868801 -0.034364
C27   C     C_R   0.234514 0.479299 0.126266 0.007956
C28   C     C_R   0.757756 0.453509 0.868800 -0.034999
C29   C     C_R   0.745240 0.061228 0.094009 -0.066571
C30   C     C_R   0.206556 0.980584 0.895150 -0.074653
C31   C     C_R   0.245241 0.561230 0.094008 -0.066723
C32   C     C_R   0.706557 0.480587 0.895150 -0.075651
C33   C     C_R   0.743612 0.046373 0.043275 0.366994
C34   C     C_R   0.201271 0.955112 0.944725 0.363480
C35   C     C_R   0.243613 0.546376 0.043274 0.367244
C36   C     C_R   0.701272 0.455114 0.944725 0.363330
C37   C     C_R   0.733347 0.947742 0.023701 0.026053
C38   C     C_R   0.246647 0.899177 0.968812 0.048600
C39   C     C_R   0.233346 0.447745 0.023700 0.026056
C40   C     C_R   0.746647 0.399174 0.968811 0.048630
C41   C     C_R   0.720909 0.865793 0.055955 -0.166632
C42   C     C_R   0.296411 0.866922 0.941848 -0.146814
C43   C     C_R   0.220906 0.365797 0.055954 -0.166582
C44   C     C_R   0.796409 0.366915 0.941846 -0.146960
C45   C     C_R   0.557314 0.156250 0.175882 0.569056
C46   C     C_R   0.446781 0.158012 0.822005 0.580552
C47   C     C_R   0.057311 0.656250 0.175883 0.563766
C48   C     C_R   0.946780 0.658012 0.822006 0.585782
C49   C     C_R   0.720529 0.881970 0.107168 -0.099364
C50   C     C_R   0.302032 0.894108 0.892172 -0.144049
C51   C     C_R   0.220527 0.381973 0.107167 -0.098495
C52   C     C_R   0.802029 0.394101 0.892170 -0.144520
C53   C     C_R   0.700470 0.866166 0.943782 -0.118796
C54   C     C_R   0.291600 0.895543 0.054336 -0.105147
C55   C     C_R   0.200469 0.366170 0.943782 -0.118781
C56   C     C_R   0.791601 0.395534 0.054335 -0.105202
C57   C     C_R   0.710590 0.843985 0.893989 -0.105039
C58   C     C_R   0.285158 0.884776 0.105552 -0.128928
C59   C     C_R   0.210590 0.343987 0.893989 -0.104522
C60   C     C_R   0.785159 0.384769 0.105551 -0.129655
C61   C     C_R   0.798803 0.951864 0.896328 -0.131223
C62   C     C_R   0.181259 0.839862 0.092572 -0.115484
C63   C     C_R   0.298803 0.451864 0.896328 -0.130735
C64   C     C_R   0.681258 0.339865 0.092572 -0.115282
C65   C     C_R   0.789068 0.972922 0.945891 -0.067509
C66   C     C_R   0.188066 0.847231 0.041893 -0.005357
C67   C     C_R   0.289068 0.472923 0.945890 -0.067330
C68   C     C_R   0.688064 0.347233 0.041893 -0.005409
C69   C     C_R   0.740226 0.929610 0.970247 0.060228
C70   C     C_R   0.242613 0.878523 0.022272 0.098515
C71   C     C_R   0.240225 0.429614 0.970246 0.060262
C72   C     C_R   0.742613 0.378520 0.022271 0.098601
C73   C     C_R   0.760754 0.884795 0.870224 0.024223
C74   C     C_R   0.229307 0.860002 0.124810 0.019012
C75   C     C_R   0.260754 0.384796 0.870224 0.024933
C76   C     C_R   0.729307 0.360000 0.124810 0.018827
C77   C     C_R   0.537689 0.165085 0.373919 0.038262
C78   C     C_R   0.473736 0.166431 0.629616 0.030704
C79   C     C_R   0.025851 0.667196 0.370286 0.029331
C80   C     C_R   0.962221 0.664545 0.626126 0.039011
C81   C     C_R   0.504273 0.246952 0.393117 0.386284
C82   C     C_R   0.485375 0.262176 0.607327 0.389355
C83   C     C_R   0.016508 0.763046 0.393531 0.388087
C84   C     C_R   0.997352 0.744549 0.607401 0.388381
C85   C     C_R   0.493826 0.252374 0.444113 -0.075922
C86   C     C_R   0.500857 0.266557 0.557397 -0.074880
C87   C     C_R   0.000862 0.767138 0.443442 -0.074977
C88   C     C_R   0.007635 0.750123 0.556406 -0.075157
C89   C     C_R   0.730790 0.003788 0.178819 0.537668
C90   C     C_R   0.268558 0.001868 0.820578 0.543279
C91   C     C_R   0.230790 0.503789 0.178819 0.540304
C92   C     C_R   0.768558 0.501868 0.820578 0.540864
C93   C     C_R   0.518262 0.177836 0.476090 -0.024886
C94   C     C_R   0.504494 0.175906 0.529264 -0.024213
C95   C     C_R   0.994718 0.676095 0.470651 -0.023745
C96   C     C_R   0.981324 0.677730 0.523943 -0.024978
C97   C     C_R   0.553794 0.099530 0.456576 -0.137160
C98   C     C_R   0.494523 0.080863 0.552120 -0.137158
C99   C     C_R   0.002107 0.581061 0.446783 -0.136728
C100  C     C_R   0.944157 0.601351 0.543048 -0.136880
C101  C     C_R   0.562346 0.092221 0.406226 -0.176534
C102  C     C_R   0.480287 0.076084 0.601694 -0.178732
C103  C     C_R   0.016562 0.576648 0.397204 -0.180507
C104  C     C_R   0.935708 0.593830 0.593409 -0.176887
C105  C     C_R   0.743003 0.950857 0.370140 0.029867
C106  C     C_R   0.259427 0.954809 0.628505 0.031706
C107  C     C_R   0.240710 0.455267 0.371443 0.030411
C108  C     C_R   0.756715 0.449314 0.630129 0.030414
C109  C     C_R   0.694848 0.904546 0.394127 -0.203078
C110  C     C_R   0.310060 0.921488 0.602934 -0.192262
C111  C     C_R   0.190301 0.420438 0.396827 -0.192071
C112  C     C_R   0.804872 0.403320 0.605975 -0.203700
C113  C     C_R   0.697413 0.887998 0.444681 -0.154139
C114  C     C_R   0.307295 0.906264 0.552374 -0.147632
C115  C     C_R   0.193202 0.404454 0.447314 -0.147154
C116  C     C_R   0.802235 0.386763 0.555394 -0.154852
C117  C     C_R   0.749162 0.913379 0.471558 -0.024749
C118  C     C_R   0.253496 0.921106 0.526800 -0.026715
C119  C     C_R   0.246886 0.420382 0.473017 -0.026924
C120  C     C_R   0.750339 0.411454 0.528710 -0.024720
C121  C     C_R   0.799948 0.947056 0.446545 -0.067649
C122  C     C_R   0.201464 0.944301 0.552847 -0.066208
C123  C     C_R   0.298709 0.445450 0.447117 -0.067402
C124  C     C_R   0.699443 0.444036 0.553943 -0.066100
C125  C     C_R   0.797062 0.965944 0.396040 0.425994
C126  C     C_R   0.204278 0.961403 0.603594 0.430713
C127  C     C_R   0.295785 0.463066 0.396464 0.427706
C128  C     C_R   0.702453 0.463198 0.604474 0.428700
C129  C     C_R   0.779750 0.979622 0.554655 -0.131547
C130  C     C_R   0.218715 0.982748 0.444581 -0.128641
C131  C     C_R   0.280997 0.482293 0.555684 -0.128715
C132  C     C_R   0.719236 0.478201 0.446128 -0.131896
C133  C     C_R   0.721076 0.346341 0.322223 0.580041
C134  C     C_R   0.278768 0.346773 0.678037 0.584851
C135  C     C_R   0.221289 0.847141 0.321890 0.581615
C136  C     C_R   0.778927 0.846139 0.677781 0.584029
C137  C     C_R   0.785575 0.966415 0.605774 0.044906
C138  C     C_R   0.212585 0.968503 0.393570 0.051485
C139  C     C_R   0.287023 0.468036 0.606667 0.051144
C140  C     C_R   0.713590 0.465708 0.394920 0.044334
C141  C     C_R   0.725792 0.810300 0.598897 0.344240
C142  C     C_R   0.278962 0.820560 0.399256 0.345361
C143  C     C_R   0.222371 0.317605 0.600068 0.346017
C144  C     C_R   0.775039 0.311729 0.400667 0.343553
C145  C     C_R   0.721534 0.823132 0.548286 -0.087151
C146  C     C_R   0.283744 0.834599 0.449775 -0.085042
C147  C     C_R   0.217593 0.331814 0.549575 -0.084851
C148  C     C_R   0.778964 0.323631 0.451359 -0.087560
C149  C     C_R   0.749998 0.905621 0.525602 -0.044181
C150  C     C_R   0.252014 0.913035 0.472933 -0.043860
C151  C     C_R   0.248467 0.411670 0.526878 -0.043656
C152  C     C_R   0.749584 0.404602 0.474638 -0.044491
C153  C     C_R   0.760629 0.878623 0.627952 0.064208
C154  C     C_R   0.240390 0.883438 0.370962 0.063515
C155  C     C_R   0.259917 0.382019 0.628835 0.065919
C156  C     C_R   0.739381 0.379130 0.372122 0.061621
C157  C     C_R   0.555404 0.158620 0.322051 0.580321
C158  C     C_R   0.445645 0.158664 0.678398 0.569737
C159  C     C_R   0.054321 0.658869 0.321613 0.562585
C160  C     C_R   0.944685 0.658451 0.678007 0.588254
C161  C     C_R   0.732257 0.000910 0.322499 0.569813
C162  C     C_R   0.268130 0.001585 0.677181 0.578044
C163  C     C_R   0.231848 0.501825 0.322850 0.574392
C164  C     C_R   0.767657 0.500508 0.677603 0.573032
C165  C     C_R   0.558247 0.076924 0.092581 0.359527
C166  C     C_R   0.510764 0.087031 0.889422 0.368108
C167  C     C_R   0.058240 0.576921 0.092583 0.359868
C168  C     C_R   0.010759 0.587028 0.889424 0.369089
C169  C     C_R   0.549565 0.081819 0.041613 0.030787
C170  C     C_R   0.527195 0.087871 0.939445 0.031022
C171  C     C_R   0.049558 0.581816 0.041615 0.030609
C172  C     C_R   0.027189 0.587868 0.939447 0.030839
C173  C     C_R   0.556795 0.003606 0.960365 -0.112265
C174  C     C_R   0.567925 0.000594 0.011034 -0.111522
C175  C     C_R   0.056788 0.503602 0.960367 -0.112078
C176  C     C_R   0.067916 0.500589 0.011036 -0.111681
Cr1   Cr    Cr6+3 0.756570 0.170940 0.251190 1.115101
Cr2   Cr    Cr6+3 0.243430 0.170940 0.748810 1.127360
Cr3   Cr    Cr6+3 0.256570 0.670940 0.251190 1.120512
Cr4   Cr    Cr6+3 0.743430 0.670940 0.748810 1.122918
Cr5   Cr    Cr6+3 0.623740 0.299110 0.249580 1.088044
Cr6   Cr    Cr6+3 0.376260 0.299110 0.750420 1.099053
Cr7   Cr    Cr6+3 0.123740 0.799110 0.249580 1.098231
Cr8   Cr    Cr6+3 0.876260 0.799110 0.750420 1.087651
Cr9   Cr    Cr6+3 0.625990 0.036240 0.250480 1.072847
Cr10  Cr    Cr6+3 0.374010 0.036240 0.749520 1.060274
Cr11  Cr    Cr6+3 0.125990 0.536240 0.250480 1.070268
Cr12  Cr    Cr6+3 0.874010 0.536240 0.749520 1.062698
H1    H     H_    0.838198 0.983694 0.879327 0.135443
H2    H     H_    0.138464 0.815902 0.106660 0.130655
H3    H     H_    0.338199 0.483693 0.879327 0.135476
H4    H     H_    0.638462 0.315910 0.106660 0.130459
H5    H     H_    0.712749 0.789129 0.041632 0.137359
H6    H     H_    0.331518 0.822825 0.959519 0.147292
H7    H     H_    0.212745 0.289134 0.041631 0.137417
H8    H     H_    0.831515 0.322813 0.959516 0.147229
H9    H     H_    0.710308 0.818890 0.131713 0.138762
H10   H     H_    0.342110 0.872484 0.872769 0.160513
H11   H     H_    0.210304 0.318893 0.131712 0.139676
H12   H     H_    0.842107 0.372474 0.872767 0.160351
H13   H     H_    0.495681 0.009641 0.531273 0.131324
H14   H     H_    0.575086 0.043218 0.480289 0.131566
H15   H     H_    0.921430 0.546827 0.519016 0.131260
H16   H     H_    0.998914 0.509402 0.466854 0.131684
H17   H     H_    0.471108 0.001183 0.617285 0.152852
H18   H     H_    0.590282 0.030878 0.392680 0.144179
H19   H     H_    0.906414 0.534246 0.606698 0.143005
H20   H     H_    0.023767 0.501603 0.380829 0.152743
H21   H     H_    0.465981 0.313355 0.458382 0.140272
H22   H     H_    0.509389 0.340596 0.540678 0.141403
H23   H     H_    0.994292 0.841281 0.460898 0.140749
H24   H     H_    0.036787 0.809553 0.542510 0.140348
H25   H     H_    0.653348 0.888833 0.374731 0.143946
H26   H     H_    0.353169 0.915314 0.621090 0.150051
H27   H     H_    0.147256 0.413358 0.378598 0.150476
H28   H     H_    0.846506 0.388345 0.625220 0.145291
H29   H     H_    0.799688 0.046465 0.537615 0.125778
H30   H     H_    0.196273 0.046744 0.462131 0.127760
H31   H     H_    0.302848 0.547182 0.538513 0.127801
H32   H     H_    0.698679 0.544105 0.463642 0.126093
H33   H     H_    0.569957 0.938613 0.937847 0.177445
H34   H     H_    0.589906 0.933523 0.026270 0.178388
H35   H     H_    0.069949 0.438608 0.937851 0.177580
H36   H     H_    0.089896 0.433517 0.026273 0.178292
H37   H     H_    0.657738 0.860787 0.462969 0.125195
H38   H     H_    0.348010 0.888250 0.533028 0.130028
H39   H     H_    0.152658 0.384937 0.466550 0.131089
H40   H     H_    0.842021 0.360401 0.536965 0.125090
H41   H     H_    0.698273 0.765119 0.526639 0.141068
H42   H     H_    0.310054 0.780405 0.471066 0.143577
H43   H     H_    0.191949 0.276826 0.527921 0.142727
H44   H     H_    0.802762 0.265995 0.472548 0.141715
H45   H     H_    0.841276 0.962069 0.466365 0.138791
H46   H     H_    0.159059 0.952041 0.533703 0.139011
H47   H     H_    0.341043 0.454152 0.466324 0.139392
H48   H     H_    0.657988 0.458310 0.534269 0.138415
H49   H     H_    0.440322 0.319655 0.883942 0.143057
H50   H     H_    0.501719 0.310694 0.126119 0.140883
H51   H     H_    0.940321 0.819656 0.883943 0.143210
H52   H     H_    0.001718 0.810696 0.126121 0.139041
H53   H     H_    0.442962 0.407186 0.963737 0.111293
H54   H     H_    0.463541 0.402585 0.052902 0.122983
H55   H     H_    0.942962 0.907188 0.963738 0.111370
H56   H     H_    0.963541 0.902587 0.052903 0.122422
H57   H     H_    0.753237 0.138077 0.108200 0.147423
H58   H     H_    0.171959 0.027267 0.878355 0.165240
H59   H     H_    0.253240 0.638078 0.108201 0.147171
H60   H     H_    0.671961 0.527273 0.878356 0.164632
H61   H     H_    0.662492 0.832015 0.961876 0.114434
H62   H     H_    0.334258 0.919344 0.039899 0.112015
H63   H     H_    0.162490 0.332021 0.961875 0.114413
H64   H     H_    0.834260 0.419330 0.039898 0.111741
H65   H     H_    0.680785 0.791317 0.874849 0.148511
H66   H     H_    0.323031 0.897545 0.129977 0.126190
H67   H     H_    0.180785 0.291319 0.874849 0.148863
H68   H     H_    0.823032 0.397533 0.129975 0.124767
H69   H     H_    0.821414 0.019761 0.965707 0.156939
H70   H     H_    0.150349 0.829353 0.018009 0.175775
H71   H     H_    0.321415 0.519762 0.965707 0.156992
H72   H     H_    0.650346 0.329358 0.018009 0.175551
O1    O     O_R   0.769900 0.064540 0.196060 -0.523747
O2    O     O_R   0.230100 0.064540 0.803940 -0.517989
O3    O     O_R   0.269900 0.564540 0.196060 -0.521214
O4    O     O_R   0.730100 0.564540 0.803940 -0.519990
O5    O     O_R   0.574760 0.239320 0.300850 -0.449783
O6    O     O_R   0.425240 0.239320 0.699150 -0.430623
O7    O     O_R   0.074760 0.739320 0.300850 -0.429198
O8    O     O_R   0.925240 0.739320 0.699150 -0.452416
O9    O     O_R   0.566290 0.069580 0.305400 -0.531062
O10   O     O_R   0.433710 0.069580 0.694600 -0.530890
O11   O     O_R   0.066290 0.569580 0.305400 -0.539611
O12   O     O_R   0.933710 0.569580 0.694600 -0.520965
O13   O     O_R   0.680760 0.993330 0.302620 -0.539073
O14   O     O_R   0.319240 0.993330 0.697380 -0.533769
O15   O     O_R   0.180760 0.493330 0.302620 -0.535892
O16   O     O_R   0.819240 0.493330 0.697380 -0.536774
O17   O     O_3   0.668770 0.168760 0.250420 -0.293461
O18   O     O_3   0.331230 0.168760 0.749580 -0.291627
O19   O     O_3   0.168770 0.668760 0.250420 -0.294139
O20   O     O_3   0.831230 0.668760 0.749580 -0.290639
O21   O     O_R   0.750800 0.274080 0.199250 -0.511089
O22   O     O_R   0.249200 0.274080 0.800750 -0.507611
O23   O     O_R   0.250800 0.774080 0.199250 -0.511328
O24   O     O_R   0.749200 0.774080 0.800750 -0.507291
O25   O     O_R   0.669990 0.371670 0.194150 -0.509619
O26   O     O_R   0.330010 0.371670 0.805850 -0.523298
O27   O     O_R   0.169990 0.871670 0.194150 -0.510308
O28   O     O_R   0.830010 0.871670 0.805850 -0.522748
O29   O     O_R   0.574600 0.238480 0.197800 -0.517412
O30   O     O_R   0.425400 0.238480 0.802200 -0.520660
O31   O     O_R   0.074600 0.738480 0.197800 -0.521062
O32   O     O_R   0.925400 0.738480 0.802200 -0.517411
O33   O     O_R   0.566130 0.068680 0.194240 -0.430378
O34   O     O_R   0.433870 0.068680 0.805760 -0.440980
O35   O     O_R   0.066130 0.568680 0.194240 -0.432460
O36   O     O_R   0.933870 0.568680 0.805760 -0.439904
O37   O     O_R   0.680610 0.992490 0.199570 -0.458516
O38   O     O_R   0.319390 0.992490 0.800430 -0.501614
O39   O     O_R   0.180610 0.492490 0.199570 -0.458243
O40   O     O_R   0.819390 0.492490 0.800430 -0.502174
O41   O     O_R   0.770060 0.065440 0.307230 -0.385787
O42   O     O_R   0.229940 0.065440 0.692770 -0.388301
O43   O     O_R   0.270060 0.565440 0.307230 -0.389705
O44   O     O_R   0.729940 0.565440 0.692770 -0.384366
O45   O     O_R   0.750960 0.274920 0.302300 -0.440666
O46   O     O_R   0.249040 0.274920 0.697700 -0.440840
O47   O     O_R   0.250960 0.774920 0.302300 -0.442125
O48   O     O_R   0.749040 0.774920 0.697700 -0.439246
O49   O     O_R   0.670160 0.372580 0.305320 -0.478950
O50   O     O_R   0.329840 0.372580 0.694680 -0.465041
O51   O     O_R   0.170160 0.872580 0.305320 -0.462069
O52   O     O_R   0.829840 0.872580 0.694680 -0.481022
F1    F     F_    0.524268 0.004531 0.860583 -0.623092
F2    F     F_    0.586539 0.993367 0.111762 -0.628559
F3    F     F_    0.024263 0.504528 0.860586 -0.621162
F4    F     F_    0.086531 0.493362 0.111764 -0.628718
F5    F     F_    0.481216 0.319944 0.362739 -0.585039
F6    F     F_    0.480057 0.351411 0.633098 -0.593366
F7    F     F_    0.024461 0.852577 0.368796 -0.597421
F8    F     F_    0.022203 0.815557 0.638237 -0.581276
N1    N     N_3   0.817876 0.040747 0.634726 -0.588880
H73   H     H_    0.797437 0.112248 0.629804 0.233069
H74   H     H_    0.861062 0.045782 0.620779 0.253910
N2    N     N_3   0.176879 0.038583 0.365245 -0.578527
H75   H     H_    0.194556 0.112431 0.370063 0.228963
H76   H     H_    0.133872 0.038400 0.379764 0.270506
N3    N     N_3   0.321862 0.539236 0.635440 -0.578277
H77   H     H_    0.303474 0.612472 0.630879 0.231353
H78   H     H_    0.364945 0.540612 0.621088 0.267478
N4    N     N_3   0.680595 0.539436 0.366515 -0.589686
H79   H     H_    0.700338 0.611528 0.371989 0.231164
H80   H     H_    0.637357 0.542761 0.380472 0.255460
F9    F     F_    0.699656 0.725570 0.618330 -0.580132
F10   F     F_    0.308417 0.739520 0.379272 -0.581045
F11   F     F_    0.193933 0.235163 0.619582 -0.582002
F12   F     F_    0.802363 0.228572 0.380632 -0.578509
F13   F     F_    0.845938 0.004516 0.373424 -0.555528
F14   F     F_    0.153994 0.989553 0.627594 -0.544337
F15   F     F_    0.345905 0.492758 0.372687 -0.546141
F16   F     F_    0.653551 0.501147 0.627337 -0.553480
F17   F     F_    0.751515 0.128774 0.013337 -0.664093
F18   F     F_    0.153632 0.991710 0.969827 -0.653636
F19   F     F_    0.251517 0.628777 0.013337 -0.663854
F20   F     F_    0.653634 0.491716 0.969828 -0.653832

loop_
_geom_bond_atom_site_label_1
_geom_bond_atom_site_label_2
_ccdc_geom_bond_type
C99   C103  A    
C7    C168  A    
C158  O6    A    
C55   C59   A    
C99   H16   S    
C142  C146  A    
C77   C101  A    
C19   C20   A    
C174  H34   S    
C97   H14   S    
C47   O31   A    
Cr4   O48   S    
C50   H10   S    
C89   O37   A    
C62   H2    S    
C108  C164  S    
C116  H40   S    
C16   C20   A    
Cr10  O38   S    
C111  H27   S    
C138  N2    S    
C142  F10   S    
C34   F18   S    
Cr4   O4    S    
C95   C99   A    
C29   C33   A    
C100  C104  A    
Cr7   O7    S    
C3    C74   S    
C9    C13   A    
C41   H5    S    
C146  C150  A    
C147  H43   S    
C12   C16   A    
N2    H75   S    
C56   C72   A    
C169  C174  A    
C81   F5    S    
Cr6   O30   S    
C161  O41   A    
Cr8   O32   S    
C172  C175  A    
C135  O51   A    
C138  C154  A    
C6    C165  A    
C53   C69   A    
C21   C22   A    
C61   H1    S    
C35   F19   S    
C41   C49   A    
C64   H4    S    
C18   C170  A    
C25   C29   A    
C44   H8    S    
N4    H79   S    
C27   C31   A    
C28   C32   A    
C68   H72   S    
C62   C66   A    
C167  C171  A    
C98   C102  A    
C60   C76   A    
C85   H21   S    
C65   H69   S    
C115  H39   S    
Cr2   O18   S    
C113  H37   S    
C134  C155  S    
C54   C70   A    
C68   C72   A    
C137  C153  A    
C92   O4    A    
C161  O13   A    
C140  C156  A    
C122  H46   S    
C32   H60   S    
Cr11  O19   S    
Cr2   O2    S    
C132  C152  A    
C89   O1    A    
C130  C138  A    
C91   O3    A    
Cr12  O20   S    
C30   H58   S    
C84   C88   A    
C144  F12   S    
Cr9   O17   S    
Cr10  O14   S    
Cr7   O19   S    
C119  C123  A    
C26   C90   S    
C5    C46   S    
Cr4   O44   S    
C105  C125  A    
Cr2   O42   S    
C7    C48   S    
C26   C50   A    
C8    C47   S    
C107  C127  A    
C1    O21   A    
C136  C153  S    
C66   C70   A    
Cr2   O22   S    
C58   H66   S    
Cr7   O31   S    
C124  H48   S    
C61   C65   A    
C129  C137  A    
C159  O11   A    
N1    H73   S    
C88   H24   S    
C45   O29   A    
C117  C149  S    
C22   H53   S    
C55   C71   A    
C2    C75   S    
Cr4   O20   S    
C6    C9    A    
Cr6   O18   S    
C49   H9    S    
C82   F6    S    
C121  C125  A    
C167  F4    S    
C64   C68   A    
Cr2   O46   S    
C164  O44   A    
C100  H15   S    
C63   H3    S    
C60   H68   S    
C43   H7    S    
C118  C122  A    
C104  H19   S    
C57   C73   A    
C130  H30   S    
Cr1   O1    S    
C85   C93   A    
C78   C158  S    
C87   C95   A    
C130  C150  A    
C23   C24   A    
C27   C91   S    
C52   H12   S    
C140  N4    S    
C47   O35   A    
C110  C114  A    
Cr9   O37   S    
C48   O36   A    
C90   O38   A    
Cr12  O12   S    
C79   C103  A    
C11   C15   A    
Cr11  O39   S    
C27   C51   A    
C7    C12   A    
C139  N3    S    
C30   C34   A    
C10   C14   A    
N3    H78   S    
C11   H52   S    
C143  F11   S    
C116  C120  A    
C132  H32   S    
C144  C156  A    
C147  C151  A    
C129  C149  A    
C162  O42   A    
C37   C69   S    
C136  O48   A    
C123  C127  A    
C139  C155  A    
C157  O9    A    
C54   C58   A    
C17   C18   A    
C5    C166  A    
C108  C128  A    
C4    C73   S    
Cr12  O36   S    
C42   C50   A    
C113  C117  A    
C107  C163  S    
C26   C30   A    
C115  C119  A    
C105  C161  S    
Cr9   O33   S    
C93   C97   A    
C112  C116  A    
Cr11  O35   S    
C58   C74   A    
C126  F14   S    
C137  N1    S    
C105  C109  A    
C175  H35   S    
C40   C72   S    
C1    C76   S    
C87   H23   S    
C148  C152  A    
C66   H70   S    
C160  O8    A    
C141  C145  A    
Cr8   O20   S    
C171  C176  A    
C13   C17   A    
C14   C22   A    
C134  O46   A    
C162  O14   A    
C136  O52   A    
C63   C75   A    
C96   C100  A    
C4    O24   A    
C55   H63   S    
C112  H28   S    
C57   H65   S    
C90   O2    A    
C131  C139  A    
C101  H18   S    
Cr12  O40   S    
C40   C44   A    
C10   H49   S    
N2    H76   S    
C142  C154  A    
C67   H71   S    
Cr10  O18   S    
Cr11  O15   S    
C83   C87   A    
C88   C96   A    
C6    C45   S    
Cr5   O49   S    
C78   C102  A    
C133  C156  S    
C98   H13   S    
C80   C84   A    
C173  H33   S    
C1    O25   A    
C2    O22   A    
C163  O15   A    
C15   C19   A    
Cr3   O23   S    
C135  C154  S    
N4    H80   S    
C80   C104  A    
C84   F8    S    
C106  C110  A    
C80   C160  S    
C94   C98   A    
C127  F15   S    
C118  C150  S    
C129  H29   S    
Cr3   O3    S    
C148  H44   S    
Cr4   O24   S    
C176  H36   S    
Cr5   O25   S    
Cr9   O9    S    
C124  C128  A    
Cr7   O27   S    
Cr11  O11   S    
C165  C169  A    
Cr5   O29   S    
C107  C111  A    
Cr3   O47   S    
C133  O49   A    
C160  O12   A    
C53   C57   A    
C61   C73   A    
C82   C86   A    
C59   H67   S    
C33   C37   A    
C108  C112  A    
C35   C39   A    
C48   O32   A    
C8    C167  A    
C114  H38   S    
C165  F2    S    
C91   O39   A    
C54   H62   S    
C36   F20   S    
C123  H47   S    
C38   C70   S    
C121  H45   S    
C31   C35   A    
C32   C36   A    
C33   F17   S    
C110  H26   S    
C29   H57   S    
C164  O16   A    
C86   H22   S    
C132  C140  A    
C157  O5    A    
C106  C126  A    
C25   C89   S    
C158  O10   A    
C143  C155  A    
N3    H77   S    
C79   C83   A    
C43   C51   A    
C3    O27   A    
C65   C69   A    
C56   H64   S    
C67   C71   A    
C106  C162  S    
Cr10  O34   S    
C25   C49   A    
C56   C60   A    
C168  C172  A    
Cr7   O51   S    
C62   C74   A    
C23   H56   S    
C145  C149  A    
C21   H54   S    
C170  C173  A    
C93   C94   S    
C14   C18   A    
C95   C96   S    
C144  C148  A    
C141  C153  A    
C135  O47   A    
C173  C174  A    
C143  C147  A    
C4    O28   A    
C92   O40   A    
C19   C171  A    
C38   C42   A    
C109  H25   S    
C17   C169  A    
C159  O7    A    
C24   H55   S    
C131  H31   S    
C46   O30   A    
C42   H6    S    
C117  C121  A    
C86   C94   A    
C12   H51   S    
C175  C176  A    
N1    H74   S    
Cr6   O50   S    
C77   C81   A    
Cr1   O45   S    
Cr1   O17   S    
C2    O26   A    
C163  O43   A    
C15   C23   A    
Cr3   O19   S    
Cr8   O28   S    
C39   C71   S    
C37   C41   A    
C31   H59   S    
C119  C151  S    
C63   C67   A    
C120  C152  S    
C13   C21   A    
C36   C40   A    
C103  H20   S    
C39   C43   A    
Cr12  O16   S    
C122  C126  A    
Cr9   O13   S    
Cr6   O26   S    
Cr10  O10   S    
Cr1   O41   S    
C64   C76   A    
C28   C92   S    
C168  F3    S    
C53   H61   S    
C128  F16   S    
Cr3   O43   S    
C133  O45   A    
C114  C118  A    
C51   H11   S    
Cr1   O21   S    
C134  O50   A    
Cr8   O8    S    
Cr5   O5    S    
C59   C75   A    
C146  H42   S    
C125  F13   S    
C20   C172  A    
C34   C38   A    
C45   O33   A    
C78   C82   A    
C109  C113  A    
C166  F1    S    
C46   O34   A    
C5    C10   A    
Cr5   O17   S    
C28   C52   A    
C44   C52   A    
Cr6   O6    S    
C8    C11   A    
C79   C159  S    
C83   F7    S    
C166  C170  A    
C131  C151  A    
C141  F9    S    
C102  H17   S    
C81   C85   A    
C3    O23   A    
C16   C24   A    
C9    H50   S    
C111  C115  A    
Cr8   O52   S    
C145  H41   S    
C97   C101  A    
C120  C124  A    
C77   C157  S    
