data_mof_unit_59178.cif
_audit_creation_date              2012-12-10T17:06:43-0500
_audit_creation_method            fapswitch 2.2
_symmetry_space_group_name_H-M    P1
_symmetry_Int_Tables_number       1
_space_group_crystal_system       triclinic
_cell_length_a                    15.852153
_cell_length_b                    11.006399
_cell_length_c                    10.028406
_cell_angle_alpha                 111.675824
_cell_angle_beta                  97.649959
_cell_angle_gamma                 94.215965
_cell_volume                      1597.15029397

loop_
_atom_site_label
_atom_site_type_symbol
_atom_type_description
_atom_site_fract_x
_atom_site_fract_y
_atom_site_fract_z
_atom_type_partial_charge
C1    C     C_R   0.492715 0.253651 0.439424 0.756807
C2    C     C_R   0.507093 0.746313 0.560557 0.750209
C3    C     C_2   0.510708 0.068317 0.508394 -0.242866
C4    C     C_2   0.488884 0.931376 0.491171 -0.240869
C5    C     C_2   0.510984 0.509208 0.079395 0.156230
C6    C     C_2   0.489439 0.490171 0.920467 0.154357
C7    C     C_R   0.340488 0.500714 0.501220 0.816485
C8    C     C_R   0.659525 0.499606 0.498849 0.808675
C9    C     C_3   0.971737 0.410992 0.546428 0.283685
C10   C     C_3   0.030553 0.606905 0.471636 0.291986
C11   C     C_3   0.017001 0.392414 0.414458 0.256229
C12   C     C_3   0.983595 0.623207 0.601645 0.268531
C13   C     C_1   0.251552 0.504998 0.505337 -0.181426
C14   C     C_1   0.748774 0.498926 0.496071 -0.193565
C15   C     C_3   0.039348 0.530285 0.644539 0.241337
C16   C     C_3   0.963969 0.488176 0.371475 0.245760
C17   C     C_3   0.085529 0.511007 0.513036 -0.168630
C18   C     C_3   0.916488 0.504770 0.501475 -0.161583
C19   C     C_1   0.176679 0.508685 0.509598 0.093443
C20   C     C_1   0.824306 0.500268 0.496182 0.110022
C21   C     C_2   0.482599 0.111524 0.403842 0.255191
C22   C     C_2   0.516639 0.888381 0.596047 0.255781
Cu1   Cu    Cu3+1 0.514700 0.521810 0.644910 0.919349
Cu2   Cu    Cu3+1 0.485300 0.478190 0.355090 0.925983
H1    H     H_    0.450259 0.862930 0.389481 0.192915
H2    H     H_    0.549816 0.136507 0.609759 0.193505
H3    H     H_    0.587806 0.623930 0.924831 0.195927
H4    H     H_    0.412356 0.375759 0.075149 0.197833
N1    N     N_2   0.463210 0.445420 0.137360 -0.316808
N2    N     N_2   0.536790 0.554580 0.862640 -0.316602
O1    O     O_R   0.507840 0.332340 0.577400 -0.619293
O2    O     O_R   0.492160 0.667660 0.422600 -0.620757
O3    O     O_R   0.483020 0.295500 0.332650 -0.551320
O4    O     O_R   0.516980 0.704500 0.667350 -0.552526
O5    O     O_R   0.391490 0.518400 0.622350 -0.593102
O6    O     O_R   0.608510 0.481600 0.377650 -0.586359
O7    O     O_R   0.366660 0.481570 0.377600 -0.552098
O8    O     O_R   0.633340 0.518430 0.622400 -0.558401
O9    O     O_3   0.040418 0.274824 0.318015 -0.575901
C23   C     C_3   0.966737 0.180857 0.249058 0.081992
H5    H     H_    0.914085 0.221545 0.200909 0.177623
H6    H     H_    0.942093 0.143761 0.327269 0.173152
C24   C     C_3   0.990486 0.064778 0.127221 -0.838135
H7    H     H_    0.049043 0.030309 0.167349 0.266186
H8    H     H_    0.936865 0.982832 0.087871 0.203620
H9    H     H_    0.002605 0.093813 0.035802 0.250605
O10   O     O_3   0.964714 0.746165 0.694717 -0.590590
C25   C     C_3   0.922083 0.732148 0.804506 0.098567
H10   H     H_    0.966867 0.775848 0.910175 0.163198
H11   H     H_    0.899742 0.628304 0.787864 0.164326
C26   C     C_3   0.844415 0.806588 0.814342 -0.803769
H12   H     H_    0.797693 0.762311 0.710936 0.250062
H13   H     H_    0.812585 0.801640 0.904738 0.201831
H14   H     H_    0.864628 0.911492 0.834402 0.256117
O11   O     O_3   0.933585 0.311616 0.585379 -0.573134
C27   C     C_3   0.997300 0.246037 0.632188 0.073362
H15   H     H_    0.038487 0.312914 0.735359 0.187173
H16   H     H_    0.038783 0.206142 0.549188 0.169305
C28   C     C_3   0.953925 0.132172 0.660677 -0.815483
H17   H     H_    0.912117 0.061857 0.559496 0.248770
H18   H     H_    0.003231 0.079475 0.697658 0.219846
H19   H     H_    0.914186 0.170121 0.746774 0.257324
O12   O     O_3   0.069662 0.709678 0.439256 -0.566683
C29   C     C_3   0.007025 0.782013 0.402900 0.100768
H20   H     H_    0.966012 0.816886 0.487593 0.194425
H21   H     H_    0.965555 0.721897 0.296878 0.161102
C30   C     C_3   0.051906 0.902567 0.389411 -0.823310
H22   H     H_    0.092648 0.872253 0.303972 0.253213
H23   H     H_    0.003128 0.959425 0.359614 0.203687
H24   H     H_    0.092896 0.966300 0.494753 0.259888
O13   O     O_3   0.918843 0.468678 0.232544 -0.596502
C31   C     C_3   0.976032 0.451807 0.132438 0.070635
H25   H     H_    0.993732 0.350334 0.096600 0.184466
H26   H     H_    0.035861 0.523467 0.178213 0.183650
C32   C     C_3   0.931611 0.471648 0.999363 -0.809280
H27   H     H_    0.917011 0.574574 0.029965 0.224630
H28   H     H_    0.974302 0.453189 0.917327 0.260864
H29   H     H_    0.871060 0.402387 0.950659 0.261842
O14   O     O_3   0.076192 0.549477 0.788060 -0.609334
C33   C     C_3   0.138383 0.662490 0.848486 0.074388
H30   H     H_    0.114794 0.749292 0.831550 0.186475
H31   H     H_    0.197474 0.642281 0.800520 0.156602
C34   C     C_3   0.161361 0.698017 0.011684 -0.821607
H32   H     H_    0.188230 0.615465 0.033415 0.254831
H33   H     H_    0.209841 0.787513 0.061501 0.223292
H34   H     H_    0.102951 0.717713 0.062049 0.246227
O15   O     O_3   0.566562 0.972615 0.726683 -0.565302
C35   C     C_3   0.512192 0.037421 0.823321 0.062269
H35   H     H_    0.482572 0.968275 0.866376 0.157221
H36   H     H_    0.459934 0.075771 0.770625 0.135771
C36   C     C_3   0.565201 0.154335 0.949298 -0.800327
H37   H     H_    0.592548 0.226938 0.908339 0.244422
H38   H     H_    0.523904 0.203215 0.028995 0.216781
H39   H     H_    0.618390 0.120602 0.004902 0.248178
O16   O     O_3   0.431200 0.027913 0.274359 -0.564195
C37   C     C_3   0.483940 0.960954 0.175704 0.069916
H40   H     H_    0.536257 0.921702 0.227040 0.133210
H41   H     H_    0.513480 0.028902 0.131169 0.156895
C38   C     C_3   0.429121 0.844646 0.051374 -0.819228
H42   H     H_    0.376140 0.879466 0.996633 0.245721
H43   H     H_    0.469204 0.793581 0.970475 0.219564
H44   H     H_    0.401347 0.773508 0.093867 0.244646
C39   C     C_3   0.409599 0.393870 0.831228 -0.321726
C40   C     C_3   0.326472 0.452358 0.868795 -0.377911
C41   C     C_3   0.247657 0.350384 0.788156 -0.854519
H45   H     H_    0.243072 0.320172 0.668538 0.259536
H46   H     H_    0.251029 0.262085 0.816337 0.249858
H47   H     H_    0.189042 0.393432 0.820654 0.272806
H48   H     H_    0.325376 0.487727 0.987293 0.212870
H49   H     H_    0.322115 0.539299 0.838669 0.242369
H50   H     H_    0.406031 0.360678 0.714246 0.258847
H51   H     H_    0.411650 0.299794 0.847687 0.137496
C42   C     C_3   0.590047 0.607171 0.169317 -0.338502
C43   C     C_3   0.674540 0.552258 0.133966 -0.355883
C44   C     C_3   0.751349 0.658025 0.215745 -0.848943
H52   H     H_    0.747050 0.744294 0.184040 0.237004
H53   H     H_    0.754046 0.690727 0.335297 0.254961
H54   H     H_    0.811343 0.617533 0.188139 0.286082
H55   H     H_    0.680923 0.466292 0.165486 0.255367
H56   H     H_    0.676508 0.516680 0.015724 0.211611
H57   H     H_    0.586740 0.701011 0.152643 0.139385
H58   H     H_    0.593296 0.639925 0.286095 0.259399

loop_
_geom_bond_atom_site_label_1
_geom_bond_atom_site_label_2
_ccdc_geom_bond_type
O15   C35   S    
C1    C21   S    
O16   C37   S    
C24   H7    S    
C10   O12   S    
C43   C44   S    
C1    O3    A    
C41   H46   S    
Cu2   O6    S    
C2    O2    A    
H4    N1    S    
C31   C32   S    
C5    C6    S    
C10   C17   S    
C44   H52   S    
C37   C38   S    
C1    O1    A    
C4    C22   D    
C27   H15   S    
C39   H50   S    
C8    O6    A    
Cu2   N1    S    
C25   C26   S    
C15   O14   S    
C42   H58   S    
C34   H32   S    
C44   H53   S    
C37   H41   S    
C2    C22   S    
Cu1   Cu2   S    
C35   C36   S    
C9    O11   S    
C43   H55   S    
Cu1   O4    S    
C23   H6    S    
C28   H17   S    
H3    N2    S    
C16   O13   S    
C8    O8    A    
C12   O10   S    
C40   C41   S    
C24   H9    S    
C4    H1    S    
C5    N1    D    
C23   C24   S    
C41   H47   S    
C28   H18   S    
C29   C30   S    
C13   C19   T    
C30   H22   S    
Cu1   N2    S    
C14   C20   T    
O14   C33   S    
C31   H26   S    
O9    C23   S    
C31   H25   S    
C21   O16   S    
C22   O15   S    
C6    N2    D    
C26   H12   S    
C39   H51   S    
C30   H23   S    
C29   H21   S    
C32   H27   S    
Cu2   O2    S    
C36   H38   S    
C24   H8    S    
C11   C16   S    
O10   C25   S    
C12   C15   S    
C44   H54   S    
C37   H40   S    
C38   H44   S    
O11   C27   S    
Cu2   O7    S    
C7    O7    A    
C6    C39   S    
C11   O9    S    
C32   H28   S    
C10   C12   S    
C33   H31   S    
C23   H5    S    
C34   H33   S    
C35   H36   S    
Cu1   O5    S    
C9    C11   S    
C3    C21   D    
C3    C4    S    
C36   H37   S    
C33   C34   S    
C42   C43   S    
C15   C17   S    
C11   C17   S    
C28   H19   S    
C8    C14   S    
C5    C42   S    
C7    O5    A    
C3    H2    S    
C33   H30   S    
Cu1   O8    S    
C41   H45   S    
Cu2   O3    S    
C27   C28   S    
C30   H24   S    
C29   H20   S    
C26   H14   S    
C9    C15   S    
O13   C31   S    
C10   C16   S    
C38   H42   S    
C36   H39   S    
C40   H49   S    
C2    O4    A    
C40   H48   S    
C25   H10   S    
C25   H11   S    
C17   C19   S    
C27   H16   S    
C18   C20   S    
C32   H29   S    
O12   C29   S    
C9    C18   S    
C7    C13   S    
C34   H34   S    
C42   H57   S    
C35   H35   S    
C16   C18   S    
C12   C18   S    
C39   C40   S    
C26   H13   S    
C38   H43   S    
C43   H56   S    
Cu1   O1    S    
