data_mof_unit_14286.cif
_audit_creation_date              2012-12-10T20:46:51-0500
_audit_creation_method            fapswitch 2.2
_symmetry_space_group_name_H-M    P1
_symmetry_Int_Tables_number       1
_space_group_crystal_system       triclinic
_cell_length_a                    12.919012
_cell_length_b                    8.936791
_cell_length_c                    8.103989
_cell_angle_alpha                 89.993988
_cell_angle_beta                  97.605026
_cell_angle_gamma                 89.996672
_cell_volume                      927.412104198

loop_
_atom_site_label
_atom_site_type_symbol
_atom_type_description
_atom_site_fract_x
_atom_site_fract_y
_atom_site_fract_z
_atom_type_partial_charge
C1    C     C_R   0.499998 0.217972 0.500004 0.930132
C2    C     C_R   0.873635 0.543920 0.707909 0.446144
C3    C     C_R   0.136381 0.530593 0.584120 -0.323077
C4    C     C_R   0.863619 0.469407 0.415880 -0.323077
C5    C     C_R   0.029730 0.520939 0.575557 0.138623
C6    C     C_R   0.970270 0.479061 0.424443 0.138623
C7    C     C_1   0.499999 0.065180 0.500007 -0.174762
C8    C     C_1   0.500001 0.934820 0.499993 -0.174762
C9    C     C_R   0.500002 0.782027 0.499995 0.930132
C10   C     C_R   0.297407 0.499306 0.466767 0.912870
C11   C     C_R   0.702593 0.500693 0.533233 0.912870
C12   C     C_R   0.815001 0.503350 0.555128 -0.104743
C13   C     C_R   0.184999 0.496650 0.444872 -0.104743
C14   C     C_R   0.017921 0.447911 0.283376 -0.318173
C15   C     C_R   0.982079 0.552088 0.716623 -0.318173
C16   C     C_R   0.126365 0.456080 0.292091 0.446144
H1    H     H_    0.818286 0.436419 0.299157 0.194213
H2    H     H_    0.181714 0.563580 0.700843 0.194213
H3    H     H_    0.877200 0.604342 0.939773 0.326722
H4    H     H_    0.122800 0.395658 0.060227 0.326722
H5    H     H_    0.971070 0.416079 0.167676 0.144008
H6    H     H_    0.028930 0.583921 0.832324 0.144008
N1    N     N_1   0.500020 0.500000 0.073640 -0.015236
N2    N     N_1   0.499980 0.500000 0.926360 -0.015236
O1    O     O_R   0.499990 0.285340 0.636850 -0.619104
O2    O     O_3   0.175877 0.422033 0.155683 -0.750687
O3    O     O_R   0.500010 0.714660 0.363150 -0.619104
O4    O     O_R   0.500010 0.285340 0.363150 -0.613837
O5    O     O_R   0.499990 0.714660 0.636850 -0.613837
O6    O     O_R   0.346350 0.500000 0.614250 -0.640275
O7    O     O_R   0.653650 0.500000 0.385750 -0.640275
O8    O     O_R   0.346360 0.500000 0.340500 -0.559771
O9    O     O_R   0.653640 0.500000 0.659500 -0.559771
O10   O     O_3   0.824123 0.577967 0.844317 -0.750687
Zn1   Zn    Zn3+2 0.499990 0.500000 0.682780 1.026954
Zn2   Zn    Zn3+2 0.500010 0.500000 0.317220 1.026954

loop_
_geom_bond_atom_site_label_1
_geom_bond_atom_site_label_2
_ccdc_geom_bond_type
C1    O4    A    
C11   C12   S    
O3    Zn2   S    
C4    C12   A    
C10   O6    A    
C3    C13   A    
C9    O5    A    
N1    N2    T    
C2    C12   A    
C2    O10   S    
C11   O7    A    
C7    C8    T    
C1    O1    A    
C2    C15   A    
O4    Zn2   S    
H4    O2    S    
O6    Zn1   S    
O1    Zn1   S    
C4    H1    S    
O8    Zn2   S    
C14   H5    S    
O9    Zn1   S    
C16   O2    S    
C5    C6    A    
C14   C16   A    
C5    C15   A    
N2    Zn1   S    
C6    C14   A    
C10   O8    A    
C11   O9    A    
C9    O3    A    
C3    H2    S    
C4    C6    A    
N1    Zn2   S    
C13   C16   A    
O5    Zn1   S    
O7    Zn2   S    
C1    C7    S    
C10   C13   S    
C15   H6    S    
C8    C9    S    
C3    C5    A    
H3    O10   S    
