data_mof_unit_64937.cif
_audit_creation_date              2012-12-10T20:26:12-0500
_audit_creation_method            fapswitch 2.2
_symmetry_space_group_name_H-M    P1
_symmetry_Int_Tables_number       1
_space_group_crystal_system       triclinic
_cell_length_a                    25.683136
_cell_length_b                    25.683116
_cell_length_c                    60.040025
_cell_angle_alpha                 90.000025
_cell_angle_beta                  89.999711
_cell_angle_gamma                 90.000152
_cell_volume                      39603.7790763

loop_
_atom_site_label
_atom_site_type_symbol
_atom_type_description
_atom_site_fract_x
_atom_site_fract_y
_atom_site_fract_z
_atom_type_partial_charge
C1    C     C_R   0.500000 0.000000 0.810533 0.872071
C2    C     C_R   0.499998 1.000000 0.189467 0.871225
C3    C     C_R   1.000000 0.500000 0.810533 0.870431
C4    C     C_R   0.000000 0.500000 0.189467 0.872011
C5    C     C_R   1.000000 0.500000 0.310533 0.872066
C6    C     C_R   0.000000 0.500000 0.689467 0.870444
C7    C     C_R   0.500000 1.000000 0.310533 0.870457
C8    C     C_R   0.500000 0.000000 0.689467 0.872067
C9    C     C_R   0.500000 0.000001 0.617834 0.042419
C10   C     C_R   0.499999 0.999999 0.382171 0.049447
C11   C     C_R   0.000004 0.500000 0.617829 0.049448
C12   C     C_R   0.999999 0.500001 0.382166 0.042431
C13   C     C_R   1.000000 0.500001 0.117834 0.042447
C14   C     C_R   0.999999 0.499996 0.882171 0.049459
C15   C     C_R   0.499848 0.999992 0.117833 0.046009
C16   C     C_R   0.499991 0.000005 0.882165 0.042487
C17   C     C_R   0.500000 0.000001 0.547317 -0.052652
C18   C     C_R   0.499999 1.000000 0.452682 -0.065120
C19   C     C_R   0.000003 0.500003 0.547317 -0.065149
C20   C     C_R   0.000001 0.500002 0.452684 -0.052668
C21   C     C_R   0.999998 0.499999 0.047317 -0.052710
C22   C     C_R   0.999996 0.499997 0.952682 -0.065168
C23   C     C_R   0.499888 0.999969 0.047318 -0.058545
C24   C     C_R   0.499949 0.000008 0.952682 -0.052854
C25   C     C_R   0.500674 0.047239 0.559220 -0.051635
C26   C     C_R   0.503401 0.952879 0.440780 -0.066439
C27   C     C_R   0.952882 0.503413 0.559220 -0.066474
C28   C     C_R   0.047238 0.500703 0.440780 -0.051678
C29   C     C_R   0.499326 0.952762 0.559220 -0.051665
C30   C     C_R   0.496597 0.047120 0.440780 -0.066465
C31   C     C_R   0.047124 0.496593 0.559219 -0.066447
C32   C     C_R   0.952763 0.499301 0.440781 -0.051650
C33   C     C_R   0.000666 0.547238 0.059220 -0.051548
C34   C     C_R   0.003392 0.452875 0.940780 -0.066441
C35   C     C_R   0.452714 0.002650 0.059216 -0.056059
C36   C     C_R   0.547182 0.001271 0.940784 -0.051684
C37   C     C_R   0.999331 0.452761 0.059220 -0.051701
C38   C     C_R   0.996601 0.547119 0.940780 -0.066423
C39   C     C_R   0.547045 0.997270 0.059227 -0.061649
C40   C     C_R   0.452730 0.998746 0.940774 -0.051567
C41   C     C_R   0.501480 0.094237 0.547557 -0.098733
C42   C     C_R   0.506912 0.906006 0.452442 -0.091927
C43   C     C_R   0.906010 0.506934 0.547558 -0.091852
C44   C     C_R   0.094236 0.501538 0.452442 -0.098695
C45   C     C_R   0.498520 0.905764 0.547558 -0.098694
C46   C     C_R   0.493086 0.093993 0.452441 -0.091886
C47   C     C_R   0.093995 0.493073 0.547557 -0.091898
C48   C     C_R   0.905765 0.498466 0.452444 -0.098734
C49   C     C_R   0.001464 0.594236 0.047558 -0.099306
C50   C     C_R   0.006894 0.406002 0.952442 -0.092069
C51   C     C_R   0.405803 0.005480 0.047549 -0.097441
C52   C     C_R   0.594159 0.002673 0.952451 -0.098858
C53   C     C_R   0.998533 0.405762 0.047558 -0.098946
C54   C     C_R   0.993097 0.593993 0.952441 -0.092115
C55   C     C_R   0.593972 0.994470 0.047571 -0.095065
C56   C     C_R   0.405739 0.997343 0.952429 -0.099053
C57   C     C_R   0.500000 0.000001 0.664815 -0.161011
C58   C     C_R   0.500000 1.000000 0.335185 -0.158779
C59   C     C_R   0.000001 0.500000 0.664815 -0.158765
C60   C     C_R   0.999999 0.500000 0.335185 -0.161017
C61   C     C_R   0.000000 0.500000 0.164815 -0.161032
C62   C     C_R   1.000000 0.499999 0.835185 -0.158775
C63   C     C_R   0.499963 0.999997 0.164815 -0.159891
C64   C     C_R   0.500000 0.000001 0.835185 -0.161007
C65   C     C_R   0.997750 0.548055 0.988140 0.043037
C66   C     C_R   0.000534 0.451892 0.011859 0.042940
C67   C     C_R   0.451816 0.999893 0.988135 0.043249
C68   C     C_R   0.547996 0.998429 0.011865 0.043083
C69   C     C_R   0.002242 0.451941 0.988140 0.043032
C70   C     C_R   0.999460 0.548105 0.011858 0.043017
C71   C     C_R   0.548037 0.000111 0.988146 0.043171
C72   C     C_R   0.451827 0.001558 0.011854 0.043389
C73   C     C_R   0.497750 0.048056 0.488140 0.043065
C74   C     C_R   0.500534 0.951894 0.511859 0.042983
C75   C     C_R   0.951896 0.500520 0.488142 0.042983
C76   C     C_R   0.048058 0.497757 0.511859 0.043069
C77   C     C_R   0.502249 0.951944 0.488140 0.043073
C78   C     C_R   0.499466 0.048106 0.511858 0.042990
C79   C     C_R   0.048107 0.499487 0.488141 0.042977
C80   C     C_R   0.951946 0.502250 0.511860 0.043061
C81   C     C_R   0.999996 0.499998 0.976422 0.091902
C82   C     C_R   0.999997 0.499999 0.023577 0.088264
C83   C     C_R   0.499934 0.000004 0.976422 0.088276
C84   C     C_R   0.499904 0.999986 0.023578 0.089799
C85   C     C_R   0.499999 1.000000 0.476422 0.091974
C86   C     C_R   0.500000 0.000000 0.523577 0.088357
C87   C     C_R   0.000001 0.500003 0.476423 0.088367
C88   C     C_R   0.000002 0.500003 0.523578 0.091989
C89   C     C_R   0.993553 0.594572 0.975588 -0.191375
C90   C     C_R   0.999031 0.405210 0.024411 -0.189853
C91   C     C_R   0.405165 0.997807 0.975576 -0.190201
C92   C     C_R   0.594561 0.994931 0.024424 -0.190582
C93   C     C_R   0.006438 0.405423 0.975589 -0.191245
C94   C     C_R   0.000963 0.594787 0.024410 -0.190054
C95   C     C_R   0.594703 0.002202 0.975598 -0.189992
C96   C     C_R   0.405246 0.005051 0.024402 -0.190986
C97   C     C_R   0.493543 0.094572 0.475589 -0.191063
C98   C     C_R   0.499021 0.905212 0.524410 -0.189663
C99   C     C_R   0.905214 0.498971 0.475591 -0.189684
C100  C     C_R   0.094574 0.493535 0.524410 -0.191081
C101  C     C_R   0.506456 0.905427 0.475589 -0.191067
C102  C     C_R   0.500980 0.094789 0.524410 -0.189669
C103  C     C_R   0.094788 0.501033 0.475590 -0.189678
C104  C     C_R   0.905431 0.506473 0.524411 -0.191077
C105  C     C_R   0.599179 0.900820 0.750000 0.836198
C106  C     C_R   0.400820 0.099180 0.250000 0.836075
C107  C     C_R   0.099179 0.599179 0.750000 0.836203
C108  C     C_R   0.900821 0.400820 0.250000 0.835993
C109  C     C_R   0.400820 0.099180 0.750000 0.836110
C110  C     C_R   0.599179 0.900820 0.250000 0.836055
C111  C     C_R   0.900820 0.400821 0.750000 0.836210
C112  C     C_R   0.099180 0.599179 0.250000 0.835964
C113  C     C_R   0.599179 0.099180 0.250000 0.836192
C114  C     C_R   0.400820 0.900820 0.750000 0.836001
C115  C     C_R   0.099180 0.400820 0.250000 0.836206
C116  C     C_R   0.900820 0.599179 0.750000 0.836118
C117  C     C_R   0.400820 0.900821 0.250000 0.836120
C118  C     C_R   0.599180 0.099180 0.750000 0.836005
C119  C     C_R   0.900820 0.599179 0.250000 0.836086
C120  C     C_R   0.099179 0.400820 0.750000 0.836036
C121  C     C_R   0.750501 0.288001 0.766712 -0.157699
C122  C     C_R   0.249346 0.712152 0.233225 -0.158316
C123  C     C_R   0.707190 0.745693 0.764313 -0.157907
C124  C     C_R   0.292773 0.254270 0.235664 -0.157918
C125  C     C_R   0.249462 0.712035 0.766727 -0.157634
C126  C     C_R   0.750766 0.287737 0.233181 -0.157874
C127  C     C_R   0.288618 0.250115 0.766454 -0.158076
C128  C     C_R   0.711251 0.749753 0.233604 -0.158282
C129  C     C_R   0.749754 0.711251 0.233604 -0.158325
C130  C     C_R   0.250115 0.288618 0.766454 -0.157958
C131  C     C_R   0.712263 0.249234 0.233181 -0.157806
C132  C     C_R   0.287965 0.750537 0.766727 -0.157882
C133  C     C_R   0.254270 0.292773 0.235664 -0.158074
C134  C     C_R   0.745693 0.707190 0.764313 -0.157787
C135  C     C_R   0.287848 0.750655 0.233225 -0.158328
C136  C     C_R   0.711999 0.249498 0.766712 -0.157776
C137  C     C_R   0.250654 0.787848 0.266775 -0.157716
C138  C     C_R   0.749499 0.211999 0.733288 -0.157808
C139  C     C_R   0.207227 0.245730 0.264336 -0.157941
C140  C     C_R   0.792810 0.754307 0.735687 -0.157765
C141  C     C_R   0.749234 0.212263 0.266819 -0.157621
C142  C     C_R   0.250538 0.787965 0.733273 -0.157726
C143  C     C_R   0.788748 0.750246 0.266396 -0.158122
C144  C     C_R   0.211382 0.249885 0.733546 -0.157935
C145  C     C_R   0.249885 0.211382 0.733546 -0.158073
C146  C     C_R   0.750246 0.788748 0.266396 -0.157964
C147  C     C_R   0.212035 0.749463 0.733273 -0.157666
C148  C     C_R   0.787737 0.250765 0.266819 -0.157848
C149  C     C_R   0.754307 0.792810 0.735687 -0.157906
C150  C     C_R   0.245730 0.207227 0.264336 -0.157832
C151  C     C_R   0.788001 0.250502 0.733288 -0.157578
C152  C     C_R   0.212152 0.749345 0.266775 -0.157831
C153  C     C_R   0.788572 0.288572 0.750000 0.146857
C154  C     C_R   0.211428 0.711428 0.250000 0.147199
C155  C     C_R   0.711428 0.788572 0.750000 0.148013
C156  C     C_R   0.288572 0.211428 0.250000 0.148031
C157  C     C_R   0.211428 0.711428 0.750000 0.146860
C158  C     C_R   0.788572 0.288572 0.250000 0.146973
C159  C     C_R   0.288572 0.211428 0.750000 0.147346
C160  C     C_R   0.711428 0.788572 0.250000 0.147456
C161  C     C_R   0.788572 0.711428 0.250000 0.147485
C162  C     C_R   0.211428 0.288572 0.750000 0.147297
C163  C     C_R   0.711428 0.211428 0.250000 0.146869
C164  C     C_R   0.288573 0.788572 0.750000 0.146968
C165  C     C_R   0.211428 0.288572 0.250000 0.148082
C166  C     C_R   0.788572 0.711428 0.750000 0.147978
C167  C     C_R   0.288572 0.788572 0.250000 0.147155
C168  C     C_R   0.711428 0.211428 0.750000 0.146964
C169  C     C_1   0.828174 0.328174 0.750000 -0.050651
C170  C     C_1   0.171826 0.671826 0.250000 -0.051178
C171  C     C_1   0.671826 0.828174 0.750000 -0.051027
C172  C     C_1   0.328174 0.171826 0.250000 -0.050965
C173  C     C_1   0.171826 0.671826 0.750000 -0.050663
C174  C     C_1   0.828174 0.328174 0.250000 -0.050991
C175  C     C_1   0.328174 0.171826 0.750000 -0.051151
C176  C     C_1   0.671826 0.828174 0.250000 -0.051175
C177  C     C_1   0.828174 0.671826 0.250000 -0.051302
C178  C     C_1   0.171826 0.328174 0.750000 -0.050987
C179  C     C_1   0.671826 0.171826 0.250000 -0.050729
C180  C     C_1   0.328174 0.828174 0.750000 -0.050935
C181  C     C_1   0.171826 0.328174 0.250000 -0.051127
C182  C     C_1   0.828174 0.671826 0.750000 -0.050862
C183  C     C_1   0.328174 0.828174 0.250000 -0.051064
C184  C     C_1   0.671826 0.171826 0.750000 -0.050923
C185  C     C_1   0.638649 0.138649 0.750000 -0.115396
C186  C     C_1   0.361351 0.861351 0.250000 -0.115365
C187  C     C_1   0.861351 0.638649 0.750000 -0.115347
C188  C     C_1   0.138649 0.361351 0.250000 -0.115556
C189  C     C_1   0.361351 0.861351 0.750000 -0.115403
C190  C     C_1   0.638648 0.138649 0.250000 -0.115074
C191  C     C_1   0.138649 0.361351 0.750000 -0.115360
C192  C     C_1   0.861351 0.638649 0.250000 -0.115597
C193  C     C_1   0.638649 0.861351 0.250000 -0.115529
C194  C     C_1   0.361351 0.138649 0.750000 -0.115475
C195  C     C_1   0.861351 0.361351 0.250000 -0.115455
C196  C     C_1   0.138649 0.638649 0.750000 -0.115005
C197  C     C_1   0.361351 0.138649 0.250000 -0.115432
C198  C     C_1   0.638649 0.861351 0.750000 -0.115461
C199  C     C_1   0.138649 0.638649 0.250000 -0.115578
C200  C     C_1   0.861351 0.361351 0.750000 -0.114999
C201  C     C_R   0.500725 0.046383 0.582639 0.662522
C202  C     C_R   0.503308 0.953726 0.417362 0.615421
C203  C     C_R   0.953730 0.503319 0.582638 0.615358
C204  C     C_R   0.046381 0.500753 0.417361 0.662514
C205  C     C_R   0.499276 0.953619 0.582639 0.662531
C206  C     C_R   0.496690 0.046272 0.417361 0.615421
C207  C     C_R   0.046276 0.496685 0.582638 0.615396
C208  C     C_R   0.953619 0.499249 0.417362 0.662503
C209  C     C_R   0.000718 0.546382 0.082639 0.662471
C210  C     C_R   0.003300 0.453723 0.917362 0.615386
C211  C     C_R   0.453550 0.002591 0.082634 0.649686
C212  C     C_R   0.546340 0.001293 0.917365 0.662632
C213  C     C_R   0.999280 0.453618 0.082639 0.662508
C214  C     C_R   0.996695 0.546271 0.917361 0.615317
C215  C     C_R   0.546177 0.997321 0.082645 0.629761
C216  C     C_R   0.453601 0.998724 0.917355 0.662621
C217  C     C_R   0.452420 0.999044 0.629653 0.447816
C218  C     C_R   0.452410 0.000775 0.370346 0.431154
C219  C     C_R   0.000781 0.452410 0.629654 0.431177
C220  C     C_R   0.999062 0.452420 0.370347 0.447773
C221  C     C_R   0.547581 0.000959 0.629653 0.447772
C222  C     C_R   0.547589 0.999224 0.370346 0.431229
C223  C     C_R   0.999226 0.547590 0.629654 0.431154
C224  C     C_R   0.000936 0.547581 0.370347 0.447812
C225  C     C_R   0.952419 0.499038 0.129653 0.447940
C226  C     C_R   0.952409 0.500786 0.870346 0.431222
C227  C     C_R   0.500383 0.952406 0.129657 0.454645
C228  C     C_R   0.499407 0.952417 0.870347 0.447803
C229  C     C_R   0.047580 0.500964 0.129653 0.448112
C230  C     C_R   0.047589 0.499207 0.870346 0.431241
C231  C     C_R   0.499309 0.047586 0.129652 0.424810
C232  C     C_R   0.500582 0.047592 0.870346 0.447804
C233  C     C_R   0.452916 0.998991 0.652991 -0.270410
C234  C     C_R   0.452922 0.000963 0.347009 -0.265095
C235  C     C_R   0.000968 0.452923 0.652990 -0.265226
C236  C     C_R   0.999009 0.452917 0.347010 -0.270277
C237  C     C_R   0.547084 0.001010 0.652990 -0.270258
C238  C     C_R   0.547077 0.999036 0.347009 -0.265258
C239  C     C_R   0.999036 0.547078 0.652991 -0.265082
C240  C     C_R   0.000989 0.547084 0.347010 -0.270419
C241  C     C_R   0.952916 0.498986 0.152991 -0.270589
C242  C     C_R   0.952922 0.500975 0.847009 -0.265137
C243  C     C_R   0.500601 0.952909 0.152993 -0.273401
C244  C     C_R   0.499335 0.952912 0.847010 -0.270340
C245  C     C_R   0.047084 0.501015 0.152990 -0.270548
C246  C     C_R   0.047077 0.499021 0.847009 -0.265283
C247  C     C_R   0.499228 0.047081 0.152990 -0.262710
C248  C     C_R   0.500663 0.047093 0.847008 -0.270484
H1    H     H_    0.682737 0.249404 0.779711 0.158498
H2    H     H_    0.316991 0.750868 0.220177 0.158090
H3    H     H_    0.742047 0.674189 0.775445 0.157532
H4    H     H_    0.257887 0.325745 0.224514 0.157317
H5    H     H_    0.317198 0.750660 0.779737 0.158456
H6    H     H_    0.683207 0.248935 0.220098 0.158605
H7    H     H_    0.250500 0.318358 0.779252 0.158267
H8    H     H_    0.749267 0.681408 0.220851 0.157920
H9    H     H_    0.681408 0.749266 0.220851 0.157966
H10   H     H_    0.318358 0.250500 0.779252 0.158150
H11   H     H_    0.751066 0.316793 0.220098 0.158469
H12   H     H_    0.249340 0.682801 0.779737 0.158665
H13   H     H_    0.325746 0.257886 0.224514 0.157457
H14   H     H_    0.674188 0.742047 0.775445 0.157431
H15   H     H_    0.249132 0.683010 0.220177 0.158111
H16   H     H_    0.750595 0.317263 0.779711 0.158644
H17   H     H_    0.183009 0.749132 0.279823 0.158539
H18   H     H_    0.817263 0.250596 0.720289 0.158708
H19   H     H_    0.242113 0.174255 0.275486 0.157542
H20   H     H_    0.757953 0.825811 0.724555 0.157436
H21   H     H_    0.816793 0.251065 0.279902 0.158535
H22   H     H_    0.182802 0.749340 0.720263 0.158681
H23   H     H_    0.750733 0.818592 0.279150 0.158253
H24   H     H_    0.249500 0.181641 0.720748 0.158150
H25   H     H_    0.181642 0.249500 0.720748 0.158283
H26   H     H_    0.818591 0.750733 0.279150 0.158120
H27   H     H_    0.250660 0.817198 0.720263 0.158548
H28   H     H_    0.748934 0.183207 0.279902 0.158729
H29   H     H_    0.825812 0.757953 0.724555 0.157548
H30   H     H_    0.174254 0.242114 0.275486 0.157436
H31   H     H_    0.749405 0.182737 0.720289 0.158514
H32   H     H_    0.250867 0.816990 0.279823 0.158673
H33   H     H_    0.583566 0.001886 0.662005 0.220406
H34   H     H_    0.583566 0.998098 0.337998 0.218210
H35   H     H_    0.998096 0.583567 0.662002 0.218243
H36   H     H_    0.001850 0.583567 0.337995 0.220379
H37   H     H_    0.416434 0.998115 0.662005 0.220383
H38   H     H_    0.416433 0.001900 0.337998 0.218242
H39   H     H_    0.001908 0.416433 0.662001 0.218208
H40   H     H_    0.998148 0.416434 0.337995 0.220402
H41   H     H_    0.083566 0.501895 0.162005 0.220367
H42   H     H_    0.083566 0.498071 0.837998 0.218208
H43   H     H_    0.498533 0.083574 0.162002 0.218485
H44   H     H_    0.501270 0.083581 0.837993 0.220390
H45   H     H_    0.916434 0.498106 0.162005 0.220364
H46   H     H_    0.916433 0.501925 0.837998 0.218243
H47   H     H_    0.501265 0.916417 0.162005 0.220112
H48   H     H_    0.498729 0.916422 0.837996 0.220407
H49   H     H_    0.502564 0.131122 0.556304 0.197776
H50   H     H_    0.510118 0.869246 0.443696 0.198873
H51   H     H_    0.869250 0.510152 0.556304 0.198899
H52   H     H_    0.131120 0.502648 0.443696 0.197794
H53   H     H_    0.497436 0.868879 0.556304 0.197796
H54   H     H_    0.489880 0.130753 0.443695 0.198897
H55   H     H_    0.130755 0.489856 0.556303 0.198874
H56   H     H_    0.868881 0.497355 0.443698 0.197773
H57   H     H_    0.002541 0.631121 0.056304 0.197559
H58   H     H_    0.010092 0.369240 0.943696 0.198822
H59   H     H_    0.368993 0.008127 0.056292 0.197859
H60   H     H_    0.631033 0.004210 0.943708 0.197755
H61   H     H_    0.997456 0.368878 0.056305 0.197715
H62   H     H_    0.989899 0.630754 0.943695 0.198812
H63   H     H_    0.630771 0.991824 0.056322 0.198654
H64   H     H_    0.368876 0.995807 0.943678 0.197690
H65   H     H_    0.989755 0.632433 0.983079 0.149881
H66   H     H_    0.997428 0.367193 0.016920 0.150265
H67   H     H_    0.367165 0.995721 0.983060 0.150110
H68   H     H_    0.632481 0.991710 0.016940 0.150023
H69   H     H_    0.010236 0.367562 0.983080 0.149933
H70   H     H_    0.002567 0.632803 0.016918 0.150153
H71   H     H_    0.632695 0.004284 0.983090 0.150201
H72   H     H_    0.367337 0.008294 0.016910 0.149976
H73   H     H_    0.489733 0.132431 0.483081 0.150013
H74   H     H_    0.497407 0.867196 0.516918 0.150345
H75   H     H_    0.867201 0.497327 0.483085 0.150352
H76   H     H_    0.132430 0.489712 0.516916 0.150018
H77   H     H_    0.510265 0.867569 0.483081 0.150010
H78   H     H_    0.502594 0.132804 0.516918 0.150341
H79   H     H_    0.132801 0.502677 0.483083 0.150355
H80   H     H_    0.867575 0.510297 0.516918 0.150022
N1    N     N_R   0.500000 0.000001 0.593840 -0.325028
N2    N     N_R   0.499999 0.999999 0.406161 -0.336423
N3    N     N_R   0.000003 0.500001 0.593839 -0.336440
N4    N     N_R   1.000000 0.500001 0.406160 -0.325024
N5    N     N_R   0.999999 0.500000 0.093840 -0.324944
N6    N     N_R   0.999998 0.499997 0.906160 -0.336412
N7    N     N_R   0.499855 0.999970 0.093841 -0.329957
N8    N     N_R   0.499978 0.000008 0.906158 -0.324873
O1    O     O_3   0.500000 0.000000 0.750000 -0.491127
O2    O     O_3   0.500000 0.000000 0.250000 -0.491097
O3    O     O_3   1.000000 0.500000 0.750000 -0.491151
O4    O     O_3   0.000000 0.500000 0.250000 -0.491077
O5    O     O_R   0.500000 0.042590 0.799690 -0.640028
O6    O     O_R   0.500000 0.957410 0.200310 -0.639914
O7    O     O_R   0.957410 0.500000 0.799690 -0.639866
O8    O     O_R   0.042590 0.500000 0.200310 -0.640006
O9    O     O_R   0.500000 0.957410 0.799690 -0.639963
O10   O     O_R   0.500000 0.042590 0.200310 -0.640071
O11   O     O_R   0.042590 0.500000 0.799690 -0.639933
O12   O     O_R   0.957410 0.500000 0.200310 -0.640041
O13   O     O_R   0.000000 0.542590 0.299690 -0.640006
O14   O     O_R   0.000000 0.457410 0.700310 -0.639921
O15   O     O_R   0.457410 0.000000 0.299690 -0.639847
O16   O     O_R   0.542590 0.000000 0.700310 -0.639944
O17   O     O_R   0.000000 0.457410 0.299690 -0.639945
O18   O     O_R   0.000000 0.542590 0.700310 -0.639856
O19   O     O_R   0.542590 0.000000 0.299690 -0.639916
O20   O     O_R   0.457410 0.000000 0.700310 -0.640010
O21   O     O_R   0.560170 0.897070 0.762850 -0.631309
O22   O     O_R   0.439830 0.102930 0.237150 -0.631436
O23   O     O_R   0.102930 0.560170 0.762850 -0.631134
O24   O     O_R   0.897070 0.439830 0.237150 -0.631381
O25   O     O_R   0.439830 0.102930 0.762850 -0.631295
O26   O     O_R   0.560170 0.897070 0.237150 -0.631480
O27   O     O_R   0.897070 0.439830 0.762850 -0.631238
O28   O     O_R   0.102930 0.560170 0.237150 -0.631558
O29   O     O_R   0.560170 0.102930 0.237150 -0.631273
O30   O     O_R   0.439830 0.897070 0.762850 -0.631458
O31   O     O_R   0.102930 0.439830 0.237150 -0.631349
O32   O     O_R   0.897070 0.560170 0.762850 -0.631429
O33   O     O_R   0.439830 0.897070 0.237150 -0.631376
O34   O     O_R   0.560170 0.102930 0.762850 -0.631345
O35   O     O_R   0.897070 0.560170 0.237150 -0.631340
O36   O     O_R   0.102930 0.439830 0.762850 -0.631414
O37   O     O_R   0.060170 0.397070 0.262850 -0.631274
O38   O     O_R   0.939830 0.602930 0.737150 -0.631418
O39   O     O_R   0.602930 0.060170 0.262850 -0.631109
O40   O     O_R   0.397070 0.939830 0.737150 -0.631340
O41   O     O_R   0.939830 0.602930 0.262850 -0.631278
O42   O     O_R   0.060170 0.397070 0.737150 -0.631407
O43   O     O_R   0.397070 0.939830 0.262850 -0.631164
O44   O     O_R   0.602930 0.060170 0.737150 -0.631449
O45   O     O_R   0.060170 0.602930 0.737150 -0.631226
O46   O     O_R   0.939830 0.397070 0.262850 -0.631437
O47   O     O_R   0.602930 0.939830 0.737150 -0.631293
O48   O     O_R   0.397070 0.060170 0.262850 -0.631428
O49   O     O_R   0.939830 0.397070 0.737150 -0.631118
O50   O     O_R   0.060170 0.602930 0.262850 -0.631323
O51   O     O_R   0.397070 0.060170 0.737150 -0.631281
O52   O     O_R   0.602930 0.939830 0.262850 -0.631377
O53   O     O_2   0.501307 0.091513 0.594150 -0.497677
O54   O     O_2   0.506077 0.908676 0.405853 -0.492321
O55   O     O_2   0.908681 0.506095 0.594147 -0.492212
O56   O     O_2   0.091510 0.501361 0.405849 -0.497587
O57   O     O_2   0.498694 0.908489 0.594151 -0.497577
O58   O     O_2   0.493921 0.091322 0.405853 -0.492225
O59   O     O_2   0.091326 0.493909 0.594146 -0.492304
O60   O     O_2   0.908489 0.498641 0.405851 -0.497684
O61   O     O_2   0.001295 0.591512 0.094150 -0.498090
O62   O     O_2   0.006062 0.408671 0.905853 -0.492379
O63   O     O_2   0.408463 0.004832 0.094139 -0.495698
O64   O     O_2   0.591468 0.002391 0.905859 -0.497750
O65   O     O_2   0.998704 0.408488 0.094151 -0.497723
O66   O     O_2   0.993933 0.591322 0.905853 -0.492336
O67   O     O_2   0.591249 0.995104 0.094161 -0.495562
O68   O     O_2   0.408487 0.997627 0.905838 -0.497920
Zn1   Zn    Zn3+2 0.561090 0.000000 0.731040 1.002102
Zn2   Zn    Zn3+2 0.438910 0.000000 0.268960 1.002285
Zn3   Zn    Zn3+2 0.000000 0.561090 0.731040 1.002346
Zn4   Zn    Zn3+2 0.000000 0.438910 0.268960 1.002099
Zn5   Zn    Zn3+2 0.438910 0.000000 0.731040 1.002104
Zn6   Zn    Zn3+2 0.561090 0.000000 0.268960 1.002345
Zn7   Zn    Zn3+2 0.000000 0.438910 0.731040 1.002353
Zn8   Zn    Zn3+2 0.000000 0.561090 0.268960 1.002064
Zn9   Zn    Zn3+2 0.061090 0.500000 0.231040 1.001872
Zn10  Zn    Zn3+2 0.938910 0.500000 0.768960 1.002317
Zn11  Zn    Zn3+2 0.500000 0.061090 0.231040 1.002153
Zn12  Zn    Zn3+2 0.500000 0.938910 0.768960 1.002063
Zn13  Zn    Zn3+2 0.938910 0.500000 0.231040 1.001949
Zn14  Zn    Zn3+2 0.061090 0.500000 0.768960 1.002316
Zn15  Zn    Zn3+2 0.500000 0.938910 0.231040 1.001949
Zn16  Zn    Zn3+2 0.500000 0.061090 0.768960 1.002075
S1    S     S_3+6 0.608107 0.002308 0.615533 0.056319
O69   O     O_2   0.612220 0.052002 0.602435 -0.270411
O70   O     O_2   0.652494 0.999480 0.631811 -0.266632
O71   O     O_3   0.611831 0.951419 0.597994 -0.534228
H81   H     H_    0.642610 0.958595 0.588540 0.389887
S2    S     S_3+6 0.608224 0.997936 0.384392 0.072785
O72   O     O_2   0.614914 0.945777 0.395398 -0.272394
O73   O     O_2   0.652289 0.006106 0.368292 -0.241137
O74   O     O_3   0.610247 0.045201 0.403794 -0.511343
H82   H     H_    0.612929 0.027005 0.418297 0.365374
S3    S     S_3+6 0.997937 0.608226 0.615608 0.072936
O75   O     O_2   0.945769 0.614928 0.604611 -0.272150
O76   O     O_2   0.006131 0.652288 0.631707 -0.240993
O77   O     O_3   0.045184 0.610242 0.596197 -0.511395
H83   H     H_    0.026973 0.612922 0.581698 0.365367
S4    S     S_3+6 0.002258 0.608108 0.384466 0.056199
O78   O     O_2   0.051958 0.612250 0.397558 -0.270381
O79   O     O_2   0.999393 0.652493 0.368189 -0.266778
O80   O     O_3   0.951378 0.611802 0.402012 -0.534381
H84   H     H_    0.958562 0.642560 0.411477 0.389842
S5    S     S_3+6 0.391894 0.997695 0.615534 0.056201
O81   O     O_2   0.387780 0.948002 0.602436 -0.270357
O82   O     O_2   0.347507 0.000524 0.631812 -0.266801
O83   O     O_3   0.388170 0.048584 0.597994 -0.534375
H85   H     H_    0.357394 0.041407 0.588540 0.389860
S6    S     S_3+6 0.391775 0.002062 0.384393 0.072911
O84   O     O_2   0.385084 0.054220 0.395399 -0.272186
O85   O     O_2   0.347710 0.993891 0.368293 -0.241016
O86   O     O_3   0.389752 0.954796 0.403795 -0.511388
H86   H     H_    0.387070 0.972993 0.418297 0.365373
S7    S     S_3+6 0.002075 0.391774 0.615608 0.072820
O87   O     O_2   0.054244 0.385076 0.604612 -0.272359
O88   O     O_2   0.993883 0.347712 0.631707 -0.241100
O89   O     O_3   0.954829 0.389754 0.596197 -0.511293
H87   H     H_    0.973045 0.387107 0.581697 0.365323
S8    S     S_3+6 0.997740 0.391894 0.384467 0.056311
O90   O     O_2   0.948041 0.387753 0.397559 -0.270434
O91   O     O_2   0.000604 0.347509 0.368189 -0.266618
O92   O     O_3   0.048620 0.388199 0.402012 -0.534238
H88   H     H_    0.041441 0.357437 0.411474 0.389870
S9    S     S_3+6 0.108106 0.502321 0.115533 0.055652
O93   O     O_2   0.112213 0.552016 0.102436 -0.271343
O94   O     O_2   0.152494 0.499497 0.131811 -0.267303
O95   O     O_3   0.111837 0.451433 0.097993 -0.534293
H89   H     H_    0.142574 0.458645 0.088521 0.389618
S10   S     S_3+6 0.108225 0.497895 0.884392 0.072648
O96   O     O_2   0.114908 0.445723 0.895388 -0.272469
O97   O     O_2   0.152291 0.506073 0.868293 -0.241244
O98   O     O_3   0.110260 0.545140 0.903803 -0.511498
H90   H     H_    0.112878 0.526924 0.918303 0.365222
S11   S     S_3+6 0.498153 0.108188 0.115581 0.069797
O99   O     O_2   0.446638 0.114244 0.103970 -0.277243
O100  O     O_2   0.504811 0.152390 0.131740 -0.240322
O101  O     O_3   0.546602 0.110662 0.096731 -0.512152
H91   H     H_    0.529313 0.113825 0.082045 0.364601
S12   S     S_3+6 0.501436 0.108132 0.884462 0.056098
O102  O     O_2   0.551268 0.112806 0.897429 -0.269982
O103  O     O_2   0.497879 0.152479 0.868190 -0.266886
O104  O     O_3   0.450760 0.111295 0.902134 -0.535065
H92   H     H_    0.457736 0.142142 0.911574 0.389795
S13   S     S_3+6 0.891893 0.497681 0.115534 0.055853
O105  O     O_2   0.887786 0.447986 0.102437 -0.270611
O106  O     O_2   0.847505 0.500506 0.131812 -0.267188
O107  O     O_3   0.888163 0.548568 0.097994 -0.534595
H93   H     H_    0.857424 0.541357 0.088522 0.389636
S14   S     S_3+6 0.891773 0.502092 0.884392 0.072809
O108  O     O_2   0.885088 0.554261 0.895389 -0.272271
O109  O     O_2   0.847708 0.493912 0.868293 -0.241106
O110  O     O_3   0.889744 0.454843 0.903802 -0.511501
H94   H     H_    0.887069 0.473052 0.918301 0.365320
S15   S     S_3+6 0.501011 0.891837 0.115562 0.058195
O111  O     O_2   0.551921 0.885921 0.103485 -0.265553
O112  O     O_2   0.494839 0.847647 0.131768 -0.268056
O113  O     O_3   0.452003 0.889809 0.097017 -0.535848
H95   H     H_    0.459610 0.859296 0.087470 0.389501
S16   S     S_3+6 0.498543 0.891880 0.884465 0.056138
O114  O     O_2   0.448700 0.887206 0.897424 -0.270271
O115  O     O_2   0.502118 0.847530 0.868196 -0.266693
O116  O     O_3   0.549203 0.888723 0.902146 -0.534887
H96   H     H_    0.542188 0.857915 0.911604 0.389734

loop_
_geom_bond_atom_site_label_1
_geom_bond_atom_site_label_2
_ccdc_geom_bond_type
O92   H88   S    
C92   H68   S    
C137  H32   S    
C93   H69   S    
C160  C176  S    
C77   C101  A    
C76   C79   A    
C95   H71   S    
C209  O61   S    
O98   H90   S    
C65   C89   A    
C124  C133  A    
C214  O66   S    
O36   Zn14  S    
C5    O17   A    
C69   C93   A    
C13   C225  A    
C33   C209  A    
C21   C33   A    
O2    Zn15  S    
C22   C38   A    
C154  C170  S    
O107  H93   S    
S6    O86   S    
C158  C174  S    
C118  O34   A    
O95   H89   S    
C205  N1    A    
S6    O85   D    
C40   C216  A    
C52   H60   S    
C242  H46   S    
C60   C240  A    
C53   H61   S    
C230  C246  A    
C126  C158  A    
C103  H79   S    
S15   O112  D    
C46   C97   A    
C38   C214  A    
C79   C87   A    
C101  H77   S    
C61   C241  A    
C59   C235  A    
C18   C85   A    
C23   C84   A    
C248  H44   S    
C123  C134  A    
C231  S11   S    
C218  S6    S    
C25   C41   A    
C244  H48   S    
S5    O83   S    
C118  O44   A    
C20   C28   A    
C245  H41   S    
C4    C61   S    
C28   C44   A    
S16   O116  S    
C29   C45   A    
C31   C207  A    
C55   C92   A    
C238  H34   S    
C8    C57   S    
C66   C82   A    
C228  C244  A    
C129  H8    S    
C114  O30   A    
C127  H10   S    
C108  C195  S    
C104  H80   S    
C133  H4    S    
C72   C84   A    
C36   C212  A    
C169  C200  T    
C6    O18   A    
O39   Zn6   S    
C35   C51   A    
C120  C191  S    
C135  H2    S    
C161  C177  S    
C106  O48   A    
S4    O78   D    
O9    Zn12  S    
C16   C228  A    
O23   Zn14  S    
C211  N7    A    
C113  O39   A    
C119  O35   A    
C231  C247  A    
C144  C145  A    
C115  O37   A    
O22   Zn11  S    
C207  O59   S    
C204  N4    A    
C138  C151  A    
C76   C100  A    
C63   C247  A    
C139  C150  A    
O7    Zn10  S    
C39   C215  A    
C210  O62   S    
C17   C25   A    
C149  C155  A    
C80   C88   A    
C223  C239  A    
C142  C164  A    
O101  H91   S    
C9    N1    S    
C237  H33   S    
C68   C92   A    
C120  O42   A    
C151  C153  A    
C1    O5    A    
S14   O108  D    
C70   C82   A    
C14   C230  A    
C62   C246  A    
C10   C222  A    
C3    O7    A    
C72   C96   A    
C71   C95   A    
S10   O96   D    
C4    O12   A    
C89   H65   S    
C142  H27   S    
C143  C161  A    
C57   C237  A    
C67   C83   A    
S1    O69   D    
C166  C182  S    
C128  C129  A    
C96   H72   S    
C221  S1    S    
C74   C98   A    
O74   H82   S    
C113  C190  S    
C222  C238  A    
C24   C36   A    
O32   Zn10  S    
C27   C203  A    
C206  O58   S    
C147  H22   S    
C25   C201  A    
C180  C189  T    
C12   N4    S    
C145  C159  A    
C226  C242  A    
C146  C160  A    
C65   C70   A    
C20   C87   A    
C210  N6    A    
C29   C205  A    
C184  C185  T    
S14   O110  S    
C138  C168  A    
C67   C72   A    
C139  C165  A    
C43   C104  A    
C230  S10   S    
C1    O9    A    
C34   C210  A    
C110  O26   A    
S8    O90   D    
C74   C77   A    
C143  H26   S    
C94   H70   S    
O89   H87   S    
C45   H53   S    
C176  C193  T    
C32   C208  A    
C56   H64   S    
C36   C52   A    
S4    O80   S    
S7    O89   S    
C229  C245  A    
C130  C162  A    
C216  O68   S    
C77   C85   A    
C224  S4    S    
C10   N2    S    
C79   C103  A    
C229  S9    S    
C110  C193  S    
S16   O115  D    
C170  C199  T    
C44   C103  A    
C2    O6    A    
C71   C83   A    
C22   C34   A    
C116  C187  S    
C233  H37   S    
C219  C235  A    
O51   Zn5   S    
C119  C192  S    
C183  C186  T    
C148  C158  A    
C156  C172  S    
C114  O40   A    
O83   H85   S    
C232  C248  A    
O2    Zn6   S    
C9    C221  A    
C111  C200  S    
C116  O32   A    
C151  H18   S    
S3    O75   D    
C64   C248  A    
C214  N6    A    
C173  C196  T    
C75   C99   A    
S13   O105  D    
O25   Zn16  S    
C129  C161  A    
O11   Zn14  S    
O26   Zn15  S    
S14   O109  D    
C224  C240  A    
C73   C85   A    
C4    O8    A    
O4    Zn4   S    
C75   C87   A    
O71   H81   S    
S1    O71   S    
C163  C179  S    
C51   H59   S    
C153  C169  S    
C106  C197  S    
C42   C101  A    
C11   C219  A    
C7    O15   A    
C2    C63   S    
C26   C42   A    
C20   C32   A    
C3    C62   S    
C9    C217  A    
C2    O10   A    
C246  H42   S    
C5    C60   S    
C15   C231  A    
C112  O28   A    
C6    C59   S    
C30   C46   A    
O13   Zn8   S    
C105  O21   A    
O4    Zn9   S    
C228  S16   S    
C107  O23   A    
C128  H9    S    
C107  C196  S    
C124  H13   S    
S8    O92   S    
O1    Zn1   S    
C204  O56   S    
O40   Zn5   S    
O17   Zn4   S    
C12   C220  A    
O37   Zn4   S    
O38   Zn3   S    
C13   N5    S    
C162  C178  S    
S7    O87   D    
C99   H75   S    
C21   C82   A    
O86   H86   S    
C240  H36   S    
C247  H43   S    
O1    Zn12  S    
C135  C167  A    
C202  N2    A    
C140  C149  A    
C16   N8    S    
C147  C157  A    
O20   Zn5   S    
C143  C146  A    
O44   Zn1   S    
C1    C64   S    
O41   Zn8   S    
C78   C102  A    
C17   C29   A    
O42   Zn7   S    
O104  H92   S    
C18   C26   A    
C19   C31   A    
S9    O95   S    
O77   H83   S    
C66   C90   A    
C123  C155  A    
C125  H12   S    
C10   C218  A    
C121  C153  A    
C126  H11   S    
C80   C104  A    
C145  H24   S    
C3    O11   A    
C146  H23   S    
C70   C94   A    
C24   C83   A    
C216  N8    A    
C14   C226  A    
C171  C198  T    
C49   H57   S    
C45   C98   A    
C121  H16   S    
C241  H45   S    
C125  C157  A    
C122  H15   S    
S5    O82   D    
O3    Zn7   S    
S2    O72   D    
C123  H14   S    
C33   C49   A    
O19   Zn6   S    
S13   O107  S    
O1    Zn5   S    
C52   C95   A    
O10   Zn11  S    
C55   H63   S    
C12   C224  A    
C90   H66   S    
C41   H49   S    
C181  C188  T    
C56   C91   A    
C39   C55   A    
C206  N2    A    
S4    O79   D    
C40   C56   A    
C117  O33   A    
C5    O13   A    
C134  C166  A    
C137  C152  A    
C227  S15   S    
C164  C180  S    
C130  H7    S    
O43   Zn2   S    
C174  C195  T    
C177  C192  T    
C31   C47   A    
C32   C48   A    
C134  H3    S    
C142  C147  A    
C37   C213  A    
S12   O102  D    
C50   H58   S    
C118  C185  S    
C201  O53   S    
O31   Zn9   S    
C14   N6    S    
C140  C166  A    
C15   N7    S    
C17   C86   A    
C68   C84   A    
C22   C81   A    
S3    O76   D    
C19   C88   A    
C203  N3    A    
O28   Zn9   S    
C42   H50   S    
S9    O93   D    
C217  S5    S    
C144  H25   S    
O35   Zn13  S    
O80   H84   S    
C132  C164  A    
C133  C165  A    
O33   Zn15  S    
C212  N8    A    
C65   C81   A    
C38   C54   A    
C131  C163  A    
C67   C91   A    
C7    C58   S    
C222  S2    S    
C115  O31   A    
C7    O19   A    
C132  H5    S    
C109  C194  S    
O48   Zn2   S    
C105  C198  S    
O3    Zn14  S    
C23   C35   A    
C100  H76   S    
S15   O113  S    
C136  H1    S    
C217  C233  A    
C137  C167  A    
C48   C99   A    
S12   O103  D    
C140  H29   S    
C58   C234  A    
C225  S13   S    
C64   C244  A    
C152  H17   S    
S10   O98   S    
C117  C186  S    
C112  O50   A    
S11   O100  D    
O4    Zn8   S    
C208  N4    A    
C215  O67   S    
C68   C71   A    
C213  O65   S    
C119  O41   A    
C121  C136  A    
C122  C135  A    
C69   C81   A    
C212  O64   S    
C13   C229  A    
C27   C43   A    
C21   C37   A    
S8    O91   D    
C15   C227  A    
C53   C90   A    
O5    Zn16  S    
O50   Zn8   S    
O6    Zn15  S    
C149  H20   S    
C61   C245  A    
S12   O104  S    
O4    Zn13  S    
C157  C173  S    
S7    O88   D    
O12   Zn13  S    
C111  O27   A    
S6    O84   D    
O2    Zn11  S    
C138  H31   S    
C139  H30   S    
C60   C236  A    
S11   O99   D    
C54   H62   S    
C131  H6    S    
C41   C102  A    
C73   C97   A    
O3    Zn10  S    
C26   C202  A    
C227  C243  A    
C66   C69   A    
C243  H47   S    
O116  H96   S    
C30   C206  A    
C225  C241  A    
C11   C223  A    
C35   C211  A    
O45   Zn3   S    
C141  C148  A    
C24   C40   A    
C208  O60   S    
O34   Zn16  S    
C221  C237  A    
O21   Zn12  S    
O14   Zn7   S    
C168  C184  S    
C8    O16   A    
C235  H39   S    
S15   O111  D    
C18   C30   A    
C49   C94   A    
C219  S7    S    
C75   C80   A    
C76   C88   A    
C112  C199  S    
C6    O14   A    
C51   C96   A    
C78   C86   A    
C114  C189  S    
C8    O20   A    
S1    O70   D    
C159  C175  S    
C178  C191  T    
C122  C154  A    
O46   Zn4   S    
C113  O29   A    
C19   C27   A    
C116  O38   A    
C62   C242  A    
S3    O77   S    
O3    Zn3   S    
O18   Zn3   S    
S9    O94   D    
C220  C236  A    
C167  C183  S    
C34   C50   A    
C28   C204  A    
C218  C234  A    
C54   C89   A    
C108  O24   A    
S11   O101  S    
C97   H73   S    
O24   Zn13  S    
O49   Zn7   S    
C91   H67   S    
C136  C168  A    
C108  O46   A    
C234  H38   S    
C239  H35   S    
C16   C232  A    
C47   C100  A    
C109  O25   A    
C59   C239  A    
C46   H54   S    
O52   Zn6   S    
C73   C78   A    
C63   C243  A    
C44   H52   S    
C213  N5    A    
C172  C197  T    
O15   Zn2   S    
O2    Zn2   S    
O8    Zn9   S    
C74   C86   A    
C211  O63   S    
C215  N7    A    
C236  H40   S    
C202  O54   S    
C152  C154  A    
C141  C163  A    
C207  N3    A    
C124  C156  A    
O29   Zn11  S    
C127  C159  A    
O27   Zn10  S    
O30   Zn12  S    
C128  C160  A    
C209  N5    A    
O110  H94   S    
C43   H51   S    
O113  H95   S    
C223  S3    S    
C175  C194  T    
C144  C162  A    
C220  S8    S    
C111  O49   A    
C47   H55   S    
C106  O22   A    
C48   H56   S    
C109  O51   A    
C57   C233  A    
C50   C93   A    
C110  O52   A    
C150  C156  A    
S10   O97   D    
C165  C181  S    
C127  C130  A    
C37   C53   A    
C58   C238  A    
O47   Zn1   S    
C115  C188  S    
C125  C132  A    
S5    O81   D    
C179  C190  T    
S2    O73   D    
C126  C131  A    
C23   C39   A    
O16   Zn1   S    
S16   O114  D    
S13   O106  D    
C205  O57   S    
C182  C187  T    
C102  H78   S    
C117  O43   A    
C203  O55   S    
C105  O47   A    
C155  C171  S    
C98   H74   S    
C120  O36   A    
O1    Zn16  S    
C232  S12   S    
C107  O45   A    
C11   N3    S    
C141  H28   S    
C226  S14   S    
C201  N1    A    
C150  H19   S    
C148  H21   S    
S2    O74   S    
