data_mof_unit_28279.cif
_audit_creation_date              2012-12-10T18:50:48-0500
_audit_creation_method            fapswitch 2.2
_symmetry_space_group_name_H-M    P1
_symmetry_Int_Tables_number       1
_space_group_crystal_system       triclinic
_cell_length_a                    10.67996
_cell_length_b                    9.95126
_cell_length_c                    15.74098
_cell_angle_alpha                 87.074362
_cell_angle_beta                  92.077989
_cell_angle_gamma                 90.678912
_cell_volume                      1669.57358552

loop_
_atom_site_label
_atom_site_type_symbol
_atom_type_description
_atom_site_fract_x
_atom_site_fract_y
_atom_site_fract_z
_atom_type_partial_charge
C1    C     C_R   0.259886 0.499669 0.495957 0.952115
C2    C     C_3   0.634488 0.436785 0.958594 -0.095910
C3    C     C_3   0.630394 0.452177 0.059192 1.030369
C4    C     C_1   0.497554 0.488045 0.826035 0.188241
C5    C     C_1   0.502755 0.514470 0.174783 0.166701
C6    C     C_1   0.502419 0.511214 0.250002 -0.130901
C7    C     C_R   0.062401 0.376722 0.481043 -0.246412
C8    C     C_R   0.064845 0.620552 0.464024 -0.243729
C9    C     C_R   0.934043 0.376700 0.473973 0.573647
C10   C     C_R   0.936187 0.620276 0.456777 0.564145
C11   C     C_R   0.870444 0.499726 0.473094 -0.295957
C12   C     C_R   0.127087 0.499195 0.482265 -0.240035
C13   C     C_R   0.566006 0.066403 0.561854 0.023577
C14   C     C_R   0.581989 0.926099 0.552752 0.007873
C15   C     C_R   0.500494 0.503279 0.338617 0.895176
C16   C     C_R   0.422399 0.931817 0.445357 0.554096
C17   C     C_R   0.427195 0.075154 0.442402 0.566688
C18   C     C_R   0.738871 0.500771 0.490796 0.898619
C19   C     C_R   0.498397 0.496852 0.661572 0.835547
C20   C     C_3   0.487350 0.654525 0.037659 -0.290663
C21   C     C_3   0.396141 0.407370 0.053894 -0.274758
C22   C     C_3   0.389944 0.405926 0.954693 1.056623
C23   C     C_3   0.477079 0.642166 0.939395 1.049722
C24   C     C_1   0.497029 0.490010 0.750601 -0.145874
C25   C     C_3   0.500654 0.509647 0.083238 -0.180167
C26   C     C_3   0.501960 0.491833 0.918079 -0.274121
H1    H     H_    0.430365 0.306455 0.076027 0.202409
H2    H     H_    0.580150 0.703559 0.049089 0.197027
H3    H     H_    0.110346 0.281150 0.486692 0.222150
H4    H     H_    0.115098 0.715250 0.455630 0.237022
N1    N     N_R   0.499970 0.857200 0.499980 -0.173290
N2    N     N_R   0.499970 0.142800 0.499980 -0.165889
O1    O     O_R   0.316750 0.614620 0.499990 -0.584535
O2    O     O_R   0.316750 0.385380 0.499990 -0.596019
O3    O     O_R   0.499990 0.614720 0.377140 -0.572903
O4    O     O_R   0.499990 0.385280 0.377140 -0.551993
O5    O     O_R   0.683220 0.614710 0.500000 -0.607203
O6    O     O_R   0.683220 0.385290 0.500000 -0.578592
O7    O     O_R   0.499980 0.614620 0.622860 -0.608844
O8    O     O_R   0.499980 0.385380 0.622860 -0.644990
Zn1   Zn    Zn3+2 0.499980 0.653120 0.500000 1.031029
Zn2   Zn    Zn3+2 0.499980 0.346880 0.500000 1.028336
F1    F     F_    0.361098 0.681303 0.905555 -0.622937
F2    F     F_    0.276977 0.455533 0.921029 -0.643918
F3    F     F_    0.344239 0.868335 0.390329 -0.625484
F4    F     F_    0.353754 0.145531 0.384324 -0.629131
C27   C     C_3   0.399905 0.758762 0.077321 -0.329174
C28   C     C_3   0.261678 0.766086 0.046112 -0.269846
C29   C     C_3   0.178551 0.818326 0.113906 -0.863678
H5    H     H_    0.178583 0.747058 0.170583 0.276784
H6    H     H_    0.212620 0.918525 0.133340 0.281315
H7    H     H_    0.080923 0.828557 0.087925 0.260469
H8    H     H_    0.253112 0.836592 0.989144 0.278955
H9    H     H_    0.225850 0.667243 0.027583 0.260766
H10   H     H_    0.405177 0.744262 0.147690 0.220303
H11   H     H_    0.440281 0.861163 0.064542 0.203882
C30   C     C_3   0.266815 0.419393 0.096912 -0.375818
C31   C     C_3   0.242951 0.303527 0.163129 -0.377864
C32   C     C_3   0.121849 0.324065 0.209294 -0.728913
H12   H     H_    0.127799 0.418183 0.244364 0.254196
H13   H     H_    0.040680 0.329708 0.163107 0.265763
H14   H     H_    0.106726 0.238194 0.255779 0.287930
H15   H     H_    0.236200 0.206793 0.130799 0.243874
H16   H     H_    0.321916 0.296792 0.211051 0.270056
H17   H     H_    0.262879 0.514384 0.130326 0.221821
H18   H     H_    0.187200 0.419176 0.049872 0.258290
F5    F     F_    0.394168 0.274581 0.929937 -0.686537
F6    F     F_    0.560312 0.730614 0.899811 -0.720705
F7    F     F_    0.724580 0.538187 0.088014 -0.676317
F8    F     F_    0.651706 0.333191 0.106206 -0.688953
C33   C     C_3   0.744412 0.529452 0.922410 -0.334138
C34   C     C_3   0.879863 0.482794 0.945163 -0.325748
C35   C     C_3   0.970961 0.601922 0.947496 -0.793172
H19   H     H_    0.961120 0.666565 0.888097 0.260144
H20   H     H_    0.953425 0.662703 0.002999 0.274379
H21   H     H_    0.067892 0.564030 0.952918 0.289728
H22   H     H_    0.885570 0.425524 0.007597 0.278418
H23   H     H_    0.912294 0.416567 0.895797 0.212494
H24   H     H_    0.735359 0.541347 0.851889 0.189825
H25   H     H_    0.737008 0.631349 0.946499 0.278543
C36   C     C_3   0.658831 0.287459 0.928477 -0.321378
C37   C     C_3   0.639590 0.160625 0.987668 -0.271355
C38   C     C_3   0.640388 0.032263 0.938394 -0.810354
H26   H     H_    0.561935 0.032224 0.890076 0.305927
H27   H     H_    0.730670 0.022775 0.906499 0.252266
H28   H     H_    0.629334 0.943738 0.983354 0.274730
H29   H     H_    0.718342 0.152016 0.035686 0.267897
H30   H     H_    0.550238 0.162054 0.020507 0.273929
H31   H     H_    0.604455 0.271822 0.868476 0.225637
H32   H     H_    0.756009 0.277755 0.908951 0.178373
F9    F     F_    0.873705 0.257040 0.466440 -0.653167
F10   F     F_    0.877763 0.735573 0.430331 -0.653408
C39   C     C_3   0.605907 0.119759 0.647932 -0.320455
C40   C     C_3   0.729446 0.201678 0.649021 -0.273201
C41   C     C_3   0.813224 0.165952 0.727055 -0.969773
H33   H     H_    0.761165 0.179045 0.785105 0.261536
H34   H     H_    0.843622 0.060198 0.726883 0.281498
H35   H     H_    0.897378 0.232586 0.727636 0.272941
H36   H     H_    0.783016 0.183692 0.592333 0.290654
H37   H     H_    0.710654 0.310499 0.649978 0.231931
H38   H     H_    0.528003 0.172651 0.675202 0.212578
H39   H     H_    0.615576 0.033430 0.694871 0.194722
C42   C     C_3   0.713787 0.874570 0.575664 -0.266085
C43   C     C_3   0.734095 0.785024 0.657704 -0.345106
C44   C     C_3   0.873531 0.765848 0.679888 -0.885027
H40   H     H_    0.921777 0.863239 0.689644 0.271542
H41   H     H_    0.884700 0.701276 0.739215 0.253484
H42   H     H_    0.919316 0.715479 0.628049 0.273209
H43   H     H_    0.687967 0.826834 0.712339 0.241636
H44   H     H_    0.697904 0.683239 0.649242 0.256296
H45   H     H_    0.748728 0.827790 0.520462 0.286972
H46   H     H_    0.779408 0.961016 0.580298 0.207625

loop_
_geom_bond_atom_site_label_1
_geom_bond_atom_site_label_2
_ccdc_geom_bond_type
C11   C18   S    
C39   C40   S    
C7    H3    S    
C35   H19   S    
C13   N2    A    
O4    Zn2   S    
C41   H33   S    
O2    Zn2   S    
C14   N1    A    
C9    F9    S    
C33   H24   S    
C36   C37   S    
C30   C31   S    
C41   H35   S    
C1    O1    A    
O7    Zn1   S    
C16   N1    A    
C28   H9    S    
C44   H41   S    
C3    F7    S    
C18   O5    A    
O6    Zn2   S    
C5    C6    T    
C4    C24   T    
C20   C25   S    
C37   H29   S    
C23   F1    S    
C42   H45   S    
C23   C26   S    
C43   C44   S    
C34   H23   S    
C6    C15   S    
C22   F2    S    
C27   C28   S    
C16   C17   A    
C29   H6    S    
C30   H18   S    
C36   H31   S    
O8    Zn2   S    
C21   H1    S    
C10   F10   S    
C32   H12   S    
C21   C22   S    
C35   H20   S    
C7    C12   A    
C1    C12   S    
C15   O3    A    
C33   H25   S    
C1    O2    A    
C31   H16   S    
C28   H8    S    
C44   H42   S    
C32   H13   S    
C3    C25   S    
C3    F8    S    
C17   F4    S    
C10   C11   A    
C39   H38   S    
C20   H2    S    
C31   C32   S    
C13   C39   S    
C42   H46   S    
C23   F6    S    
C39   H39   S    
C21   C30   S    
C34   H22   S    
C38   H26   S    
C20   C23   S    
C40   H37   S    
C8    C12   A    
C29   H7    S    
C2    C26   S    
C9    C11   A    
C19   O7    A    
C5    C25   S    
C36   H32   S    
C28   C29   S    
C38   H27   S    
C37   C38   S    
C35   H21   S    
C2    C33   S    
C15   O4    A    
C27   H10   S    
C31   H15   S    
C7    C9    A    
C21   C25   S    
C32   H14   S    
N1    Zn1   S    
C30   H17   S    
C34   C35   S    
C16   F3    S    
C4    C26   S    
C41   H34   S    
C44   H40   S    
C8    H4    S    
C2    C3    S    
C18   O6    A    
O1    Zn1   S    
C33   C34   S    
C43   H44   S    
C14   C42   S    
C43   H43   S    
C40   H36   S    
C37   H30   S    
C19   C24   S    
O5    Zn1   S    
C40   C41   S    
O3    Zn1   S    
C22   F5    S    
C20   C27   S    
C19   O8    A    
C38   H28   S    
C8    C10   A    
C29   H5    S    
C22   C26   S    
C42   C43   S    
C17   N2    A    
N2    Zn2   S    
C2    C36   S    
C13   C14   A    
C27   H11   S    
