data_mof_unit_19077.cif
_audit_creation_date              2013-03-05T15:50:31-0500
_audit_creation_method            fapswitch 2.2
_symmetry_space_group_name_H-M    P1
_symmetry_Int_Tables_number       1
_space_group_crystal_system       triclinic
_cell_length_a                    15.016454
_cell_length_b                    15.060522
_cell_length_c                    34.950521
_cell_angle_alpha                 91.631191
_cell_angle_beta                  91.839772
_cell_angle_gamma                 59.952698
_cell_volume                      6837.79419694

loop_
_atom_site_label
_atom_site_type_symbol
_atom_site_description
_atom_site_fract_x
_atom_site_fract_y
_atom_site_fract_z
_atom_type_partial_charge
O1    O     O_R   0.324990 0.503440 0.453910 -0.491080
O2    O     O_R   0.522030 0.339050 0.458320 -0.515727
C1    C     C_R   0.610931 0.302617 0.443943 0.536200
O3    O     O_R   0.676180 0.324490 0.458320 -0.517021
O4    O     O_R   0.643570 0.521510 0.464260 -0.508783
C2    C     C_R   0.593273 0.609321 0.449120 0.561368
O5    O     O_R   0.504630 0.675350 0.460920 -0.487972
O6    O     O_R   0.339850 0.642450 0.459830 -0.487380
C3    C     C_R   0.351484 0.564613 0.438864 0.553922
O7    O     O_R   0.321120 0.501280 0.538470 -0.488837
O8    O     O_R   0.518440 0.337050 0.536710 -0.501892
C4    C     C_R   0.605356 0.301132 0.553856 0.545606
O9    O     O_R   0.672300 0.322330 0.542880 -0.514020
O10   O     O_R   0.639980 0.519500 0.542640 -0.500707
C5    C     C_R   0.588744 0.607411 0.558445 0.548220
O11   O     O_R   0.500750 0.673190 0.545480 -0.509590
O12   O     O_R   0.336260 0.640450 0.538210 -0.491961
C6    C     C_R   0.297205 0.589813 0.551377 0.594887
Cr1   Cr    Cr6+3 0.426010 0.422500 0.497000 1.040747
Cr2   Cr    Cr6+3 0.651300 0.426310 0.501970 1.023221
Cr3   Cr    Cr6+3 0.422670 0.651170 0.501050 1.060892
O13   O     O_3   0.499990 0.499990 0.500010 -0.278455
C7    C     C_R   0.732904 0.709400 0.100132 -0.011369
C8    C     C_R   0.644684 0.771496 0.121227 -0.122747
C9    C     C_R   0.636431 0.744291 0.157787 -0.171551
C10   C     C_R   0.715336 0.654041 0.173969 -0.009582
C11   C     C_R   0.802919 0.586615 0.152365 0.059123
C12   C     C_R   0.810327 0.616336 0.115353 -0.129699
C13   C     C_R   0.671422 0.575084 0.227779 0.325816
C14   C     C_R   0.659159 0.571892 0.267092 -0.078208
C15   C     C_R   0.674542 0.636804 0.292780 -0.029055
C16   C     C_R   0.704640 0.703858 0.279115 -0.130210
C17   C     C_R   0.719982 0.705807 0.240334 -0.163133
C18   C     C_R   0.705259 0.641093 0.214571 0.046914
C19   C     C_R   0.606425 0.723573 0.355719 -0.121966
C20   C     C_R   0.590440 0.719959 0.394873 0.041377
C21   C     C_R   0.688951 0.533084 0.390235 -0.146238
C22   C     C_R   0.704955 0.538141 0.351789 -0.125632
C23   C     C_R   0.661409 0.632985 0.334019 -0.000826
C24   C     C_R   0.628393 0.622852 0.411950 -0.001375
H1    H     H_    0.583424 0.843424 0.110126 0.177618
H2    H     H_    0.877595 0.567917 0.098537 0.174431
H3    H     H_    0.749849 0.467519 0.335695 0.131078
H4    H     H_    0.636026 0.519523 0.277523 0.113502
H5    H     H_    0.569181 0.795671 0.174174 0.130365
H6    H     H_    0.718140 0.753300 0.298577 0.162383
H7    H     H_    0.743430 0.758168 0.230183 0.163668
H8    H     H_    0.575298 0.797085 0.341919 0.155032
H9    H     H_    0.719536 0.457590 0.402316 0.153713
C25   C     C_R   0.111064 0.723528 0.082859 0.015333
C26   C     C_R   0.168733 0.624549 0.098031 -0.109974
C27   C     C_R   0.206976 0.611064 0.135463 -0.080910
C28   C     C_R   0.189967 0.695922 0.158170 0.050691
C29   C     C_R   0.140591 0.794038 0.142209 -0.106745
C30   C     C_R   0.101082 0.807918 0.104638 -0.122611
C31   C     C_R   0.293201 0.694298 0.215412 -0.165596
C32   C     C_R   0.320942 0.673965 0.253989 -0.130420
C33   C     C_R   0.267157 0.643441 0.277354 -0.006314
C34   C     C_R   0.183732 0.636166 0.261828 -0.104204
C35   C     C_R   0.155937 0.653978 0.222561 0.294531
C36   C     C_R   0.212980 0.682279 0.199517 0.045203
C37   C     C_R   0.294323 0.535956 0.334576 -0.122013
C38   C     C_R   0.311708 0.518376 0.373753 -0.122038
C39   C     C_R   0.338907 0.663610 0.380696 -0.120481
C40   C     C_R   0.320847 0.681589 0.341491 -0.103690
C41   C     C_R   0.296347 0.619137 0.318184 0.034356
C42   C     C_R   0.331915 0.583376 0.397388 0.015823
H10   H     H_    0.178396 0.557991 0.081839 0.144415
H11   H     H_    0.056302 0.885093 0.093777 0.141541
H12   H     H_    0.323146 0.746055 0.329642 0.127910
H13   H     H_    0.385604 0.680152 0.265357 0.118039
H14   H     H_    0.336011 0.716841 0.197616 0.108678
H15   H     H_    0.245585 0.534834 0.147358 0.115354
H16   H     H_    0.142199 0.615643 0.280955 0.102702
H17   H     H_    0.278255 0.484872 0.317116 0.096524
H18   H     H_    0.308583 0.454289 0.385516 0.129395
H19   H     H_    0.126703 0.860318 0.159577 0.141715
H20   H     H_    0.357362 0.713299 0.397979 0.150006
C43   C     C_R   0.724959 0.098382 0.087949 -0.099144
C44   C     C_R   0.803779 0.105167 0.108188 -0.155295
C45   C     C_R   0.798636 0.125353 0.147681 0.012423
C46   C     C_R   0.710567 0.141099 0.167183 -0.029690
C47   C     C_R   0.625715 0.146544 0.146436 0.228191
C48   C     C_R   0.631883 0.126643 0.106702 -0.005081
C49   C     C_R   0.686443 0.238214 0.228475 -0.083272
C50   C     C_R   0.674807 0.246400 0.267925 -0.120874
C51   C     C_R   0.683584 0.164060 0.288811 0.017107
C52   C     C_R   0.705455 0.071123 0.269819 0.092096
C53   C     C_R   0.715743 0.064798 0.229847 -0.050326
C54   C     C_R   0.705754 0.147911 0.209265 0.062022
C55   C     C_R   0.755595 0.165010 0.354892 0.063355
C56   C     C_R   0.734773 0.199736 0.393006 -0.125406
C57   C     C_R   0.554655 0.252591 0.383202 -0.124494
C58   C     C_R   0.573599 0.219528 0.345193 -0.098135
C59   C     C_R   0.672652 0.178273 0.330531 0.044789
C60   C     C_R   0.634266 0.246734 0.406970 -0.008040
H21   H     H_    0.874239 0.085410 0.093734 0.188812
H22   H     H_    0.509829 0.230560 0.326574 0.118299
H23   H     H_    0.659136 0.317273 0.282371 0.113674
H24   H     H_    0.679299 0.302520 0.212876 0.147527
H25   H     H_    0.730732 0.995334 0.214424 0.151371
H26   H     H_    0.796574 0.193654 0.411645 0.180155
H27   H     H_    0.476542 0.288589 0.393237 0.126306
C61   C     C_R   0.731469 0.746841 0.907703 -0.028737
C62   C     C_R   0.818573 0.672302 0.888438 -0.149714
C63   C     C_R   0.816224 0.662343 0.848907 -0.179158
C64   C     C_R   0.727168 0.727222 0.827887 0.038832
C65   C     C_R   0.639383 0.804597 0.846338 0.281344
C66   C     C_R   0.642249 0.812641 0.886622 -0.118550
C67   C     C_R   0.725649 0.619745 0.773616 -0.105421
C68   C     C_R   0.717413 0.603659 0.734641 -0.119066
C69   C     C_R   0.708633 0.676311 0.708200 0.027997
C70   C     C_R   0.711322 0.763998 0.721368 -0.113982
C71   C     C_R   0.719841 0.779831 0.760535 -0.088819
C72   C     C_R   0.724802 0.708737 0.786684 0.068352
C73   C     C_R   0.741339 0.565425 0.650153 -0.124537
C74   C     C_R   0.712144 0.548813 0.613721 -0.124396
C75   C     C_R   0.580017 0.728146 0.610645 -0.119526
C76   C     C_R   0.610310 0.745011 0.646995 -0.110878
C77   C     C_R   0.689164 0.662998 0.667467 0.038796
C78   C     C_R   0.628991 0.629265 0.594170 0.023922
H28   H     H_    0.888818 0.621244 0.903880 0.157443
H29   H     H_    0.575137 0.869310 0.901651 0.129863
H30   H     H_    0.568176 0.820768 0.659946 0.107386
H31   H     H_    0.713871 0.536278 0.725304 0.101702
H32   H     H_    0.729728 0.564271 0.793709 0.111744
H33   H     H_    0.883808 0.603240 0.834601 0.124101
H34   H     H_    0.705940 0.820355 0.701443 0.105328
H35   H     H_    0.722256 0.847220 0.770563 0.096091
H36   H     H_    0.802227 0.501018 0.665411 0.094346
H37   H     H_    0.751484 0.471743 0.601734 0.126996
H38   H     H_    0.515988 0.791562 0.596066 0.136720
C79   C     C_R   0.058016 0.700311 0.900818 0.024736
C80   C     C_R   0.044540 0.781577 0.877982 -0.132959
C81   C     C_R   0.065116 0.765719 0.839172 -0.122508
C82   C     C_R   0.101586 0.668059 0.822782 0.030845
C83   C     C_R   0.121195 0.585235 0.845774 -0.128407
C84   C     C_R   0.098778 0.601393 0.884621 -0.132600
C85   C     C_R   0.215912 0.583098 0.767931 -0.105929
C86   C     C_R   0.234983 0.577921 0.729021 -0.132373
C87   C     C_R   0.156258 0.642149 0.703455 0.036303
C88   C     C_R   0.057515 0.709668 0.716834 -0.079036
C89   C     C_R   0.038827 0.716037 0.755866 -0.124065
C90   C     C_R   0.118468 0.653882 0.781570 0.022893
C91   C     C_R   0.253758 0.665753 0.653798 -0.173607
C92   C     C_R   0.284588 0.657365 0.616396 -0.168429
C93   C     C_R   0.159475 0.606372 0.595414 0.045282
C94   C     C_R   0.131414 0.610954 0.634031 0.251391
C95   C     C_R   0.179555 0.640429 0.663003 0.001740
C96   C     C_R   0.241460 0.623875 0.587350 -0.035975
H39   H     H_    0.013280 0.858651 0.889620 0.132268
H40   H     H_    0.109757 0.537500 0.901605 0.134813
H41   H     H_    0.311385 0.524844 0.718812 0.116653
H42   H     H_    0.277943 0.534885 0.787528 0.141555
H43   H     H_    0.051270 0.829983 0.821761 0.111220
H44   H     H_    0.996225 0.759340 0.697270 0.139668
H45   H     H_    0.962927 0.770501 0.766157 0.102727
H46   H     H_    0.290506 0.688813 0.675972 0.131728
H47   H     H_    0.347250 0.670913 0.610574 0.144162
H48   H     H_    0.150079 0.509210 0.833367 0.120888
C97   C     C_R   0.683546 0.057453 0.902941 -0.001434
C98   C     C_R   0.587759 0.144269 0.895269 -0.146049
C99   C     C_R   0.555453 0.175813 0.857182 0.048952
C100  C     C_R   0.621448 0.116745 0.826861 -0.013694
C101  C     C_R   0.714814 0.027672 0.835157 -0.158047
C102  C     C_R   0.745642 0.998704 0.872706 -0.133188
C103  C     C_R   0.608997 0.232903 0.775281 -0.069830
C104  C     C_R   0.611298 0.251196 0.736502 -0.116888
C105  C     C_R   0.606803 0.184716 0.708434 0.026717
C106  C     C_R   0.595662 0.102201 0.719720 -0.115730
C107  C     C_R   0.594008 0.083700 0.758482 -0.112733
C108  C     C_R   0.602092 0.148015 0.786488 0.071755
C109  C     C_R   0.546908 0.196873 0.640244 -0.118740
C110  C     C_R   0.548690 0.222118 0.602281 -0.120252
C111  C     C_R   0.692760 0.247787 0.617772 -0.123697
C112  C     C_R   0.690307 0.223447 0.655797 -0.122094
C113  C     C_R   0.615461 0.200734 0.667552 0.029379
C114  C     C_R   0.619607 0.250875 0.590942 0.024396
H49   H     H_    0.539323 0.187368 0.919000 0.163652
H50   H     H_    0.818640 0.929879 0.878246 0.122900
H51   H     H_    0.745262 0.224931 0.676274 0.103859
H52   H     H_    0.618295 0.316302 0.728416 0.100195
H53   H     H_    0.617004 0.282290 0.796568 0.115464
H54   H     H_    0.592422 0.049719 0.698634 0.102597
H55   H     H_    0.590175 0.017115 0.766633 0.102403
H56   H     H_    0.488646 0.179358 0.648642 0.107409
H57   H     H_    0.491244 0.224034 0.582236 0.130023
H58   H     H_    0.765755 0.981788 0.812369 0.112574
H59   H     H_    0.747929 0.270157 0.609982 0.126397
O14   O     O_R   0.834210 0.019400 0.034570 -0.511476
O15   O     O_R   0.002210 0.824620 0.031030 -0.496823
C115  C     C_R   0.046323 0.738673 0.048295 0.547212
O16   O     O_R   0.024400 0.669340 0.039790 -0.504512
O17   O     O_R   0.830490 0.694950 0.045870 -0.495103
C116  C     C_R   0.746285 0.745858 0.063501 0.558450
O18   O     O_R   0.675430 0.831160 0.051290 -0.494510
O19   O     O_R   0.698870 0.998880 0.039560 -0.462904
C117  C     C_R   0.750706 0.041132 0.050808 0.540994
O20   O     O_R   0.811290 0.006780 0.950620 -0.508152
O21   O     O_R   0.980960 0.812920 0.953200 -0.506922
C118  C     C_R   0.015721 0.722624 0.939443 0.528880
O22   O     O_R   0.001480 0.656720 0.955830 -0.531562
O23   O     O_R   0.809240 0.683250 0.968050 -0.496756
C119  C     C_R   0.737501 0.760844 0.949311 0.567183
O24   O     O_R   0.652500 0.818540 0.967340 -0.508993
O25   O     O_R   0.677620 0.987170 0.961730 -0.510974
C120  C     C_R   0.721768 0.023242 0.941911 0.533769
Cr4   Cr    Cr6+3 0.905130 0.911420 0.992650 1.022165
Cr5   Cr    Cr6+3 0.911860 0.682710 0.002320 1.032429
Cr6   Cr    Cr6+3 0.682710 0.906840 0.004710 1.073861
O26   O     O_3   0.833240 0.833660 0.999890 -0.277542
C121  C     C_2   0.536184 0.818190 0.416749 0.584061
O27   O     O_2   0.555711 0.821746 0.450811 -0.489100
O28   O     O_R   0.465253 0.907948 0.397971 -0.706372
H60   H     H_    0.434327 0.970139 0.415730 0.346867
C122  C     C_2   0.888031 0.487183 0.167222 0.573635
O29   O     O_2   0.967629 0.439751 0.149329 -0.524261
O30   O     O_R   0.877934 0.445959 0.201008 -0.675695
H61   H     H_    0.940993 0.377798 0.207506 0.344176
O31   O     O_3   0.078486 0.641076 0.204336 -0.564691
C123  C     C_3   0.011353 0.630682 0.228957 0.023051
H62   H     H_    0.938109 0.654819 0.212753 0.167460
H63   H     H_    0.989258 0.684103 0.254067 0.155834
C124  C     C_3   0.055188 0.518046 0.240020 -0.281823
H64   H     H_    0.054824 0.473023 0.214399 0.210763
H65   H     H_    0.136210 0.483677 0.250167 0.150639
C125  C     C_3   0.992949 0.507769 0.271461 -0.463043
H66   H     H_    0.995158 0.550078 0.297698 0.155166
H67   H     H_    0.026052 0.425596 0.278499 0.162704
H68   H     H_    0.911944 0.538447 0.261811 0.200172
C126  C     C_2   0.540561 0.134917 0.085372 0.627385
O32   O     O_2   0.492461 0.097564 0.098485 -0.426402
O33   O     O_R   0.507964 0.185519 0.050389 -0.665316
H69   H     H_    0.549066 0.218749 0.042929 0.287085
C127  C     C_2   0.889836 0.122025 0.167467 0.580553
O34   O     O_2   0.905052 0.106880 0.201855 -0.480337
O35   O     O_R   0.960183 0.134534 0.146270 -0.697778
H70   H     H_    0.019174 0.130252 0.162632 0.349544
C128  C     C_2   0.720425 0.979448 0.290583 0.583634
O36   O     O_2   0.768060 0.894421 0.275564 -0.565815
O37   O     O_R   0.680445 0.989149 0.327024 -0.689591
H71   H     H_    0.696027 0.920889 0.337772 0.339922
C129  C     C_2   0.863253 0.119594 0.341412 0.580984
O38   O     O_2   0.889618 0.070375 0.311403 -0.472613
O39   O     O_R   0.935697 0.131858 0.363597 -0.709368
H72   H     H_    0.006102 0.097331 0.351643 0.351795
O40   O     O_3   0.540362 0.160426 0.165777 -0.537985
C130  C     C_3   0.475074 0.265634 0.174534 0.020083
H73   H     H_    0.415255 0.300611 0.151501 0.158254
H74   H     H_    0.516196 0.309925 0.177145 0.099471
C131  C     C_3   0.423271 0.274637 0.212538 -0.247749
H75   H     H_    0.373315 0.239824 0.209311 0.188054
H76   H     H_    0.483054 0.231856 0.234876 0.173285
C132  C     C_3   0.358619 0.386014 0.225763 -0.487175
H77   H     H_    0.407234 0.422014 0.229821 0.148984
H78   H     H_    0.323722 0.388744 0.253581 0.137541
H79   H     H_    0.296176 0.429970 0.204513 0.163955
O41   O     O_3   0.549607 0.861611 0.824641 -0.567843
C133  C     C_3   0.495613 0.966733 0.835522 0.000902
H80   H     H_    0.477400 0.012430 0.809148 0.159193
H81   H     H_    0.540698 0.991065 0.854537 0.128717
C134  C     C_3   0.393572 0.993602 0.853699 -0.268691
H82   H     H_    0.345219 0.979458 0.832445 0.177490
H83   H     H_    0.407531 0.944194 0.878725 0.170372
C135  C     C_3   0.335378 0.105840 0.866686 -0.462887
H84   H     H_    0.381458 0.121089 0.888625 0.169561
H85   H     H_    0.261382 0.123434 0.879405 0.152996
H86   H     H_    0.318750 0.156935 0.841941 0.177699
O42   O     O_3   0.661401 0.504606 0.204231 -0.548436
C136  C     C_3   0.584336 0.553957 0.175593 0.013346
H87   H     H_    0.619937 0.561577 0.149472 0.166765
H88   H     H_    0.521516 0.631062 0.184924 0.106073
C137  C     C_3   0.537405 0.486942 0.164975 -0.274535
H89   H     H_    0.599863 0.407841 0.158148 0.173574
H90   H     H_    0.494165 0.484253 0.189680 0.152448
C138  C     C_3   0.465314 0.527971 0.130130 -0.477290
H91   H     H_    0.403441 0.608142 0.135489 0.156773
H92   H     H_    0.430155 0.479326 0.124008 0.141557
H93   H     H_    0.508732 0.525875 0.104658 0.161599
O43   O     O_3   0.053730 0.591797 0.643279 -0.536500
C139  C     C_3   0.098229 0.489272 0.655521 0.039838
H94   H     H_    0.144459 0.477012 0.682377 0.128965
H95   H     H_    0.148806 0.434459 0.633145 0.156361
C140  C     C_3   0.012175 0.466639 0.663284 -0.242295
H96   H     H_    0.960204 0.522128 0.685088 0.176216
H97   H     H_    0.966841 0.476107 0.636410 0.201775
C141  C     C_3   0.054742 0.357827 0.677756 -0.494910
H98   H     H_    0.105793 0.300965 0.656155 0.155156
H99   H     H_    0.990156 0.344000 0.682972 0.140680
H100  H     H_    0.098791 0.347263 0.705028 0.155351
C142  C     C_2   0.102036 0.586321 0.563840 0.608259
O44   O     O_2   0.099563 0.617080 0.531586 -0.494612
O45   O     O_R   0.048720 0.534635 0.570849 -0.678347
H101  H     H_    0.012423 0.526915 0.547110 0.340001
C143  C     C_2   0.452765 0.268246 0.850313 0.547093
O46   O     O_2   0.411894 0.285353 0.818478 -0.544207
O47   O     O_R   0.401244 0.335229 0.880738 -0.708861
H102  H     H_    0.331901 0.394731 0.872667 0.335878

loop_
_geom_bond_atom_site_label_1
_geom_bond_atom_site_label_2
_geom_bond_distance
_ccdc_geom_bond_type
C4    C114  1.474631 S    
C51   C52   1.417166 A    
C20   C121  1.485121 S    
C46   C54   1.473029 S    
C57   C58   1.392246 A    
C31   C36   1.400782 A    
C79   C80   1.404682 A    
C44   H21   1.083383 S    
O47   H102  1.013893 S    
C2    O5    1.271669 A    
C62   C63   1.386724 A    
C65   O41   1.393542 S    
C128  O36   1.222934 D    
C107  C108  1.402556 A    
C133  C134  1.530426 S    
C124  H64   1.109279 S    
C57   H27   1.082387 S    
C134  C135  1.526272 S    
C45   C46   1.415777 A    
O30   H61   1.013924 S    
C103  C108  1.400880 A    
C87   C95   1.463745 S    
C131  H75   1.111498 S    
C143  O47   1.398978 S    
C70   H34   1.083162 S    
C93   C142  1.494547 S    
C109  C110  1.395353 A    
C31   C32   1.394575 A    
C139  C140  1.525957 S    
C4    O9    1.269959 A    
C38   H18   1.082578 S    
C133  H80   1.108851 S    
O8    Cr1   1.923039 S    
C10   C11   1.419044 A    
O45   H101  1.013857 S    
O35   H70   1.014017 S    
C47   C48   1.408432 A    
C61   C119  1.469939 S    
C100  C101  1.400665 A    
C142  O45   1.398033 S    
C21   C22   1.383475 A    
C122  O30   1.396550 S    
C98   C99   1.413085 A    
C123  C124  1.537269 S    
C35   O31   1.402807 S    
C91   C92   1.382043 A    
C61   C66   1.403025 A    
C131  H76   1.111301 S    
C106  C107  1.394332 A    
C58   H22   1.083902 S    
C5    O11   1.268453 A    
C56   C60   1.405312 A    
C137  C138  1.524860 S    
C81   H43   1.083591 S    
C65   C66   1.410824 A    
C94   C95   1.412017 A    
O37   H71   1.013991 S    
C118  O22   1.269525 A    
O42   C136  1.414244 S    
C48   C126  1.490096 S    
C74   C78   1.404071 A    
C67   C68   1.389225 A    
C61   C62   1.402669 A    
C132  H78   1.109243 S    
O19   Cr6   1.919817 S    
O14   C117  1.275027 A    
C92   C96   1.400030 A    
C104  C105  1.406005 A    
C28   C36   1.470953 S    
C10   C18   1.460757 S    
C103  H53   1.083302 S    
C93   C94   1.416334 A    
C28   C29   1.402722 A    
C15   C23   1.467636 S    
O6    C3    1.302266 A    
C31   H14   1.082429 S    
C51   C59   1.470132 S    
C129  O38   1.222583 D    
C68   H31   1.083145 S    
C127  O34   1.222502 D    
C45   C127  1.492881 S    
C1    C60   1.474043 S    
C137  H90   1.110470 S    
C109  C113  1.402754 A    
O19   C117  1.275737 A    
C25   C115  1.474674 S    
C135  H84   1.111094 S    
C110  C114  1.406211 A    
C97   C102  1.397437 A    
C55   C56   1.403233 A    
C130  C131  1.529141 S    
C56   H26   1.083274 S    
C86   H41   1.083602 S    
C33   C41   1.480338 S    
C29   H19   1.083287 S    
C106  H54   1.083201 S    
C52   C53   1.405765 A    
C142  O44   1.223335 D    
O17   C116  1.272274 A    
C79   C84   1.405542 A    
C121  O27   1.223000 D    
C43   C117  1.487482 S    
C76   H30   1.083071 S    
Cr3   O13   1.970810 S    
C75   C76   1.394893 A    
C8    H1    1.083191 S    
C127  O35   1.399183 S    
C136  C137  1.525518 S    
C14   H4    1.083752 S    
C26   C27   1.390203 A    
C21   C24   1.409057 A    
C39   H20   1.083003 S    
C19   H8    1.083766 S    
C105  C113  1.476351 S    
C69   C70   1.405377 A    
C130  H74   1.113557 S    
C89   H45   1.083744 S    
C111  C114  1.404758 A    
C140  C141  1.525576 S    
C79   C118  1.467717 S    
C112  H51   1.083193 S    
C49   C54   1.396440 A    
C38   C42   1.402882 A    
C109  H56   1.083118 S    
O1    Cr1   2.039910 S    
C101  H58   1.084163 S    
C88   C89   1.392550 A    
C37   C41   1.406638 A    
C68   C69   1.404952 A    
C39   C42   1.408072 A    
O10   Cr2   1.918903 S    
C116  O18   1.264067 A    
C81   C82   1.398886 A    
C93   C96   1.419892 A    
C22   C23   1.393818 A    
C8    C9    1.380898 A    
C141  H99   1.110392 S    
C129  O39   1.399162 S    
C27   H15   1.082661 S    
O21   Cr4   1.921224 S    
C143  O46   1.222787 D    
O4    Cr2   1.933214 S    
C107  H55   1.079451 S    
O28   H60   1.013901 S    
C66   H29   1.080317 S    
C131  C132  1.524370 S    
C134  H83   1.109851 S    
C92   H47   1.084152 S    
C85   H42   1.083546 S    
C25   C26   1.405711 A    
C9    C10   1.399704 A    
C49   C50   1.389613 A    
C52   C128  1.489705 S    
C63   H33   1.083913 S    
C94   O43   1.383868 S    
C26   H10   1.083254 S    
O12   Cr3   1.930410 S    
C22   H3    1.083695 S    
O15   C115  1.280060 A    
C124  H65   1.107265 S    
C35   C36   1.411922 A    
C75   C78   1.404171 A    
C19   C23   1.404091 A    
C3    C42   1.476628 S    
C13   C14   1.397484 A    
C110  H57   1.083137 S    
C123  H62   1.110805 S    
C21   H9    1.083443 S    
C85   C90   1.399475 A    
O25   Cr6   1.931189 S    
O16   Cr5   2.035600 S    
C15   C16   1.396636 A    
C138  H93   1.110729 S    
C20   C24   1.418834 A    
O7    Cr1   2.041212 S    
C64   C65   1.408889 A    
C122  O29   1.223747 D    
Cr1   O13   1.972570 S    
C37   C38   1.393414 A    
O20   C120  1.267089 A    
O12   C6    1.273771 A    
C141  H100  1.110919 S    
O1    C3    1.300641 A    
C128  O37   1.398059 S    
C105  C106  1.402960 A    
C7    C12   1.403574 A    
C32   H13   1.083098 S    
C76   C77   1.403902 A    
C138  H91   1.109534 S    
C50   H23   1.083990 S    
C135  H85   1.110244 S    
C34   H16   1.078414 S    
C64   C72   1.461625 S    
C98   H49   1.083320 S    
C30   H11   1.083157 S    
C50   C51   1.403483 A    
C67   H32   1.083667 S    
O18   Cr6   2.050186 S    
C73   C74   1.389945 A    
O14   Cr4   2.038520 S    
C112  C113  1.404170 A    
C125  H67   1.110240 S    
C55   C129  1.492173 S    
C46   C47   1.412614 A    
C57   C60   1.400652 A    
C104  H52   1.083134 S    
C126  O33   1.398699 S    
C141  H98   1.110841 S    
C43   C48   1.418258 A    
C11   C122  1.493517 S    
C17   H7    1.083393 S    
C71   H35   1.081663 S    
C136  H88   1.116203 S    
C37   H17   1.082676 S    
C100  C108  1.473718 S    
C102  H50   1.083260 S    
Cr2   O13   1.966743 S    
O22   Cr5   2.044782 S    
C7    C116  1.465593 S    
C1    O3    1.266171 A    
C53   C54   1.401094 A    
C124  C125  1.524945 S    
C9    H5    1.084403 S    
C103  C104  1.395676 A    
C130  H73   1.111878 S    
C125  H66   1.110810 S    
C69   C77   1.472477 S    
C70   C71   1.395661 A    
O33   H69   1.013159 S    
C62   H28   1.081685 S    
C29   C30   1.400505 A    
C140  H96   1.112176 S    
C5    C78   1.469675 S    
O9    Cr2   2.049431 S    
C53   H25   1.084239 S    
O2    Cr1   1.923500 S    
O25   C120  1.275168 A    
C16   H6    1.082461 S    
C83   H48   1.083333 S    
O23   Cr5   1.918023 S    
C138  H92   1.110138 S    
C44   C45   1.401093 A    
C133  H81   1.113548 S    
O6    Cr3   1.917597 S    
C111  H59   1.083137 S    
C99   C143  1.489603 S    
O40   C130  1.414730 S    
O11   Cr3   2.034506 S    
C71   C72   1.399535 A    
C134  H82   1.111591 S    
C139  H95   1.115100 S    
C83   C84   1.394463 A    
C80   C81   1.388169 A    
O21   C118  1.273182 A    
C25   C30   1.406670 A    
C132  H79   1.109373 S    
C84   H40   1.082971 S    
C115  O16   1.267820 A    
C132  H77   1.110117 S    
C140  H97   1.111456 S    
O2    C1    1.276541 A    
C139  H94   1.112061 S    
C13   O42   1.388861 S    
O43   C139  1.414133 S    
C123  H63   1.113011 S    
C111  C112  1.395104 A    
C6    C96   1.464749 S    
C87   C88   1.399562 A    
C16   C17   1.385696 A    
O17   Cr5   1.929160 S    
O5    Cr3   2.050191 S    
C91   H46   1.083918 S    
C85   C86   1.390721 A    
C14   C15   1.406409 A    
C32   C33   1.402186 A    
O4    C2    1.270169 A    
C97   C98   1.400793 A    
O24   Cr6   2.036513 S    
O7    C6    1.267657 A    
Cr4   O26   1.975191 S    
C86   C87   1.402811 A    
C80   H39   1.083013 S    
C13   C18   1.416534 A    
C39   C40   1.395746 A    
C12   H2    1.083329 S    
O20   Cr4   2.041242 S    
Cr5   O26   1.971311 S    
C17   C18   1.400920 A    
O31   C123  1.415147 S    
O41   C133  1.417236 S    
C2    C24   1.474447 S    
O15   Cr4   1.923352 S    
Cr6   O26   1.967648 S    
C58   C59   1.402283 A    
C74   H37   1.083188 S    
C135  H86   1.110885 S    
C33   C34   1.402234 A    
C99   C100  1.423862 A    
C75   H38   1.083000 S    
C121  O28   1.398694 S    
C7    C8    1.398551 A    
C55   C59   1.417245 A    
C43   C44   1.405333 A    
O3    Cr2   2.036710 S    
C73   C77   1.402250 A    
C101  C102  1.385024 A    
C34   C35   1.414828 A    
C125  H68   1.107510 S    
C73   H36   1.082247 S    
C119  O24   1.300419 A    
C82   C90   1.461616 S    
C40   C41   1.402586 A    
C63   C64   1.397169 A    
C47   O40   1.386606 S    
C126  O32   1.221085 D    
C49   H24   1.081176 S    
C91   C95   1.395027 A    
O10   C5    1.271060 A    
C97   C120  1.464090 S    
C19   C20   1.404166 A    
O23   C119  1.301013 A    
C88   H44   1.083259 S    
C40   H12   1.082910 S    
O39   H72   1.013984 S    
C67   C72   1.397677 A    
C136  H87   1.109608 S    
C82   C83   1.400855 A    
C89   C90   1.404051 A    
O8    C4    1.271384 A    
C27   C28   1.398847 A    
C11   C12   1.406494 A    
C137  H89   1.111322 S    
