data_mof_unit_14042.cif
_audit_creation_date              2012-12-10T18:04:38-0500
_audit_creation_method            fapswitch 2.2
_symmetry_space_group_name_H-M    P1
_symmetry_Int_Tables_number       1
_space_group_crystal_system       triclinic
_cell_length_a                    19.405541
_cell_length_b                    17.83791
_cell_length_c                    12.625849
_cell_angle_alpha                 87.959682
_cell_angle_beta                  98.369912
_cell_angle_gamma                 89.324609
_cell_volume                      4320.56352286

loop_
_atom_site_label
_atom_site_type_symbol
_atom_type_description
_atom_site_fract_x
_atom_site_fract_y
_atom_site_fract_z
_atom_type_partial_charge
C1    C     C_R   0.411369 0.103444 0.443400 0.843059
C2    C     C_R   0.412737 0.896189 0.446903 0.878270
C3    C     C_R   0.911367 0.603442 0.443400 0.843093
C4    C     C_R   0.912724 0.396183 0.446906 0.877491
C5    C     C_R   0.753828 0.206058 0.551486 -0.016894
C6    C     C_R   0.742596 0.779759 0.539705 -0.030942
C7    C     C_R   0.253907 0.705990 0.551322 -0.020924
C8    C     C_R   0.242654 0.279838 0.539686 -0.033414
C9    C     C_R   0.774106 0.222360 0.659654 0.141181
C10   C     C_R   0.783828 0.791136 0.640382 0.133055
C11   C     C_R   0.274294 0.722137 0.659527 0.133279
C12   C     C_R   0.283892 0.291228 0.640351 0.131035
C13   C     C_R   0.337111 0.758197 0.688017 -0.244233
C14   C     C_R   0.351894 0.262831 0.661452 -0.214603
C15   C     C_R   0.836898 0.258457 0.688167 -0.243815
C16   C     C_R   0.851835 0.762758 0.661480 -0.210937
C17   C     C_R   0.373023 0.786751 0.607910 -0.123768
C18   C     C_R   0.378488 0.221433 0.585307 -0.202422
C19   C     C_R   0.872875 0.286906 0.608073 -0.125868
C20   C     C_R   0.878448 0.721398 0.585318 -0.199720
C21   C     C_R   0.706990 0.148966 0.528393 0.368025
C22   C     C_R   0.671265 0.799122 0.526809 0.349031
C23   C     C_R   0.206978 0.648984 0.528143 0.384974
C24   C     C_R   0.171319 0.299183 0.526803 0.351123
C25   C     C_R   0.669818 0.162590 0.701802 -0.256383
C26   C     C_R   0.690612 0.863992 0.694239 -0.221591
C27   C     C_R   0.170056 0.662312 0.701799 -0.256712
C28   C     C_R   0.190674 0.364086 0.694206 -0.221731
C29   C     C_R   0.365116 0.835373 0.418703 -0.085519
C30   C     C_R   0.361829 0.164623 0.408283 -0.106334
C31   C     C_R   0.865098 0.335328 0.418770 -0.083722
C32   C     C_R   0.861815 0.664608 0.408283 -0.106333
C33   C     C_R   0.642029 0.968853 0.134038 -0.006211
C34   C     C_R   0.142043 0.468895 0.134055 -0.002719
C35   C     C_R   0.377866 0.010526 0.768820 0.250923
C36   C     C_R   0.877869 0.510559 0.768819 0.250937
C37   C     C_R   0.356818 0.027280 0.866148 -0.254042
C38   C     C_R   0.856828 0.527321 0.866149 -0.254365
C39   C     C_R   0.590488 0.898897 0.557810 0.964381
C40   C     C_R   0.594067 0.095836 0.558089 0.884389
C41   C     C_R   0.090506 0.398917 0.557816 0.965170
C42   C     C_R   0.094099 0.595791 0.558090 0.887113
C43   C     C_R   0.404429 0.028001 0.957438 -0.240385
C44   C     C_R   0.904439 0.528012 0.957441 -0.240469
C45   C     C_R   0.475170 0.012948 0.953737 0.043742
C46   C     C_R   0.975178 0.512946 0.953738 0.043720
C47   C     C_R   0.496452 0.001529 0.852519 0.205026
C48   C     C_R   0.996457 0.501523 0.852521 0.205072
C49   C     C_R   0.524875 0.007159 0.047445 -0.023313
C50   C     C_R   0.024883 0.507162 0.047446 -0.023985
C51   C     C_R   0.595089 0.986780 0.039781 0.143349
C52   C     C_R   0.095104 0.486803 0.039787 0.144361
C53   C     C_R   0.615669 0.982926 0.938292 -0.291002
C54   C     C_R   0.115687 0.482959 0.938302 -0.290836
C55   C     C_R   0.567269 0.992233 0.846640 -0.210805
C56   C     C_R   0.067279 0.492237 0.846645 -0.210936
C57   C     C_R   0.506406 0.017124 0.149681 -0.083917
C58   C     C_R   0.006413 0.517140 0.149680 -0.083437
C59   C     C_R   0.617196 0.972717 0.231874 0.127250
C60   C     C_R   0.117175 0.472665 0.231869 0.124843
C61   C     C_R   0.731670 0.200102 0.735646 -0.198020
C62   C     C_R   0.756710 0.831712 0.718051 -0.173219
C63   C     C_R   0.231942 0.699775 0.735585 -0.196504
C64   C     C_R   0.256781 0.331823 0.718009 -0.175659
C65   C     C_R   0.656817 0.137147 0.596468 -0.182390
C66   C     C_R   0.648890 0.849400 0.597280 -0.126062
C67   C     C_R   0.156913 0.637024 0.596398 -0.189680
C68   C     C_R   0.148937 0.349457 0.597275 -0.125995
C69   C     C_R   0.335181 0.830951 0.310935 -0.173001
C70   C     C_R   0.331126 0.171383 0.300491 -0.191261
C71   C     C_R   0.835238 0.330746 0.310990 -0.171420
C72   C     C_R   0.831111 0.671364 0.300492 -0.190481
C73   C     C_R   0.277319 0.787210 0.283358 -0.160164
C74   C     C_R   0.275760 0.221499 0.269823 -0.156049
C75   C     C_R   0.777441 0.286888 0.283420 -0.169218
C76   C     C_R   0.775723 0.721452 0.269832 -0.156794
C77   C     C_R   0.249186 0.747499 0.362719 -0.109430
C78   C     C_R   0.246891 0.259626 0.347594 -0.077909
C79   C     C_R   0.749262 0.247244 0.362805 -0.163038
C80   C     C_R   0.746837 0.759555 0.347609 -0.071797
C81   C     C_R   0.282378 0.745360 0.470120 0.118527
C82   C     C_R   0.274511 0.249379 0.456965 0.131047
C83   C     C_R   0.782341 0.245332 0.470257 0.091805
C84   C     C_R   0.774461 0.749314 0.456980 0.133850
C85   C     C_R   0.341571 0.788899 0.498919 0.088901
C86   C     C_R   0.338762 0.211204 0.484110 0.073664
C87   C     C_R   0.841497 0.288940 0.499043 0.092108
C88   C     C_R   0.838726 0.711167 0.484118 0.073457
H1    H     H_    0.634344 0.150434 0.758667 0.183738
H2    H     H_    0.673296 0.902326 0.749649 0.153898
H3    H     H_    0.134662 0.650069 0.758755 0.184393
H4    H     H_    0.173359 0.402427 0.749608 0.153993
H5    H     H_    0.669034 0.971533 0.927947 0.160882
H6    H     H_    0.169057 0.471584 0.927965 0.160694
H7    H     H_    0.455698 0.035411 0.163679 0.126947
H8    H     H_    0.955710 0.535445 0.163675 0.126848
H9    H     H_    0.383258 0.039609 0.029357 0.141224
H10   H     H_    0.883270 0.539622 0.029360 0.141270
H11   H     H_    0.302698 0.039513 0.871927 0.154352
H12   H     H_    0.802717 0.539588 0.871933 0.154251
H13   H     H_    0.586624 0.990664 0.772109 0.211220
H14   H     H_    0.086632 0.490664 0.772113 0.211188
H15   H     H_    0.358250 0.764492 0.771442 0.148332
H16   H     H_    0.384059 0.271370 0.737594 0.148143
H17   H     H_    0.857974 0.264848 0.771596 0.147465
H18   H     H_    0.883996 0.771293 0.737628 0.147880
H19   H     H_    0.744550 0.214458 0.818761 0.145571
H20   H     H_    0.788117 0.842390 0.794093 0.140459
H21   H     H_    0.244918 0.714012 0.818734 0.146673
H22   H     H_    0.288195 0.342517 0.794038 0.140641
H23   H     H_    0.353218 0.865679 0.248715 0.160282
H24   H     H_    0.349241 0.137299 0.240433 0.148685
H25   H     H_    0.853313 0.365393 0.248722 0.160035
H26   H     H_    0.849240 0.637295 0.240431 0.148729
H27   H     H_    0.699738 0.221039 0.340201 0.182792
H28   H     H_    0.704295 0.798426 0.321526 0.165122
H29   H     H_    0.199519 0.721599 0.340181 0.172740
H30   H     H_    0.204363 0.298518 0.321511 0.165533
H31   H     H_    0.251825 0.787511 0.201153 0.146190
H32   H     H_    0.253483 0.228704 0.186297 0.144581
H33   H     H_    0.752061 0.286996 0.201166 0.149547
H34   H     H_    0.753443 0.728654 0.186306 0.144239
H35   H     H_    0.423872 0.809415 0.633241 0.192201
H36   H     H_    0.431526 0.200437 0.604746 0.173425
H37   H     H_    0.923722 0.309558 0.633442 0.192177
H38   H     H_    0.931495 0.700428 0.604750 0.173254
H39   H     H_    0.650280 0.954967 0.304947 0.190755
H40   H     H_    0.150269 0.454942 0.304945 0.187705
N1    N     N_R   0.552340 0.000000 0.237260 -0.115659
N2    N     N_R   0.052340 0.500000 0.237260 -0.114510
N3    N     N_R   0.448170 0.000000 0.762060 -0.147507
N4    N     N_R   0.948170 0.500000 0.762060 -0.147561
O1    O     O_R   0.448200 0.076800 0.373930 -0.623486
O2    O     O_R   0.448200 0.923200 0.373930 -0.589724
O3    O     O_R   0.948200 0.576800 0.373930 -0.623174
O4    O     O_R   0.948200 0.423200 0.373930 -0.590526
O5    O     O_R   0.414750 0.076790 0.542400 -0.636836
O6    O     O_R   0.414750 0.923210 0.542400 -0.656757
O7    O     O_R   0.914750 0.576790 0.542400 -0.637319
O8    O     O_R   0.914750 0.423210 0.542400 -0.656209
O9    O     O_R   0.585240 0.923200 0.457600 -0.566275
O10   O     O_R   0.585240 0.076800 0.457600 -0.546420
O11   O     O_R   0.085240 0.423200 0.457600 -0.565651
O12   O     O_R   0.085240 0.576800 0.457600 -0.545153
O13   O     O_R   0.551780 0.923190 0.626070 -0.656217
O14   O     O_R   0.551780 0.076810 0.626070 -0.652255
O15   O     O_R   0.051780 0.423190 0.626070 -0.656308
O16   O     O_R   0.051780 0.576810 0.626070 -0.652225
Zn1   Zn    Zn3+2 0.522330 0.000000 0.387520 1.025124
Zn2   Zn    Zn3+2 0.022330 0.500000 0.387520 1.025138
Zn3   Zn    Zn3+2 0.477660 0.000000 0.612480 0.912439
Zn4   Zn    Zn3+2 0.977660 0.500000 0.612480 0.912545
C89   C     C_3   0.716345 0.941575 0.133760 -0.431088
C90   C     C_3   0.764786 0.007145 0.117971 -0.301481
C91   C     C_3   0.838668 0.979047 0.112357 -0.864181
H41   H     H_    0.859962 0.947216 0.187460 0.274564
H42   H     H_    0.838954 0.942257 0.043244 0.255509
H43   H     H_    0.872692 0.027573 0.101973 0.256231
H44   H     H_    0.745519 0.040357 0.043281 0.215607
H45   H     H_    0.766314 0.045075 0.186069 0.264834
H46   H     H_    0.736329 0.911757 0.211210 0.203863
H47   H     H_    0.718052 0.899567 0.071261 0.198635
C92   C     C_3   0.216451 0.441895 0.133880 -0.439939
C93   C     C_3   0.264685 0.507685 0.118275 -0.305046
C94   C     C_3   0.338874 0.479963 0.114126 -0.873254
H48   H     H_    0.359908 0.448695 0.189835 0.266447
H49   H     H_    0.339844 0.442745 0.045631 0.258146
H50   H     H_    0.372702 0.528640 0.103629 0.260464
H51   H     H_    0.245702 0.540458 0.043079 0.218806
H52   H     H_    0.265523 0.545947 0.185892 0.268568
H53   H     H_    0.236451 0.412091 0.211339 0.198417
H54   H     H_    0.218379 0.399953 0.071354 0.201424
C95   C     C_3   0.319289 0.008752 0.675014 -0.375868
C96   C     C_3   0.265353 0.948702 0.692482 -0.408686
C97   C     C_3   0.216191 0.934961 0.589327 -0.817716
H55   H     H_    0.187363 0.987503 0.559555 0.283787
H56   H     H_    0.245857 0.914889 0.526682 0.254400
H57   H     H_    0.178122 0.891451 0.605117 0.250221
H58   H     H_    0.292448 0.895371 0.721886 0.239500
H59   H     H_    0.233555 0.966463 0.753833 0.224596
H60   H     H_    0.292813 0.064745 0.664319 0.200088
H61   H     H_    0.337068 0.998047 0.599655 0.275125
C98   C     C_3   0.819295 0.508848 0.674996 -0.375902
C99   C     C_3   0.765223 0.448952 0.692493 -0.409721
C100  C     C_3   0.716116 0.435178 0.589294 -0.815797
H62   H     H_    0.687413 0.487753 0.559322 0.282872
H63   H     H_    0.745805 0.414923 0.526789 0.256783
H64   H     H_    0.677936 0.391795 0.605112 0.249969
H65   H     H_    0.792197 0.395595 0.722089 0.239633
H66   H     H_    0.733391 0.466886 0.753705 0.224249
H67   H     H_    0.792931 0.564899 0.664219 0.199618
H68   H     H_    0.837075 0.498025 0.599675 0.275229
S1    S     S_3+6 0.733049 0.076330 0.448683 0.000277
O17   O     O_2   0.716513 0.000828 0.494170 -0.308049
O18   O     O_2   0.695411 0.086654 0.336536 -0.399216
O19   O     O_3   0.819573 0.079381 0.446495 -0.518794
H69   H     H_    0.825048 0.098737 0.373743 0.368371
S2    S     S_3+6 0.606544 0.747276 0.446021 -0.005147
O20   O     O_2   0.545596 0.735402 0.505516 -0.310147
O21   O     O_2   0.581512 0.789930 0.342452 -0.330955
O22   O     O_3   0.638775 0.662991 0.420126 -0.564505
H70   H     H_    0.600724 0.639573 0.372186 0.386169
S3    S     S_3+6 0.232400 0.576868 0.447006 -0.010402
O23   O     O_2   0.216884 0.501164 0.493059 -0.339929
O24   O     O_2   0.193717 0.587651 0.335659 -0.382775
O25   O     O_3   0.318417 0.581166 0.441808 -0.530473
H71   H     H_    0.327721 0.541943 0.391864 0.375078
S4    S     S_3+6 0.106609 0.247315 0.446025 -0.006186
O26   O     O_2   0.045660 0.235446 0.505521 -0.313365
O27   O     O_2   0.081574 0.289942 0.342436 -0.332138
O28   O     O_3   0.138854 0.163029 0.420163 -0.562912
H72   H     H_    0.100639 0.139378 0.372865 0.385798

loop_
_geom_bond_atom_site_label_1
_geom_bond_atom_site_label_2
_ccdc_geom_bond_type
C83   C87   A    
S3    O23   D    
C63   H21   S    
C94   H48   S    
C73   H31   S    
C40   O10   A    
C91   H42   S    
C69   H23   S    
O22   H70   S    
C14   C18   A    
C53   C55   A    
N3    Zn3   S    
C92   C93   S    
C72   C76   A    
C42   O16   A    
C98   H68   S    
O9    Zn1   S    
C97   H56   S    
C95   C96   S    
C15   C19   A    
S3    O24   D    
C2    O2    A    
C2    C29   S    
C9    C61   A    
O10   Zn1   S    
C57   N1    A    
C93   C94   S    
C28   C68   A    
C41   O11   A    
C79   H27   S    
C36   N4    A    
C12   C64   A    
C33   C89   S    
C100  H63   S    
C62   H20   S    
C93   H52   S    
C59   H39   S    
C6    C22   A    
C72   H26   S    
O7    Zn4   S    
C49   C57   A    
C99   C100  S    
C71   H25   S    
C23   C67   A    
C58   H8    S    
C96   C97   S    
C22   C66   A    
O12   Zn2   S    
C44   H10   S    
C17   H35   S    
O11   Zn2   S    
N2    Zn2   S    
C97   H55   S    
C44   C46   A    
S4    O26   D    
C49   C51   A    
C32   C72   A    
C16   C20   A    
C70   C74   A    
C50   C52   A    
C27   H3    S    
S2    O20   D    
C77   C81   A    
C30   C86   A    
C92   H53   S    
O8    Zn4   S    
C29   C85   A    
C16   H18   S    
C4    O4    A    
C21   C65   A    
C31   C71   A    
C95   H60   S    
C94   H49   S    
C91   H43   S    
C34   C60   A    
C93   H51   S    
C10   C62   A    
C1    O1    A    
C30   C70   A    
C52   C54   A    
C38   C44   A    
C97   H57   S    
C29   C69   A    
C45   C47   A    
S3    O25   S    
C46   C48   A    
C71   C75   A    
C3    O3    A    
C6    C84   A    
C90   H45   S    
C53   H5    S    
C80   C84   A    
C26   C66   A    
C76   C80   A    
C60   H40   S    
C31   C87   A    
C38   H12   S    
C34   C92   S    
C60   N2    A    
O1    Zn1   S    
O25   H71   S    
C100  H64   S    
C25   C61   A    
C25   H1    S    
S1    O18   D    
C82   C86   A    
O2    Zn1   S    
C24   S4    S    
C14   H16   S    
C47   N3    A    
C51   C53   A    
C5    C21   A    
C2    O6    A    
C37   C43   A    
C7    C11   A    
C98   C99   S    
C5    C9    A    
C54   C56   A    
C4    O8    A    
C78   C82   A    
C64   H22   S    
O28   H72   S    
C41   O15   A    
C45   C49   A    
C26   H2    S    
C8    C12   A    
S1    O19   S    
C39   O13   A    
S2    O22   S    
C50   C58   A    
C25   C65   A    
C28   H4    S    
C36   C98   S    
C18   C86   A    
C69   C73   A    
C92   H54   S    
C43   C45   A    
C90   C91   S    
O13   Zn3   S    
C70   H24   S    
C39   O9    A    
C28   C64   A    
S4    O27   D    
C7    C81   A    
C12   C14   A    
C95   H61   S    
S1    O17   D    
C94   H50   S    
C40   C65   S    
C42   O12   A    
C42   C67   S    
N4    Zn4   S    
C39   C66   S    
C17   C85   A    
C13   H15   S    
C35   N3    A    
C37   H11   S    
C1    O5    A    
C35   C37   A    
C47   C55   A    
C57   H7    S    
C48   C56   A    
C46   C50   A    
C41   C68   S    
C59   N1    A    
C73   C77   A    
C78   H30   S    
C75   H33   S    
C34   C52   A    
C22   S2    S    
C48   N4    A    
O16   Zn4   S    
O19   H69   S    
C98   H67   S    
C6    C10   A    
O4    Zn2   S    
C5    C83   A    
C40   O14   A    
O6    Zn3   S    
C33   C51   A    
O3    Zn2   S    
C74   H32   S    
C55   H13   S    
C35   C95   S    
C77   H29   S    
C13   C17   A    
C89   H47   S    
C76   H34   S    
C15   H17   S    
C36   C38   A    
O15   Zn4   S    
C9    C15   A    
C19   C87   A    
C56   H14   S    
C90   H44   S    
C10   C16   A    
C79   C83   A    
C11   C13   A    
C100  H62   S    
C84   C88   A    
C58   N2    A    
S4    O28   S    
C7    C23   A    
C20   C88   A    
C1    C30   S    
C8    C24   A    
C19   H37   S    
C20   H38   S    
C99   H66   S    
C96   H59   S    
C26   C62   A    
C3    C32   S    
C61   H19   S    
C54   H6    S    
C4    C31   S    
C27   C67   A    
C24   C68   A    
O14   Zn3   S    
C8    C82   A    
C3    O7    A    
C33   C59   A    
C43   H9    S    
C74   C78   A    
C89   H46   S    
C91   H41   S    
C23   S3    S    
C99   H65   S    
O5    Zn3   S    
S2    O21   D    
C27   C63   A    
C80   H28   S    
C21   S1    S    
N1    Zn1   S    
C11   C63   A    
C75   C79   A    
C96   H58   S    
C81   C85   A    
C18   H36   S    
C89   C90   S    
C32   C88   A    
