data_mof_unit_48335.cif
_audit_creation_date              2012-12-11T21:06:09-0500
_audit_creation_method            fapswitch 2.2
_symmetry_space_group_name_H-M    P1
_symmetry_Int_Tables_number       1
_space_group_crystal_system       triclinic
_cell_length_a                    36.005676
_cell_length_b                    40.361254
_cell_length_c                    8.727081
_cell_angle_alpha                 90.148047
_cell_angle_beta                  92.852581
_cell_angle_gamma                 89.979396
_cell_volume                      12666.7352072

loop_
_atom_site_label
_atom_site_type_symbol
_atom_type_description
_atom_site_fract_x
_atom_site_fract_y
_atom_site_fract_z
_atom_type_partial_charge
Ba1   Ba    Ba6+2 0.000060 0.523150 0.844950 1.804652
Ba2   Ba    Ba6+2 0.000060 0.476850 0.344950 1.795882
Ba3   Ba    Ba6+2 0.500060 0.023150 0.844950 1.810106
Ba4   Ba    Ba6+2 0.500060 0.976850 0.344950 1.798679
C1    C     C_3   0.019181 0.700015 0.583221 -0.279463
C2    C     C_3   0.012045 0.304687 0.033753 -0.281537
C3    C     C_3   0.519414 0.199366 0.653752 -0.277219
C4    C     C_3   0.522631 0.801761 0.044257 -0.282060
C5    C     C_R   0.858276 0.331542 0.057279 0.612072
C6    C     C_R   0.863747 0.683212 0.453276 0.610386
C7    C     C_R   0.365065 0.820358 0.977395 0.624631
C8    C     C_R   0.364774 0.184215 0.439553 0.623818
C9    C     C_2   0.890114 0.380169 0.750045 -0.033062
C10   C     C_2   0.899586 0.628379 0.276532 -0.012460
C11   C     C_2   0.390606 0.879830 0.749549 -0.065882
C12   C     C_2   0.394972 0.124776 0.265036 -0.062227
C13   C     C_3   0.914689 0.409012 0.706299 0.010932
C14   C     C_3   0.935161 0.609372 0.256614 -0.113871
C15   C     C_3   0.414581 0.909007 0.704472 0.034654
C16   C     C_3   0.417498 0.095446 0.212691 0.008935
C17   C     C_1   0.915347 0.426310 0.976487 -0.043377
C18   C     C_1   0.917974 0.574464 0.476559 -0.029033
C19   C     C_1   0.415739 0.926183 0.975974 -0.046368
C20   C     C_1   0.418111 0.074435 0.476566 -0.040943
C21   C     C_2   0.891518 0.402780 0.013206 -0.093198
C22   C     C_2   0.892907 0.596949 0.515614 -0.024434
C23   C     C_2   0.392740 0.902071 0.013703 -0.042037
C24   C     C_2   0.395488 0.098447 0.519975 -0.029129
C25   C     C_2   0.877555 0.377888 0.894555 0.201961
C26   C     C_2   0.881745 0.625113 0.409327 0.230311
C27   C     C_2   0.379282 0.877065 0.895343 0.238665
C28   C     C_2   0.382796 0.125486 0.410194 0.211869
C29   C     C_R   0.799203 0.302548 0.007241 -0.061011
C30   C     C_R   0.802073 0.698318 0.535475 -0.067197
C31   C     C_R   0.300936 0.802065 0.006254 -0.069480
C32   C     C_R   0.304950 0.199862 0.540156 -0.068896
C33   C     C_R   0.791948 0.322908 0.877295 -0.073893
C34   C     C_R   0.793252 0.664243 0.546190 -0.076002
C35   C     C_R   0.288236 0.833806 0.958066 -0.078058
C36   C     C_R   0.297418 0.165977 0.566076 -0.071596
C37   C     C_R   0.759587 0.316400 0.781110 -0.058494
C38   C     C_R   0.758713 0.655290 0.607399 -0.077498
C39   C     C_R   0.249180 0.839300 0.938654 -0.063972
C40   C     C_R   0.264562 0.157468 0.641624 -0.079114
C41   C     C_R   0.832429 0.307003 0.097327 -0.049772
C42   C     C_R   0.837457 0.707657 0.488742 -0.054825
C43   C     C_R   0.339477 0.795454 0.015810 -0.066566
C44   C     C_R   0.338864 0.208908 0.477771 -0.053886
C45   C     C_3   0.003732 0.648985 0.078697 0.367597
C46   C     C_3   0.004223 0.358099 0.542745 0.317875
C47   C     C_3   0.501070 0.144597 0.145523 0.338539
C48   C     C_3   0.498386 0.854863 0.495746 0.278582
C49   C     C_2   0.933258 0.424488 0.848162 -0.265467
C50   C     C_2   0.938392 0.578554 0.354041 -0.270439
C51   C     C_2   0.433212 0.924741 0.846364 -0.263205
C52   C     C_2   0.435906 0.077288 0.346890 -0.328557
C53   C     C_2   0.056017 0.587673 0.294632 -0.150623
C54   C     C_2   0.063016 0.420351 0.825595 -0.228833
C55   C     C_2   0.554841 0.086348 0.288102 -0.165302
C56   C     C_2   0.562845 0.920423 0.826595 -0.211442
C57   C     C_R   0.212450 0.760385 0.110140 0.031247
C58   C     C_R   0.215051 0.240416 0.633581 0.033240
C59   C     C_R   0.710769 0.253988 0.024566 0.029276
C60   C     C_R   0.711738 0.739467 0.619868 0.031738
C61   C     C_R   0.261200 0.718725 0.104867 -0.000866
C62   C     C_R   0.261976 0.283239 0.613069 0.002999
C63   C     C_R   0.757652 0.228282 0.195471 0.005234
C64   C     C_R   0.760341 0.781319 0.624624 0.004194
C65   C     C_R   0.223835 0.727113 0.127569 0.082141
C66   C     C_R   0.224926 0.274224 0.638214 0.079553
C67   C     C_R   0.721190 0.228664 0.128822 0.088109
C68   C     C_R   0.722650 0.772896 0.638041 0.079278
C69   C     C_R   0.178129 0.769479 0.167613 -0.088653
C70   C     C_R   0.177045 0.232448 0.626539 -0.087925
C71   C     C_R   0.672601 0.259337 0.992912 -0.085891
C72   C     C_R   0.673498 0.732680 0.602078 -0.081667
C73   C     C_R   0.153288 0.745973 0.220708 -0.029941
C74   C     C_R   0.149437 0.256489 0.642928 -0.035798
C75   C     C_R   0.645582 0.237560 0.044863 -0.015002
C76   C     C_R   0.646476 0.757132 0.621508 -0.035622
C77   C     C_R   0.161678 0.711572 0.210055 -0.064181
C78   C     C_R   0.159647 0.290093 0.673770 -0.065241
C79   C     C_R   0.657126 0.207264 0.116250 -0.050264
C80   C     C_R   0.657425 0.789862 0.665843 -0.064043
C81   C     C_R   0.197727 0.702246 0.167697 -0.067959
C82   C     C_R   0.197788 0.298934 0.669696 -0.071603
C83   C     C_R   0.695021 0.203698 0.165604 -0.070187
C84   C     C_R   0.695890 0.797850 0.670866 -0.069340
C85   C     C_R   0.207908 0.668294 0.166807 -0.084707
C86   C     C_R   0.209007 0.332232 0.697881 -0.064003
C87   C     C_R   0.706799 0.175534 0.252090 -0.073524
C88   C     C_R   0.707805 0.830539 0.709378 -0.064871
C89   C     C_3   0.018002 0.683365 0.044053 -0.305679
C90   C     C_3   0.019832 0.323212 0.555517 -0.259853
C91   C     C_3   0.514529 0.180074 0.166189 -0.232591
C92   C     C_3   0.516623 0.821730 0.529784 -0.343818
C93   C     C_R   0.181803 0.644367 0.215334 0.616820
C94   C     C_R   0.181784 0.355589 0.742178 0.656965
C95   C     C_R   0.679561 0.151639 0.290390 0.651582
C96   C     C_R   0.680687 0.854241 0.750598 0.652369
C97   C     C_R   0.135293 0.686294 0.237565 0.618801
C98   C     C_R   0.133416 0.315024 0.709721 0.644602
C99   C     C_R   0.632493 0.180451 0.139094 0.615933
C100  C     C_R   0.631568 0.814719 0.706485 0.647301
C101  C     C_2   0.101895 0.627986 0.410248 -0.063843
C102  C     C_2   0.102985 0.373170 0.917171 -0.095415
C103  C     C_2   0.597220 0.132033 0.394748 -0.072311
C104  C     C_2   0.603630 0.873909 0.920605 -0.093816
C105  C     C_3   0.074283 0.601306 0.441825 -0.055056
C106  C     C_3   0.080844 0.402988 0.962828 -0.063166
C107  C     C_3   0.563461 0.110983 0.415803 -0.092266
C108  C     C_3   0.580801 0.903350 0.964737 -0.067967
C109  C     C_1   0.079009 0.578564 0.187002 0.136059
C110  C     C_1   0.082029 0.423552 0.699968 0.024571
C111  C     C_1   0.579639 0.078269 0.187009 0.125633
C112  C     C_1   0.581692 0.923426 0.700291 0.017885
C113  C     C_2   0.105868 0.601089 0.156739 -0.147463
C114  C     C_2   0.105949 0.399370 0.662118 -0.166640
C115  C     C_2   0.606595 0.100384 0.157325 -0.108846
C116  C     C_2   0.605073 0.898828 0.662355 -0.164339
C117  C     C_2   0.117758 0.627883 0.273066 0.185218
C118  C     C_2   0.116937 0.372242 0.776270 0.240458
C119  C     C_2   0.616043 0.128759 0.266029 0.198668
C120  C     C_2   0.616109 0.871929 0.777652 0.242379
C121  C     C_R   0.738639 0.274867 0.964647 -0.002283
C122  C     C_R   0.739418 0.714033 0.611032 0.000377
C123  C     C_R   0.236700 0.784047 0.044909 -0.004557
C124  C     C_R   0.243401 0.215588 0.627688 0.000340
C125  C     C_R   0.773239 0.277772 0.048182 0.080034
C126  C     C_R   0.775681 0.723221 0.571429 0.074070
C127  C     C_R   0.275248 0.776872 0.045860 0.072999
C128  C     C_R   0.278544 0.224805 0.575343 0.074322
C129  C     C_R   0.781666 0.256093 0.173958 -0.024888
C130  C     C_R   0.785507 0.757401 0.566509 -0.028664
C131  C     C_R   0.288143 0.744536 0.087647 -0.031673
C132  C     C_R   0.287076 0.258989 0.556334 -0.027825
C133  C     C_3   0.873107 0.501106 0.952457 0.099914
C134  C     C_3   0.871565 0.500264 0.452930 0.132294
C135  C     C_3   0.373028 0.000130 0.947277 0.143142
C136  C     C_3   0.368453 0.004015 0.452735 0.159754
C137  C     C_R   0.733467 0.292120 0.822952 -0.088171
C138  C     C_R   0.732465 0.680045 0.643906 -0.094211
C139  C     C_R   0.223662 0.814186 0.976404 -0.094381
C140  C     C_R   0.238175 0.182244 0.675671 -0.093092
C141  C     C_R   0.838811 0.287653 0.229483 0.007109
C142  C     C_R   0.845711 0.741349 0.471823 -0.009300
C143  C     C_R   0.352027 0.764489 0.069422 -0.017478
C144  C     C_R   0.345771 0.242417 0.448067 -0.005858
C145  C     C_R   0.269842 0.684881 0.090963 -0.134057
C146  C     C_R   0.272981 0.315807 0.650115 -0.135141
C147  C     C_R   0.769537 0.199331 0.272833 -0.125206
C148  C     C_R   0.771938 0.812952 0.674473 -0.136790
C149  C     C_R   0.244005 0.659807 0.118886 -0.032425
C150  C     C_R   0.247362 0.340366 0.687176 -0.020800
C151  C     C_R   0.745244 0.172895 0.298608 -0.020110
C152  C     C_R   0.746617 0.837711 0.711159 -0.020977
C153  C     C_R   0.813376 0.263427 0.272573 -0.051337
C154  C     C_R   0.819757 0.766111 0.501695 -0.078910
C155  C     C_R   0.327266 0.739660 0.111827 -0.084198
C156  C     C_R   0.319882 0.267243 0.479321 -0.075534
C157  C     C_3   0.839991 0.478888 0.898246 -0.330879
C158  C     C_3   0.838125 0.522798 0.408071 -0.266640
C159  C     C_3   0.340522 0.976913 0.894452 -0.341479
C160  C     C_3   0.333966 0.026990 0.439975 -0.270574
C161  C     C_3   0.123889 0.484204 0.138831 0.281442
C162  C     C_3   0.119899 0.518112 0.628142 0.109296
C163  C     C_3   0.623519 0.983913 0.139205 0.281014
C164  C     C_3   0.620503 0.018090 0.630454 0.104333
C165  C     C_3   0.159812 0.475323 0.237607 -0.297753
C166  C     C_3   0.159411 0.529322 0.689490 -0.272734
C167  C     C_3   0.659249 0.974762 0.238516 -0.300824
C168  C     C_3   0.660392 0.028288 0.692125 -0.282935
C169  C     C_3   0.016280 0.661511 0.554331 0.246255
C170  C     C_3   0.011110 0.343624 0.032142 0.152215
C171  C     C_3   0.516377 0.162285 0.600796 0.271450
C172  C     C_3   0.518629 0.840326 0.024737 0.114943
C173  C     C_R   0.817746 0.348739 0.846488 0.611969
C174  C     C_R   0.819725 0.640306 0.497891 0.631818
C175  C     C_R   0.315192 0.858667 0.926883 0.607416
C176  C     C_R   0.323327 0.141735 0.517070 0.627974
H1    H     H_    0.829287 0.487161 0.783428 0.129039
H2    H     H_    0.828234 0.517110 0.288638 0.117367
H3    H     H_    0.335025 0.980307 0.769624 0.086940
H4    H     H_    0.323031 0.027590 0.319520 0.136746
H5    H     H_    0.849897 0.453245 0.882548 0.069870
H6    H     H_    0.847243 0.548970 0.409255 0.085291
H7    H     H_    0.348793 0.950798 0.910299 0.079287
H8    H     H_    0.342611 0.052591 0.469595 0.114783
H9    H     H_    0.099357 0.473656 0.192825 -0.008771
H10   H     H_    0.099815 0.525556 0.712048 0.092630
H11   H     H_    0.598841 0.973426 0.192305 -0.008656
H12   H     H_    0.600847 0.025092 0.716531 0.101971
H13   H     H_    0.154663 0.482477 0.356883 0.061843
H14   H     H_    0.162401 0.521708 0.811386 0.155346
H15   H     H_    0.654006 0.982002 0.357548 0.059493
H16   H     H_    0.663417 0.019600 0.812419 0.155393
H17   H     H_    0.031271 0.656228 0.448597 -0.068772
H18   H     H_    0.021262 0.352168 0.920338 -0.066624
H19   H     H_    0.530384 0.161538 0.491343 -0.108079
H20   H     H_    0.534527 0.847669 0.924224 -0.065644
H21   H     H_    0.039048 0.690802 0.134030 0.166045
H22   H     H_    0.045459 0.321399 0.490272 0.160893
H23   H     H_    0.538381 0.180978 0.251342 0.121525
H24   H     H_    0.539285 0.817651 0.450170 0.146110
H25   H     H_    0.881699 0.401660 0.128441 0.138536
H26   H     H_    0.880725 0.595476 0.626667 0.149246
H27   H     H_    0.383216 0.900544 0.129443 0.105549
H28   H     H_    0.386091 0.098838 0.636114 0.162391
H29   H     H_    0.110710 0.645516 0.498851 0.154000
H30   H     H_    0.111763 0.355031 0.003158 0.091235
H31   H     H_    0.603383 0.152460 0.472759 0.140623
H32   H     H_    0.613677 0.856654 0.008117 0.085328
H33   H     H_    0.171433 0.795426 0.181370 0.114184
H34   H     H_    0.168309 0.207392 0.598878 0.109775
H35   H     H_    0.663636 0.282185 0.938011 0.135676
H36   H     H_    0.664231 0.708454 0.563019 0.110386
H37   H     H_    0.880615 0.362689 0.661830 0.119562
H38   H     H_    0.892269 0.648280 0.197228 0.104710
H39   H     H_    0.380132 0.862694 0.661587 0.092842
H40   H     H_    0.385269 0.143071 0.181334 0.117932
H41   H     H_    0.863097 0.292612 0.304437 0.162802
H42   H     H_    0.871955 0.748409 0.425598 0.181210
H43   H     H_    0.381673 0.760188 0.086239 0.179953
H44   H     H_    0.370778 0.249161 0.391316 0.173738
H45   H     H_    0.296311 0.677605 0.047959 0.110145
H46   H     H_    0.302078 0.322516 0.651950 0.109974
H47   H     H_    0.798729 0.196031 0.304658 0.103094
H48   H     H_    0.801267 0.818772 0.686259 0.106806
H49   H     H_    0.027762 0.594711 0.264167 -0.058837
H50   H     H_    0.045605 0.440457 0.857938 0.134775
H51   H     H_    0.526399 0.082276 0.258746 0.010012
H52   H     H_    0.545368 0.940539 0.858266 0.135336
H53   H     H_    0.025864 0.630920 0.052619 0.031175
H54   H     H_    0.006622 0.366661 0.422792 0.125766
H55   H     H_    0.523056 0.130573 0.088280 0.052218
H56   H     H_    0.488741 0.855467 0.373368 0.137909
H57   H     H_    0.998287 0.648336 0.202826 -0.122911
H58   H     H_    0.021381 0.374099 0.622269 -0.021925
H59   H     H_    0.496436 0.134358 0.261034 -0.167836
H60   H     H_    0.520109 0.874029 0.519065 0.058383
H61   H     H_    0.031586 0.683225 0.933052 0.116604
H62   H     H_    0.999099 0.304972 0.509578 0.163857
H63   H     H_    0.524557 0.189676 0.057312 0.156144
H64   H     H_    0.495983 0.801384 0.516000 0.145456
H65   H     H_    0.994927 0.701634 0.041846 0.140169
H66   H     H_    0.027043 0.317254 0.677187 0.154880
H67   H     H_    0.491760 0.196049 0.205409 0.146994
H68   H     H_    0.528709 0.822009 0.648838 0.163788
H69   H     H_    0.894851 0.498395 0.868311 0.073147
H70   H     H_    0.892678 0.503029 0.366387 0.053991
H71   H     H_    0.395149 0.997129 0.864862 0.057015
H72   H     H_    0.386988 0.010300 0.359690 0.007247
N1    N     N_R   0.850859 0.352170 0.933167 -0.430215
N2    N     N_R   0.854521 0.649918 0.453759 -0.432827
N3    N     N_R   0.352770 0.851499 0.934178 -0.432084
N4    N     N_R   0.356702 0.150985 0.457261 -0.427621
N5    N     N_R   0.145430 0.653223 0.239746 -0.443877
N6    N     N_R   0.144589 0.347109 0.741457 -0.415653
N7    N     N_R   0.643464 0.153802 0.229526 -0.447472
N8    N     N_R   0.643292 0.846452 0.743065 -0.415754
O1    O     O_2   0.072110 0.546320 0.923350 -0.473107
O2    O     O_2   0.072110 0.453680 0.423350 -0.474660
O3    O     O_2   0.572110 0.046320 0.923350 -0.481737
O4    O     O_2   0.572110 0.953680 0.423350 -0.476016
O5    O     O_3   0.886849 0.508195 0.600075 -0.643648
O6    O     O_3   0.887016 0.491984 0.100009 -0.647017
O7    O     O_3   0.387467 0.007373 0.597218 -0.636253
O8    O     O_3   0.387109 0.992299 0.096726 -0.634788
O9    O     O_3   0.971196 0.642227 0.988059 -0.555669
O10   O     O_3   0.966804 0.358286 0.582387 -0.588297
O11   O     O_3   0.468000 0.143947 0.053762 -0.584109
O12   O     O_3   0.468025 0.859087 0.589071 -0.638286
O13   O     O_3   0.958050 0.483830 0.034350 -0.392447
O14   O     O_3   0.958050 0.516170 0.534350 -0.473134
O15   O     O_3   0.458050 0.983830 0.034350 -0.398872
O16   O     O_3   0.458050 0.016170 0.534350 -0.464653
O17   O     O_2   0.810340 0.368781 0.744943 -0.548646
O18   O     O_2   0.811505 0.610997 0.491304 -0.535353
O19   O     O_2   0.305364 0.886815 0.894063 -0.580689
O20   O     O_2   0.315676 0.112330 0.523056 -0.554987
O21   O     O_2   0.102987 0.693610 0.256558 -0.571456
O22   O     O_2   0.100584 0.308215 0.715553 -0.581025
O23   O     O_2   0.601572 0.180290 0.075085 -0.576577
O24   O     O_2   0.598670 0.808045 0.713198 -0.581369
O25   O     O_2   0.887555 0.334397 0.132977 -0.556158
O26   O     O_2   0.895080 0.691658 0.422266 -0.562611
O27   O     O_2   0.398368 0.814355 0.983343 -0.545641
O28   O     O_2   0.394571 0.192350 0.389983 -0.568267
O29   O     O_2   0.191598 0.615849 0.240190 -0.494764
O30   O     O_2   0.191057 0.383366 0.784253 -0.550290
O31   O     O_2   0.687642 0.129220 0.379516 -0.510649
O32   O     O_2   0.690180 0.881728 0.796008 -0.547667
O33   O     O_3   0.042000 0.516250 0.155330 -0.444346
O34   O     O_3   0.042000 0.483750 0.655330 -0.426455
O35   O     O_3   0.542000 0.016250 0.155330 -0.438154
O36   O     O_3   0.542000 0.983750 0.655330 -0.427442
O37   O     O_3   0.012540 0.574900 0.645500 -0.465267
O38   O     O_3   0.012540 0.425100 0.145500 -0.468496
O39   O     O_3   0.512540 0.074900 0.645500 -0.468692
O40   O     O_3   0.512540 0.925100 0.145500 -0.447236
O41   O     O_2   0.076319 0.596361 0.754462 -0.512236
O42   O     O_2   0.074007 0.401666 0.272210 -0.473142
O43   O     O_2   0.581391 0.092152 0.722917 -0.523512
O44   O     O_2   0.573515 0.901617 0.273993 -0.477372
O45   O     O_3   0.121025 0.518698 0.125006 -0.531368
O46   O     O_3   0.119798 0.483792 0.606614 -0.664359
O47   O     O_3   0.620877 0.018432 0.126317 -0.539773
O48   O     O_3   0.619808 0.983860 0.603912 -0.665815
O49   O     O_3   0.032112 0.643685 0.680979 -0.536501
O50   O     O_3   0.034146 0.355688 0.156174 -0.603029
O51   O     O_3   0.534080 0.140684 0.710333 -0.523553
O52   O     O_3   0.532723 0.856067 0.160579 -0.608841
O53   O     O_2   0.928110 0.546600 0.766510 -0.428326
O54   O     O_2   0.928110 0.453400 0.266510 -0.438212
O55   O     O_2   0.428110 0.046600 0.766510 -0.434573
O56   O     O_2   0.428110 0.953400 0.266510 -0.442286
O57   O     O_3   0.987780 0.574950 0.044470 -0.478833
O58   O     O_3   0.987780 0.425050 0.544470 -0.474953
O59   O     O_3   0.487780 0.074950 0.044470 -0.475736
O60   O     O_3   0.487780 0.925050 0.544470 -0.466420
O61   O     O_2   0.920991 0.596385 0.936726 -0.399057
O62   O     O_2   0.929336 0.396686 0.393599 -0.408158
O63   O     O_2   0.428324 0.101737 0.897376 -0.394452
O64   O     O_2   0.430663 0.895301 0.389389 -0.447338
P1    P     P_3+3 0.075650 0.535480 0.098240 1.174556
P2    P     P_3+3 0.075650 0.464520 0.598240 1.066181
P3    P     P_3+3 0.575650 0.035480 0.098240 1.161249
P4    P     P_3+3 0.575650 0.964520 0.598240 1.064216
P5    P     P_3+3 0.924520 0.535770 0.591580 1.040730
P6    P     P_3+3 0.924520 0.464230 0.091580 1.094727
P7    P     P_3+3 0.424520 0.035770 0.591580 1.053052
P8    P     P_3+3 0.424520 0.964230 0.091580 1.084813
P9    P     P_3+3 0.952659 0.605293 0.055674 1.064674
P10   P     P_3+3 0.948960 0.398379 0.555023 1.026435
P11   P     P_3+3 0.450317 0.103517 0.053639 1.067894
P12   P     P_3+3 0.449023 0.898393 0.553190 1.003578
P13   P     P_3+3 0.049215 0.396529 0.125369 0.958225
P14   P     P_3+3 0.047718 0.604400 0.622688 0.982680
P15   P     P_3+3 0.548972 0.896391 0.126598 0.978438
P16   P     P_3+3 0.548019 0.103937 0.619136 1.004242
C177  C     C_2   0.976351 0.651126 0.526423 0.398089
H73   H     H_    0.961046 0.659215 0.423854 0.051993
O65   O     O_2   0.960698 0.634620 0.620854 -0.544268
C178  C     C_2   0.972195 0.356434 0.047236 0.511398
H74   H     H_    0.954032 0.359792 0.946176 -0.000852
O66   O     O_2   0.960685 0.362779 0.172822 -0.528573
C179  C     C_2   0.476508 0.151867 0.567469 0.400398
H75   H     H_    0.461688 0.159857 0.462886 0.044205
O67   O     O_2   0.460563 0.134662 0.658033 -0.544959
C180  C     C_2   0.478624 0.850350 0.992557 0.493801
H76   H     H_    0.465548 0.846734 0.879400 0.055886
O68   O     O_2   0.460635 0.862648 0.092990 -0.567972
C181  C     C_2   0.807885 0.479096 0.003217 0.979607
O69   O     O_2   0.791639 0.504989 0.027470 -0.533139
O70   O     O_R   0.794898 0.449810 0.066965 -0.651302
H77   H     H_    0.809316 0.429452 0.036799 0.281300
C182  C     C_2   0.805694 0.519104 0.509163 0.977083
O71   O     O_2   0.795989 0.542507 0.586657 -0.508452
O72   O     O_R   0.785726 0.489409 0.509275 -0.707497
H78   H     H_    0.764495 0.490071 0.581298 0.338522
C183  C     C_2   0.304047 0.981800 0.970497 1.016446
O73   O     O_2   0.301103 0.002001 0.073221 -0.523868
O74   O     O_R   0.272864 0.963202 0.922645 -0.668599
H79   H     H_    0.277884 0.947731 0.834459 0.312592
C184  C     C_2   0.302083 0.017119 0.536023 0.955371
O75   O     O_2   0.290406 0.036580 0.629721 -0.520017
O76   O     O_R   0.284300 0.986653 0.511198 -0.713608
H80   H     H_    0.262945 0.983229 0.580920 0.336432
C185  C     C_2   0.125121 0.471442 0.980993 0.719128
O77   O     O_2   0.099099 0.478856 0.895970 -0.660887
O78   O     O_R   0.155391 0.453815 0.927327 -0.751144
H81   H     H_    0.152375 0.447982 0.814648 0.327127
C186  C     C_2   0.108272 0.532979 0.479267 0.710856
O79   O     O_2   0.130969 0.545411 0.397481 -0.589717
O80   O     O_R   0.071128 0.530669 0.429747 -0.770314
H82   H     H_    0.053480 0.531342 0.515768 0.277560
C187  C     C_2   0.624869 0.971278 0.981193 0.717056
O81   O     O_2   0.598967 0.978842 0.895893 -0.664329
O82   O     O_R   0.655055 0.953491 0.927793 -0.748907
H83   H     H_    0.652097 0.947780 0.814936 0.325350
C188  C     C_2   0.608563 0.034342 0.484553 0.734776
O83   O     O_2   0.631107 0.047084 0.403037 -0.587296
O84   O     O_R   0.571329 0.032572 0.436435 -0.774366
H84   H     H_    0.553962 0.031987 0.523276 0.283687
C189  C     C_2   0.194377 0.493843 0.193899 0.735027
H85   H     H_    0.219799 0.491166 0.264923 0.056743
O85   O     O_2   0.194615 0.511674 0.081207 -0.489938
C190  C     C_2   0.189982 0.511681 0.608205 0.600955
H86   H     H_    0.193016 0.485044 0.620356 0.047990
O86   O     O_2   0.211521 0.526683 0.529705 -0.510346
C191  C     C_2   0.694062 0.992998 0.195700 0.737789
H87   H     H_    0.719286 0.990315 0.267949 0.059046
O87   O     O_2   0.694746 0.010541 0.082213 -0.487462
C192  C     C_2   0.690425 0.010893 0.606769 0.605977
H88   H     H_    0.692932 0.984133 0.613977 0.044240
O88   O     O_2   0.712173 0.026245 0.530618 -0.503196
C193  C     C_2   0.167746 0.438561 0.239291 0.475488
H89   H     H_    0.147976 0.421206 0.186095 0.045888
O89   O     O_2   0.195774 0.427708 0.306094 -0.506948
C194  C     C_2   0.164451 0.566602 0.686685 0.726654
H90   H     H_    0.141967 0.582764 0.646927 -0.063982
O90   O     O_2   0.193800 0.579080 0.733083 -0.452754
C195  C     C_2   0.666843 0.937945 0.240007 0.478560
H91   H     H_    0.646910 0.920747 0.186755 0.044233
O91   O     O_2   0.694785 0.926874 0.306628 -0.511994
C196  C     C_2   0.666667 0.065413 0.696525 0.693544
H92   H     H_    0.646499 0.082442 0.644910 0.005571
O92   O     O_2   0.695274 0.076739 0.756874 -0.459177
C197  C     C_2   0.009636 0.718347 0.433632 0.836146
O93   O     O_2   0.033730 0.732765 0.365596 -0.558176
O94   O     O_R   0.972826 0.719205 0.374385 -0.718275
H93   H     H_    0.969839 0.732300 0.275581 0.337783
C198  C     C_2   0.985385 0.288808 0.912780 0.837611
O95   O     O_2   0.982435 0.258593 0.907541 -0.493261
O96   O     O_R   0.964088 0.308025 0.808539 -0.778694
H94   H     H_    0.947551 0.294199 0.735971 0.346555
C199  C     C_2   0.505903 0.221792 0.521934 0.805229
O97   O     O_2   0.528080 0.236841 0.446067 -0.551937
O98   O     O_R   0.467747 0.225135 0.486721 -0.709536
H95   H     H_    0.462125 0.240533 0.396938 0.352864
C200  C     C_2   0.510550 0.783983 0.895486 0.881710
O99   O     O_2   0.533149 0.769139 0.820585 -0.512813
O100  O     O_R   0.473002 0.783902 0.845729 -0.728439
H96   H     H_    0.468231 0.771082 0.746671 0.337343
C201  C     C_2   0.992143 0.711521 0.700408 0.438700
H97   H     H_    0.974986 0.693914 0.758378 0.095786
O101  O     O_2   0.989281 0.740899 0.732097 -0.526157
C202  C     C_2   0.000674 0.292081 0.188410 0.526165
H98   H     H_    0.974032 0.299303 0.230965 0.051906
O102  O     O_2   0.020296 0.272991 0.264850 -0.542541
C203  C     C_2   0.495638 0.206152 0.788492 0.462377
H99   H     H_    0.479334 0.186587 0.836821 0.102695
O103  O     O_2   0.494115 0.233914 0.844150 -0.535309
C204  C     C_2   0.498563 0.789134 0.169657 0.544353
H100  H     H_    0.480152 0.805677 0.227627 0.034575
O104  O     O_2   0.498822 0.759862 0.205165 -0.492140
C205  C     C_2   0.754450 0.332472 0.628942 0.988247
O105  O     O_2   0.772566 0.322967 0.522393 -0.620782
O106  O     O_R   0.729246 0.358622 0.608835 -0.658012
H101  H     H_    0.728287 0.367613 0.500356 0.340690
C206  C     C_2   0.751491 0.620461 0.650523 1.019453
O107  O     O_2   0.729588 0.603645 0.572161 -0.493297
O108  O     O_R   0.770241 0.606996 0.779906 -0.692629
H102  H     H_    0.762888 0.583170 0.798839 0.369119
C207  C     C_2   0.234421 0.870225 0.867405 0.999404
O109  O     O_2   0.234775 0.873831 0.728426 -0.565858
O110  O     O_R   0.220377 0.895113 0.959886 -0.656666
H103  H     H_    0.211009 0.914949 0.898293 0.353869
C208  C     C_2   0.259476 0.123398 0.700587 1.013184
O111  O     O_2   0.235709 0.105300 0.640520 -0.490427
O112  O     O_R   0.282636 0.111957 0.822469 -0.702380
H104  H     H_    0.276804 0.088318 0.852031 0.368501
C209  C     C_2   0.120413 0.759056 0.296419 0.993555
O113  O     O_2   0.112928 0.748852 0.422994 -0.540513
O114  O     O_R   0.099307 0.784452 0.226758 -0.712856
H105  H     H_    0.078045 0.791798 0.290790 0.351503
C210  C     C_2   0.110433 0.244922 0.623181 1.007853
O115  O     O_2   0.100170 0.221091 0.696320 -0.525683
O116  O     O_R   0.085976 0.260146 0.515703 -0.693421
H106  H     H_    0.060238 0.249934 0.513300 0.361857
C211  C     C_2   0.606424 0.249656 0.038548 0.931424
O117  O     O_2   0.585121 0.241242 0.136141 -0.538270
O118  O     O_R   0.594799 0.273034 0.928246 -0.743218
H107  H     H_    0.568027 0.280169 0.938460 0.347878
C212  C     C_2   0.607335 0.747321 0.586020 1.021663
O119  O     O_2   0.594865 0.722409 0.644174 -0.519035
O120  O     O_R   0.585362 0.765552 0.480052 -0.711548
H108  H     H_    0.559453 0.755973 0.463027 0.349711
C213  C     C_2   0.704417 0.281003 0.706294 0.844395
O121  O     O_2   0.701546 0.251571 0.674015 -0.585260
O122  O     O_R   0.680352 0.304015 0.634586 -0.700406
H109  H     H_    0.661928 0.293303 0.558039 0.338053
C214  C     C_2   0.701219 0.670802 0.741124 0.862884
O123  O     O_2   0.696843 0.685785 0.860907 -0.559948
O124  O     O_R   0.676669 0.645443 0.695011 -0.691339
H110  H     H_    0.656583 0.641752 0.770542 0.355866
C215  C     C_2   0.184081 0.817402 0.919468 0.867026
O125  O     O_2   0.169521 0.795162 0.842265 -0.562300
O126  O     O_R   0.163487 0.845498 0.955337 -0.701097
H111  H     H_    0.136980 0.844544 0.910585 0.349032
C216  C     C_2   0.209020 0.174345 0.785357 0.859063
O127  O     O_2   0.206342 0.191306 0.900649 -0.570496
O128  O     O_R   0.184382 0.148086 0.755729 -0.689420
H112  H     H_    0.165787 0.145513 0.838375 0.353253
C217  C     C_2   0.057958 0.710271 0.643597 0.622798
H113  H     H_    0.063265 0.736090 0.672505 0.085914
O129  O     O_2   0.083522 0.690534 0.659917 -0.553408
C218  C     C_2   0.051773 0.293768 0.008110 0.632940
H114  H     H_    0.074609 0.304668 0.076766 0.035863
O130  O     O_2   0.058765 0.272303 0.914874 -0.489785
C219  C     C_2   0.559294 0.208658 0.702066 0.586179
H115  H     H_    0.565571 0.234208 0.730963 0.079707
O131  O     O_2   0.584637 0.188516 0.706978 -0.545002
C220  C     C_2   0.562963 0.793525 0.090205 0.627024
H116  H     H_    0.583067 0.813008 0.114854 0.005722
O132  O     O_2   0.573288 0.764787 0.103975 -0.465747
C221  C     C_2   0.255749 0.625356 0.086600 0.979638
O133  O     O_2   0.235126 0.606759 0.011375 -0.487484
O134  O     O_R   0.291365 0.614784 0.135510 -0.719669
H117  H     H_    0.296459 0.591038 0.104693 0.348085
C222  C     C_2   0.262359 0.374422 0.704410 0.969782
O135  O     O_2   0.249232 0.396881 0.624958 -0.516489
O136  O     O_R   0.293006 0.380336 0.805404 -0.719535
H118  H     H_    0.301198 0.404366 0.805391 0.342148
C223  C     C_2   0.762260 0.142574 0.367158 0.978893
O137  O     O_2   0.756034 0.115502 0.308070 -0.499091
O138  O     O_R   0.787122 0.145291 0.494790 -0.722523
H119  H     H_    0.797419 0.123039 0.529891 0.349659
C224  C     C_2   0.762642 0.870945 0.743247 0.971273
O139  O     O_2   0.752724 0.894630 0.664188 -0.518089
O140  O     O_R   0.790722 0.874675 0.858423 -0.720989
H120  H     H_    0.799983 0.898345 0.868006 0.343076
C225  C     C_2   0.127527 0.599040 0.018766 0.638684
H121  H     H_    0.130464 0.620750 0.947319 -0.012577
O141  O     O_2   0.145162 0.574131 0.992375 -0.500960
C226  C     C_2   0.127577 0.402311 0.523858 0.642884
H122  H     H_    0.134188 0.426487 0.481445 -0.012736
O142  O     O_2   0.138154 0.377792 0.456349 -0.553900
C227  C     C_2   0.630312 0.096784 0.025901 0.577759
H123  H     H_    0.631465 0.116502 0.942067 0.029362
O143  O     O_2   0.651106 0.073123 0.017869 -0.494694
C228  C     C_2   0.627059 0.901639 0.525105 0.639550
H124  H     H_    0.633838 0.925785 0.482844 -0.012313
O144  O     O_2   0.637803 0.877067 0.458470 -0.554601
C229  C     C_2   0.817719 0.250294 0.431560 0.547503
H125  H     H_    0.793849 0.240751 0.488399 0.030736
O145  O     O_2   0.847845 0.250645 0.502340 -0.540105
C230  C     C_2   0.826872 0.799737 0.440206 0.524944
H126  H     H_    0.803875 0.816270 0.410621 0.019881
O146  O     O_2   0.858445 0.809171 0.419256 -0.511139
C231  C     C_2   0.343183 0.711477 0.202814 0.531430
H127  H     H_    0.326337 0.698328 0.282432 0.024306
O147  O     O_2   0.375518 0.702984 0.192105 -0.502561
C232  C     C_2   0.325170 0.300108 0.406907 0.524165
H128  H     H_    0.301425 0.315875 0.378518 0.016837
O148  O     O_2   0.356034 0.309722 0.375461 -0.513342
C233  C     C_2   0.973075 0.429678 0.851672 0.522663
H129  H     H_    0.991650 0.409670 0.883335 -0.107577
O149  O     O_2   0.984810 0.455521 0.802203 -0.538964
C234  C     C_2   0.963376 0.552921 0.303517 0.537296
H130  H     H_    0.992063 0.551963 0.346508 -0.001504
O150  O     O_2   0.951255 0.531983 0.214810 -0.553848
C235  C     C_2   0.472974 0.930025 0.849790 0.633061
H131  H     H_    0.491600 0.910194 0.883284 -0.206882
O151  O     O_2   0.484625 0.955861 0.799958 -0.547517
C236  C     C_2   0.464804 0.053736 0.311128 0.513011
H132  H     H_    0.490486 0.052634 0.380283 0.006428
O152  O     O_2   0.458131 0.032796 0.213672 -0.530544
C237  C     C_2   0.861570 0.537397 0.950901 0.996684
O153  O     O_2   0.848422 0.549403 0.832078 -0.537806
O154  O     O_R   0.865520 0.557922 0.080076 -0.707355
H133  H     H_    0.879707 0.547630 0.170348 0.265637
C238  C     C_2   0.859529 0.464457 0.450126 0.939819
O155  O     O_2   0.857440 0.449075 0.569649 -0.616975
O156  O     O_R   0.849349 0.449200 0.310776 -0.743525
H134  H     H_    0.841224 0.425377 0.324143 0.323722
C239  C     C_2   0.360765 0.036212 0.937848 0.960234
O157  O     O_2   0.351782 0.048031 0.813144 -0.560221
O158  O     O_R   0.358589 0.056507 0.066754 -0.713298
H135  H     H_    0.367979 0.045800 0.165250 0.266591
C240  C     C_2   0.357217 0.968285 0.427679 0.953330
O159  O     O_2   0.361890 0.948118 0.530842 -0.631131
O160  O     O_R   0.340532 0.958389 0.287130 -0.720612
H136  H     H_    0.334083 0.933941 0.284311 0.316727

loop_
_geom_bond_atom_site_label_1
_geom_bond_atom_site_label_2
_ccdc_geom_bond_type
C147  H47   S    
O116  H106  S    
C182  O71   D    
C8    N4    Am   
C83   C87   A    
C29   C41   A    
C238  O155  D    
Ba3   P3    S    
C231  H127  S    
C31   C43   A    
Ba4   O56   S    
Ba3   O16   S    
O59   P11   S    
C213  O121  D    
Ba1   O34   S    
O15   P8    S    
C195  O91   D    
Ba2   O38   S    
Ba3   O36   S    
C193  O89   D    
O3    P3    D    
C140  C216  S    
C141  H41   S    
C15   C51   S    
C102  H30   S    
C58   C66   A    
C47   H55   S    
C144  C156  A    
C145  C149  A    
C92   H64   S    
C199  O98   S    
C36   C176  A    
C7    C43   A    
C53   C105  S    
C148  C152  A    
C230  H126  S    
C208  O112  S    
C97   N5    Am   
C55   C107  S    
Ba2   O54   S    
C20   P7    S    
C25   N1    S    
C174  O18   D    
C89   H21   S    
C8    C44   A    
Ba1   P5    S    
C94   N6    Am   
C221  O133  D    
C198  O96   S    
C6    N2    Am   
C70   H34   S    
C219  O131  D    
C22   H26   S    
C172  C180  S    
C104  C120  D    
C14   P9    S    
C181  O70   S    
C204  H100  S    
C43   C143  A    
C166  C194  S    
O9    P9    S    
C56   C108  S    
O4    P4    D    
C131  C155  A    
C159  H3    S    
O160  H136  S    
C52   C236  S    
C24   C28   S    
O61   P9    D    
C45   H57   S    
C82   C86   A    
C135  C239  S    
C224  O140  S    
C163  C167  S    
C185  O77   D    
C2    C170  S    
C119  N7    S    
C239  O157  D    
C162  C186  S    
C73   C209  S    
Ba2   O14   S    
O42   P13   D    
C141  C153  A    
C74   C78   A    
C133  H69   S    
O70   H77   S    
C46   H58   S    
C64   C68   A    
C136  O7    S    
C169  O49   S    
C57   C123  A    
C123  C139  A    
C124  C140  A    
Ba3   O39   S    
C61   C131  A    
C89   H65   S    
C134  C158  S    
C125  C129  A    
C59   C67   A    
C188  O83   D    
C24   H28   S    
C196  O92   D    
C168  H16   S    
O84   H84   S    
C108  P15   S    
O154  H133  S    
C48   H56   S    
Ba1   O37   S    
C166  C190  S    
C54   C106  S    
C203  H99   S    
C5    N1    Am   
C80   C84   A    
C226  H122  S    
C160  H8    S    
C164  H12   S    
C168  C192  S    
O80   H82   S    
C19   C51   D    
C159  C183  S    
C115  C119  S    
C20   C52   D    
C163  H11   S    
Ba2   P6    S    
C5    O25   D    
C136  C240  S    
C214  O123  D    
C7    O27   D    
C215  O126  S    
C184  O75   D    
C133  C157  S    
C37   C205  S    
C62   C66   A    
C46   O10   S    
C71   H35   S    
C218  H114  S    
C93   O29   D    
O10   P10   S    
C61   C145  A    
C180  H76   S    
C112  P4    S    
C123  C127  A    
C192  H88   S    
C105  P14   S    
C229  O145  D    
Ba2   O58   S    
C96   O32   D    
C137  C213  S    
O72   H78   S    
C69   C73   A    
C232  H128  S    
C10   H38   S    
Ba4   O40   S    
C221  O134  S    
C197  O93   D    
C210  O116  S    
C71   C75   A    
C47   C91   S    
C189  O85   D    
O64   P12   D    
C200  O99   D    
O33   P1    S    
C195  H91   S    
O98   H95   S    
C150  C222  S    
C176  O20   D    
C55   H51   S    
C203  O103  D    
C77   C97   A    
C211  O117  D    
C134  C238  S    
C87   C151  A    
C79   C99   A    
C41   C141  A    
C231  O147  D    
C62   C132  A    
C157  C181  S    
C32   C128  A    
C91   H23   S    
Ba4   P4    S    
C21   C25   S    
C46   H54   S    
C110  P2    S    
C16   P11   S    
C91   H67   S    
O120  H108  S    
C121  C137  A    
C190  H86   S    
C163  O47   S    
C49   C233  S    
C145  H45   S    
C30   C42   A    
Ba4   O60   S    
C128  C132  A    
C175  N3    Am   
C187  O81   D    
O45   P1    S    
C222  O135  D    
C167  C191  S    
O39   P16   S    
Ba2   O33   S    
C207  O109  D    
O5    P5    S    
C104  H32   S    
C92   H24   S    
C3    C219  S    
C177  O65   D    
C220  O132  D    
C223  O138  S    
C161  C185  S    
C169  H17   S    
C4    C204  S    
C39   C207  S    
C1    C201  S    
C46   C90   S    
C53   C109  D    
C240  O160  S    
C98   N6    Am   
Ba1   O57   S    
C76   C212  S    
C225  O141  D    
Ba3   O55   S    
C217  H113  S    
C54   H50   S    
C121  C125  A    
C133  O6    S    
C161  H9    S    
O128  H112  S    
C95   N7    Am   
Ba4   O4    S    
C102  C118  D    
C216  O127  D    
C78   C98   A    
C156  C232  S    
C171  H19   S    
Ba1   O14   S    
O124  H110  S    
C109  C113  D    
C130  C154  A    
C22   C26   S    
C111  C115  D    
C70   C74   A    
O13   P6    S    
C80   C100  A    
C56   C112  D    
C167  C195  S    
C11   H39   S    
O140  H120  S    
C98   O22   D    
O55   P7    D    
C65   C81   A    
C202  H98   S    
O52   P15   S    
C191  O87   D    
C210  O115  D    
C17   C21   D    
Ba4   O15   S    
C103  C107  S    
C72   C76   A    
C194  H90   S    
C134  H70   S    
C3    C203  S    
C35   C175  A    
O136  H118  S    
C4    C172  S    
C11   C27   D    
C174  N2    Am   
C134  O5    S    
C12   C28   D    
C75   C211  S    
C33   C173  A    
C147  C151  A    
C97   O21   D    
C45   C89   S    
C170  O50   S    
C222  O136  S    
C155  C231  S    
C89   H61   S    
C193  H89   S    
C8    O28   D    
O6    P6    S    
C59   C71   A    
O37   P14   S    
C133  C237  S    
C212  O120  S    
C12   H40   S    
C129  C153  A    
C33   C37   A    
C187  O82   S    
C228  H124  S    
C48   O12   S    
O112  H104  S    
C132  C156  A    
C36   C40   A    
C114  C226  S    
C178  H74   S    
C1    C197  S    
C230  O146  D    
C208  O111  D    
C54   C110  D    
O35   P3    S    
C107  P16   S    
C87   C95   A    
C17   P6    S    
O50   P13   S    
C205  O105  D    
Ba3   Ba4   S    
C117  N5    S    
C185  O78   S    
C79   C83   A    
C138  C214  S    
C5    C41   A    
C198  O95   D    
C146  H46   S    
C238  O156  S    
C6    O26   D    
C39   C139  A    
O126  H111  S    
C136  H72   S    
Ba4   O35   S    
C103  C119  D    
C76   C80   A    
C51   C235  S    
C181  O69   D    
O82   H83   S    
C126  C130  A    
C11   C15   S    
C183  O74   S    
O54   P6    D    
O106  H101  S    
C235  H131  S    
C34   C174  A    
C164  C188  S    
C9    C25   D    
C234  H130  S    
C94   O30   D    
C62   C146  A    
C47   O11   S    
C186  O80   S    
C224  O139  D    
C142  H42   S    
C1    C217  S    
C206  O108  S    
C103  H31   S    
C122  C126  A    
O78   H81   S    
C2    C198  S    
C101  H29   S    
O96   H94   S    
C227  O143  D    
C236  H132  S    
C100  N8    Am   
O53   P5    D    
C209  O114  S    
C10   C14   S    
C157  H5    S    
O11   P11   S    
O41   P14   D    
C139  C215  S    
C7    N3    Am   
O74   H79   S    
C26   N2    S    
C165  C193  S    
C90   H22   S    
C4    C220  S    
C86   C150  A    
C112  C116  D    
C16   C52   S    
C213  O122  S    
C13   C49   S    
C153  C229  S    
O114  H105  S    
C182  O72   S    
C201  H97   S    
C164  O48   S    
C161  C165  S    
C201  O101  D    
C69   H33   S    
O47   P3    S    
C172  H20   S    
C21   H25   S    
C13   P10   S    
C205  O106  S    
C15   P12   S    
Ba4   P8    S    
O110  H103  S    
C20   C24   D    
O138  H119  S    
O63   P11   D    
C226  O142  D    
C179  H75   S    
C166  H14   S    
C81   C85   A    
C18   P5    S    
C57   C69   A    
C78   C82   A    
C23   C27   S    
C122  C138  A    
C29   C33   A    
O118  H107  S    
O16   P7    S    
O49   P14   S    
O12   P12   S    
C31   C35   A    
O122  H109  S    
Ba3   O59   S    
C237  O153  D    
O48   P4    S    
O34   P2    S    
C53   H49   S    
C72   H36   S    
C73   C77   A    
C28   N4    S    
C218  O130  D    
C151  C223  S    
Ba3   O15   S    
C90   H66   S    
C192  O88   D    
C50   C234  S    
C142  C154  A    
C167  H15   S    
C170  C178  S    
C18   C50   D    
C232  O148  D    
C158  C182  S    
C136  C160  S    
C31   C127  A    
C6    C42   A    
C143  H43   S    
C189  H85   S    
C29   C125  A    
C214  O124  S    
C45   H53   S    
O36   P4    S    
C56   H52   S    
C99   N7    Am   
O58   P10   S    
C115  C227  S    
C165  H13   S    
C34   C38   A    
C27   N3    S    
Ba3   P7    S    
C42   C142  A    
O44   P15   D    
C64   C130  A    
O46   P2    S    
C161  O45   S    
Ba2   P2    S    
C233  O149  D    
C100  O24   D    
Ba2   O13   S    
C75   C79   A    
C101  C105  S    
C61   C65   A    
Ba1   Ba2   S    
C135  C159  S    
O56   P8    D    
C63   C67   A    
C90   H62   S    
C106  P13   S    
C116  C228  S    
C9    C13   S    
C104  C108  S    
C164  C168  S    
C168  C196  S    
C120  N8    S    
C190  O86   D    
C18   C22   D    
O94   H93   S    
C188  O84   S    
C196  H92   S    
C58   C70   A    
C47   H59   S    
C9    H37   S    
C171  C179  S    
C92   H68   S    
C17   C49   D    
C135  O8    S    
C96   N8    Am   
C162  O46   S    
Ba1   O53   S    
C169  C177  S    
C113  C225  S    
Ba2   O2    S    
O76   H80   S    
C163  C187  S    
O156  H134  S    
O40   P15   S    
C1    C169  S    
C236  O152  D    
C199  O97   D    
C176  N4    Am   
C93   N5    Am   
C227  H123  S    
C177  H73   S    
C223  O137  D    
C215  O125  D    
C64   C148  A    
C180  O68   D    
C38   C206  S    
C63   C129  A    
C158  H2    S    
C127  C131  A    
C184  O76   S    
C114  C118  S    
O134  H117  S    
C152  C224  S    
C159  H7    S    
C225  H121  S    
C160  C184  S    
C207  O110  S    
C109  P1    S    
C113  C117  S    
C148  H48   S    
C111  P3    S    
C118  N6    S    
C84   C88   A    
O57   P9    S    
C3    C171  S    
C38   C138  A    
O1    P1    D    
C219  H115  S    
C235  O151  D    
C32   C44   A    
C19   C23   D    
C197  O94   S    
Ba1   O13   S    
C12   C16   S    
C175  O19   D    
C200  O100  S    
C157  H1    S    
O60   P12   S    
O38   P13   S    
C10   C26   D    
C95   O31   D    
C124  C128  A    
C99   O23   D    
C68   C84   A    
C202  O102  D    
C239  O158  S    
C211  O118  S    
O62   P10   D    
C170  H18   S    
C4    C200  S    
C63   C147  A    
Ba4   O16   S    
C32   C36   A    
C194  O90   D    
O100  H96   S    
C158  H6    S    
C48   H60   S    
C35   C39   A    
C233  H129  S    
C85   C93   A    
C162  H10   S    
C165  C189  S    
C37   C137  A    
C2    C218  S    
C160  H4    S    
C149  C221  S    
C179  O67   D    
C85   C149  A    
O158  H135  S    
C74   C210  S    
C19   P8    S    
C40   C140  A    
C212  O119  D    
C60   C72   A    
C101  C117  D    
C88   C152  A    
C2    C202  S    
O43   P16   D    
C237  O154  S    
C3    C199  S    
C40   C208  S    
C110  C114  D    
C228  O144  D    
Ba1   O1    S    
C171  O51   S    
C178  O66   D    
C240  O159  D    
O14   P5    S    
Ba3   O3    S    
O8    P8    S    
C67   C83   A    
C59   C121  A    
C66   C82   A    
C154  C230  S    
C88   C96   A    
C143  C155  A    
C102  C106  S    
C57   C65   A    
O2    P2    D    
C220  H116  S    
C30   C34   A    
C135  H71   S    
C204  O104  D    
C173  O17   D    
C173  N1    Am   
C183  O73   D    
C60   C122  A    
C234  O150  D    
C144  H44   S    
O108  H102  S    
C217  O129  D    
O7    P7    S    
C186  O79   D    
C58   C124  A    
C206  O107  D    
C44   C144  A    
C216  O128  S    
C162  C166  S    
C48   C92   S    
C23   H27   S    
C60   C68   A    
C209  O113  D    
C77   C81   A    
C14   C50   S    
C30   C126  A    
C55   C111  D    
C146  C150  A    
C172  O52   S    
O51   P16   S    
C229  H125  S    
C191  H87   S    
C86   C94   A    
Ba1   P1    S    
C116  C120  S    
C91   H63   S    
C45   O9    S    
