data_mof_unit_55738.cif
_audit_creation_date              2012-12-11T16:53:38-0500
_audit_creation_method            fapswitch 2.2
_symmetry_space_group_name_H-M    P1
_symmetry_Int_Tables_number       1
_space_group_crystal_system       triclinic
_cell_length_a                    14.950094
_cell_length_b                    14.802159
_cell_length_c                    16.931275
_cell_angle_alpha                 108.930594
_cell_angle_beta                  106.302881
_cell_angle_gamma                 108.165764
_cell_volume                      3048.42925669

loop_
_atom_site_label
_atom_site_type_symbol
_atom_type_description
_atom_site_fract_x
_atom_site_fract_y
_atom_site_fract_z
_atom_type_partial_charge
C1    C     C_R   0.087061 0.282997 0.071951 -0.143375
C2    C     C_R   0.022698 0.476217 0.720629 0.059205
C3    C     C_R   0.663050 0.220944 0.747634 0.067650
C4    C     C_R   0.298475 0.468820 0.972472 0.068180
C5    C     C_R   0.232437 0.705070 0.265909 -0.147639
C6    C     C_R   0.704863 0.499851 0.917531 -0.152024
C7    C     C_R   0.889247 0.392378 0.172349 -0.220019
C8    C     C_R   0.081952 0.803637 0.010613 -0.135734
C9    C     C_R   0.910400 0.719856 0.937238 -0.116375
C10   C     C_R   0.059865 0.479189 0.254056 0.517307
C11   C     C_R   0.232280 0.799980 0.187518 -0.123122
C12   C     C_R   0.932953 0.456774 0.733982 -0.126569
C13   C     C_R   0.699146 0.407332 0.997667 -0.115858
C14   C     C_R   0.257035 0.807628 0.275224 0.040352
C15   C     C_R   0.640066 0.438070 0.942918 0.075032
C16   C     C_R   0.967492 0.411175 0.250354 -0.107240
C17   C     C_R   0.995140 0.817416 0.971402 0.052339
C18   C     C_R   0.398118 0.464699 0.876771 0.167985
C19   C     C_R   0.357877 0.425309 0.930617 0.035737
C20   C     C_R   0.384289 0.349053 0.949700 -0.199204
C21   C     C_R   0.470047 0.337785 0.938900 -0.200371
C22   C     C_R   0.528505 0.403342 0.909543 0.031999
C23   C     C_R   0.720066 0.216007 0.824788 -0.129455
C24   C     C_R   0.482110 0.452876 0.865451 0.166464
C25   C     C_3   0.526484 0.559844 0.867443 -0.524707
C26   C     C_3   0.435211 0.573075 0.880434 -0.531364
C27   C     C_R   0.951717 0.360504 0.310602 0.149004
C28   C     C_R   0.026152 0.428188 0.631288 0.128412
C29   C     C_R   0.122600 0.408129 0.538162 -0.219923
C30   C     C_R   0.120501 0.440921 0.624595 -0.169804
C31   C     C_R   0.933136 0.371819 0.550577 -0.275268
C32   C     C_R   0.935376 0.345740 0.465160 0.195797
C33   C     C_R   0.031170 0.367362 0.458775 0.163791
C34   C     C_R   0.269061 0.543850 0.958497 -0.141550
C35   C     C_R   0.035830 0.363734 0.376733 -0.300606
C36   C     C_R   0.853672 0.323756 0.312064 -0.159428
C37   C     C_R   0.845064 0.312880 0.388188 -0.234854
C38   C     C_R   0.554095 0.150226 0.682733 0.128094
C39   C     C_R   0.300774 0.904675 0.361530 0.145879
C40   C     C_R   0.396551 0.096509 0.448107 -0.234936
C41   C     C_R   0.336161 0.005706 0.363932 -0.179449
C42   C     C_R   0.314186 0.896663 0.443798 -0.296955
C43   C     C_R   0.379765 0.985741 0.527701 0.194465
C44   C     C_R   0.425069 0.085747 0.529422 0.195277
C45   C     C_R   0.725740 0.312517 0.748376 -0.137748
C46   C     C_R   0.508583 0.169348 0.609121 -0.282849
C47   C     C_R   0.500563 0.055249 0.685075 -0.174511
C48   C     C_R   0.411771 0.973711 0.608042 -0.223627
C49   C     C_R   0.083186 0.116319 0.142207 0.132211
C50   C     C_R   0.996359 0.103997 0.072068 0.043841
C51   C     C_R   0.902221 0.011907 0.037206 -0.204480
C52   C     C_R   0.892821 0.945696 0.081373 -0.184692
C53   C     C_R   0.977149 0.969438 0.160098 0.035209
C54   C     C_R   0.073410 0.050151 0.184862 0.160829
C55   C     C_3   0.150662 0.138405 0.277508 -0.487449
C56   C     C_R   0.257865 0.441511 0.030411 -0.118097
C57   C     C_3   0.162119 0.211304 0.231452 -0.507567
C58   C     C_R   0.105778 0.546869 0.806864 -0.132677
C59   C     C_R   0.914882 0.198709 0.994065 -0.115085
C60   C     C_R   0.000394 0.187665 0.040967 0.056084
H1    H     H_    0.164554 0.308546 0.121533 0.108135
H2    H     H_    0.682257 0.521186 0.862430 0.100529
H3    H     H_    0.809272 0.333081 0.140638 0.122133
H4    H     H_    0.161455 0.859862 0.034116 0.090758
H5    H     H_    0.830651 0.698349 0.895235 0.092191
H6    H     H_    0.243985 0.864108 0.168687 0.089381
H7    H     H_    0.671408 0.347240 0.019419 0.081713
H8    H     H_    0.348355 0.308367 0.983369 0.126312
H9    H     H_    0.497805 0.289892 0.965784 0.123394
H10   H     H_    0.601017 0.618753 0.928743 0.200918
H11   H     H_    0.853542 0.407029 0.683687 0.094852
H12   H     H_    0.525853 0.553538 0.800021 0.191071
H13   H     H_    0.460145 0.638642 0.949343 0.199630
H14   H     H_    0.382218 0.575298 0.820826 0.187991
H15   H     H_    0.109702 0.382702 0.372617 0.175265
H16   H     H_    0.785307 0.314074 0.259736 0.116725
H17   H     H_    0.196692 0.424042 0.534350 0.129926
H18   H     H_    0.770472 0.293271 0.391542 0.126644
H19   H     H_    0.192890 0.479712 0.685734 0.113252
H20   H     H_    0.858958 0.358180 0.553092 0.115694
H21   H     H_    0.545216 0.243965 0.607776 0.114879
H22   H     H_    0.691183 0.163633 0.853156 0.081929
H23   H     H_    0.531248 0.039934 0.742622 0.113897
H24   H     H_    0.429360 0.173343 0.448771 0.125725
H25   H     H_    0.375818 0.897819 0.608020 0.129309
H26   H     H_    0.323340 0.014923 0.301530 0.110908
H27   H     H_    0.283658 0.820395 0.443456 0.124313
H28   H     H_    0.833888 0.994424 0.979816 0.124779
H29   H     H_    0.818429 0.879701 0.057740 0.129886
H30   H     H_    0.115433 0.156565 0.326855 0.204087
H31   H     H_    0.133931 0.271911 0.254010 0.212804
H32   H     H_    0.293694 0.590042 0.925168 0.099619
H33   H     H_    0.240088 0.242780 0.231540 0.188193
H34   H     H_    0.702796 0.350663 0.707223 0.082866
H35   H     H_    0.267064 0.386826 0.057661 0.091134
H36   H     H_    0.184868 0.587407 0.818132 0.084252
H37   H     H_    0.834162 0.147747 0.972937 0.087226
H38   H     H_    0.252902 0.682392 0.319403 0.158552
N1    N     N_R   0.055640 0.348550 0.045600 -0.042513
N2    N     N_R   0.798340 0.505430 0.954400 -0.038839
N3    N     N_R   0.931580 0.439470 0.128350 -0.064350
N4    N     N_R   0.051950 0.704140 0.002340 -0.040787
N5    N     N_R   0.944360 0.651450 0.954400 -0.041803
N6    N     N_R   0.039170 0.492150 0.176290 -0.086488
N7    N     N_R   0.188710 0.696600 0.128350 -0.042149
N8    N     N_R   0.794820 0.447010 0.002340 -0.037234
N9    N     N_R   0.960830 0.507850 0.823710 -0.040995
N10   N     N_R   0.811290 0.303400 0.871650 -0.036988
N11   N     N_R   0.205180 0.552990 0.997660 -0.041609
N12   N     N_R   0.814810 0.361830 0.823710 -0.038246
N13   N     N_R   0.201660 0.494570 0.045600 -0.039459
N14   N     N_R   0.068420 0.560530 0.871650 -0.038574
N15   N     N_R   0.948050 0.295860 0.997660 -0.040990
N16   N     N_R   0.185190 0.638170 0.176290 -0.037860
Ni1   Ni    Ni4+2 0.119330 0.493420 0.109950 0.243885
Ni2   Ni    Ni4+2 0.880670 0.506580 0.890050 0.204194
Ni3   Ni    Ni4+2 0.872590 0.372590 0.000000 0.199863
Ni4   Ni    Ni4+2 0.127410 0.627410 0.000000 0.210786
O1    O     O_3   0.158707 0.518693 0.321145 -0.659497
C61   C     C_3   0.168496 0.593888 0.404652 0.217202
H39   H     H_    0.110976 0.560015 0.428959 0.117312
H40   H     H_    0.155664 0.660735 0.396116 0.077426
C62   C     C_3   0.276306 0.636783 0.480282 -0.924184
H41   H     H_    0.337107 0.676466 0.461155 0.253782
H42   H     H_    0.284336 0.695366 0.545774 0.211116
H43   H     H_    0.287915 0.570417 0.491024 0.257468
H44   H     H_    0.221861 0.128075 0.303752 0.192121

loop_
_geom_bond_atom_site_label_1
_geom_bond_atom_site_label_2
_ccdc_geom_bond_type
C56   H35   S    
C23   H22   S    
C5    N16   A    
N9    N14   A    
C40   H24   S    
C3    C23   A    
C19   C20   A    
N2    Ni2   S    
C2    C12   A    
C1    N1    A    
N16   Ni1   S    
C62   H41   S    
C39   C41   A    
C53   C54   A    
C61   H39   S    
C41   H26   S    
C35   H15   S    
C18   C24   A    
C36   C37   A    
C55   H30   S    
C10   N6    A    
N11   N13   A    
N1    Ni1   S    
C11   C14   A    
C62   H42   S    
C49   C54   A    
C46   H21   S    
C29   C33   A    
C26   H13   S    
C49   C57   S    
C18   C19   A    
C58   H36   S    
C10   O1    S    
C36   H16   S    
C33   C35   A    
C14   C39   S    
C4    C19   S    
C15   C22   S    
C47   C48   A    
C3    C38   S    
C61   H40   S    
C18   C26   S    
C11   N7    A    
C47   H23   S    
C43   C48   A    
C56   N13   A    
N4    Ni4   S    
C61   C62   S    
C9    N5    A    
C16   C27   S    
C6    C15   A    
C59   C60   A    
C57   H33   S    
C21   C22   A    
C4    C56   A    
C52   H29   S    
C45   H34   S    
C44   C46   A    
N11   Ni4   S    
C39   C42   A    
C34   H32   S    
C4    C34   A    
C51   C52   A    
N7    N16   A    
C31   H20   S    
C24   C25   S    
C1    C60   A    
C45   N12   A    
C62   H43   S    
C27   C35   A    
C25   C26   S    
C3    C45   A    
C21   H9    S    
C6    N2    A    
C43   C44   A    
C29   C30   A    
N6    Ni1   S    
C31   C32   A    
C59   N15   A    
C50   C51   A    
C38   C47   A    
C25   H12   S    
C32   C37   A    
C20   C21   A    
C7    H3    S    
C5    C14   A    
C8    H4    S    
N15   Ni3   S    
C30   H19   S    
C9    C17   A    
C7    C16   A    
C12   H11   S    
C55   H44   S    
N3    N6    A    
C55   C57   S    
N8    Ni3   S    
C59   H37   S    
C58   N14   A    
N7    Ni4   S    
C42   C43   A    
N12   Ni2   S    
C52   C53   A    
C13   H7    S    
C54   C55   S    
C40   C41   A    
C57   H31   S    
N10   Ni3   S    
C20   H8    S    
C28   C31   A    
C13   N8    A    
C1    H1    S    
C51   H28   S    
N1    N15   A    
C12   N9    A    
N13   Ni1   S    
O1    C61   S    
C2    C58   A    
C42   H27   S    
C27   C36   A    
C37   H18   S    
N2    N8    A    
C8    C17   A    
C50   C60   S    
C32   C33   A    
C6    H2    S    
C13   C15   A    
N5    Ni2   S    
N3    Ni3   S    
C10   C16   A    
N14   Ni4   S    
C23   N10   A    
C28   C30   A    
C26   H14   S    
N10   N12   A    
C22   C24   A    
N4    N5    A    
C9    H5    S    
N9    Ni2   S    
C38   C46   A    
C40   C44   A    
C29   H17   S    
C5    H38   S    
C49   C50   A    
C7    N3    A    
C34   N11   A    
C48   H25   S    
C2    C28   S    
C25   H10   S    
C8    N4    A    
C11   H6    S    
