data_mof_unit_24368.cif
_audit_creation_date              2012-10-26T20:12:41-0400
_audit_creation_method            fapswitch 2.2
_symmetry_space_group_name_H-M    P1
_symmetry_Int_Tables_number       1
_space_group_crystal_system       triclinic
_cell_length_a                    15.237772
_cell_length_b                    13.848152
_cell_length_c                    10.787654
_cell_angle_alpha                 84.833811
_cell_angle_beta                  90.829636
_cell_angle_gamma                 90.430998
_cell_volume                      2266.82753754

loop_
_atom_site_label
_atom_site_type_symbol
_atom_type_description
_atom_site_fract_x
_atom_site_fract_y
_atom_site_fract_z
_atom_type_partial_charge
C1    C     C_R   0.330345 0.499497 0.500584 0.530346
C2    C     C_R   0.437688 0.794415 0.433345 0.033685
C3    C     C_R   0.458963 0.215361 0.406139 0.046614
C4    C     C_R   0.560943 0.786355 0.568605 0.045469
C5    C     C_R   0.499092 0.054535 0.501114 0.025681
C6    C     C_R   0.499110 0.945102 0.501073 0.026220
C7    C     C_R   0.500173 0.505721 0.260683 0.555371
C8    C     C_R   0.500905 0.494463 0.739408 0.556837
C9    C     C_R   0.658493 0.569618 0.105482 0.002864
C10   C     C_R   0.343642 0.432764 0.896932 -0.006765
C11   C     C_R   0.665530 0.462342 0.897691 0.005112
C12   C     C_R   0.670452 0.500459 0.497341 0.529125
C13   C     C_R   0.338274 0.546850 0.098509 -0.000395
C14   C     C_R   0.739020 0.551387 0.051769 -0.118956
C15   C     C_R   0.263293 0.454825 0.948685 -0.127361
C16   C     C_R   0.742756 0.494719 0.952510 -0.119152
C17   C     C_R   0.260461 0.515815 0.043700 -0.125685
C18   C     C_R   0.582746 0.489955 0.942135 0.006870
C19   C     C_R   0.420196 0.514309 0.057038 0.007214
C20   C     C_R   0.580353 0.527299 0.059507 0.007281
C21   C     C_R   0.422320 0.474767 0.941358 0.006656
C22   C     C_R   0.502609 0.478123 0.876654 -0.032623
C23   C     C_R   0.050233 0.497831 0.496856 0.003983
C24   C     C_R   0.499889 0.523122 0.123670 -0.032062
C25   C     C_R   0.097105 0.549081 0.582896 -0.107375
C26   C     C_R   0.905308 0.419031 0.459526 -0.107001
C27   C     C_R   0.908416 0.580360 0.526612 -0.105989
C28   C     C_R   0.096257 0.445670 0.413620 -0.106253
C29   C     C_R   0.188499 0.553191 0.582196 -0.029776
C30   C     C_R   0.813754 0.420071 0.453993 -0.023523
C31   C     C_R   0.817148 0.581122 0.532406 -0.019872
C32   C     C_R   0.187626 0.441659 0.417847 -0.024408
C33   C     C_R   0.234424 0.498170 0.500146 0.033437
C34   C     C_R   0.953227 0.498991 0.494141 0.001922
C35   C     C_R   0.767854 0.500771 0.494320 0.022567
C36   C     C_3   0.657429 0.649928 0.190452 -0.376073
C37   C     C_3   0.343429 0.351619 0.813248 -0.377458
C38   C     C_3   0.674535 0.382642 0.813442 -0.385478
C39   C     C_3   0.331320 0.627407 0.182371 -0.389609
C40   C     C_3   0.235049 0.615920 0.670345 -0.383199
C41   C     C_3   0.768407 0.334487 0.402325 -0.375924
C42   C     C_3   0.776004 0.667923 0.583007 -0.393882
C43   C     C_3   0.232958 0.376460 0.334121 -0.392207
C44   C     C_R   0.539102 0.101581 0.598293 -0.143930
C45   C     C_R   0.435439 0.895808 0.433655 -0.143479
C46   C     C_R   0.459011 0.114178 0.403844 -0.145296
C47   C     C_R   0.562705 0.887692 0.568757 -0.143933
C48   C     C_R   0.539599 0.203241 0.595095 0.030377
Cu1   Cu    Cu3+1 0.500000 0.596430 0.500000 0.902092
Cu2   Cu    Cu3+1 0.500000 0.403570 0.500000 0.900672
H1    H     H_    0.197322 0.538026 0.075895 0.112871
H2    H     H_    0.383033 0.934341 0.382497 0.083979
H3    H     H_    0.428397 0.083854 0.324979 0.083975
H4    H     H_    0.614402 0.919978 0.621177 0.082985
H5    H     H_    0.571274 0.237632 0.669607 0.104288
H6    H     H_    0.388581 0.758111 0.380750 0.111580
H7    H     H_    0.425942 0.258957 0.331709 0.125841
H8    H     H_    0.608313 0.743667 0.624342 0.118809
H9    H     H_    0.592950 0.686604 0.187865 0.154941
H10   H     H_    0.676278 0.621451 0.285574 0.165628
H11   H     H_    0.705713 0.707289 0.159365 0.105499
H12   H     H_    0.806281 0.475726 0.918244 0.110611
H13   H     H_    0.324553 0.379553 0.717755 0.166875
H14   H     H_    0.407621 0.314312 0.815727 0.151953
H15   H     H_    0.294698 0.295170 0.845756 0.108835
H16   H     H_    0.614983 0.336439 0.815646 0.136213
H17   H     H_    0.729468 0.333869 0.845594 0.109294
H18   H     H_    0.688972 0.413787 0.718652 0.156168
H19   H     H_    0.392477 0.671203 0.182727 0.144889
H20   H     H_    0.314554 0.597437 0.277136 0.152353
H21   H     H_    0.278588 0.678456 0.148154 0.110131
H22   H     H_    0.263545 0.680654 0.616990 0.154955
H23   H     H_    0.202464 0.425560 0.914093 0.113215
H24   H     H_    0.189787 0.641590 0.740027 0.111275
H25   H     H_    0.288300 0.574928 0.721723 0.159858
H26   H     H_    0.734129 0.289881 0.477677 0.156154
H27   H     H_    0.721390 0.360160 0.327041 0.161437
H28   H     H_    0.815595 0.286202 0.360892 0.102911
H29   H     H_    0.732958 0.643456 0.662050 0.146440
H30   H     H_    0.825737 0.717620 0.619399 0.103959
H31   H     H_    0.738891 0.710546 0.507859 0.147512
H32   H     H_    0.287420 0.415372 0.284224 0.154613
H33   H     H_    0.259659 0.312257 0.390938 0.146864
H34   H     H_    0.799339 0.581374 0.087025 0.110845
H35   H     H_    0.187333 0.350022 0.263201 0.110237
H36   H     H_    0.062616 0.586754 0.650922 0.101468
H37   H     H_    0.939198 0.354614 0.437012 0.102813
H38   H     H_    0.944773 0.644217 0.548557 0.103281
H39   H     H_    0.061184 0.407415 0.344902 0.100970
H40   H     H_    0.569112 0.060909 0.677804 0.085035
N1    N     N_R   0.500000 0.258690 0.500000 -0.219506
N2    N     N_R   0.500000 0.741310 0.500000 -0.220185
O1    O     O_R   0.371460 0.581430 0.500010 -0.513685
O2    O     O_R   0.628540 0.418570 0.499990 -0.507596
O3    O     O_R   0.628540 0.581430 0.499990 -0.517347
O4    O     O_R   0.371460 0.418570 0.500010 -0.510481
O5    O     O_R   0.499990 0.581440 0.319660 -0.517697
O6    O     O_R   0.500010 0.418560 0.680340 -0.521613
O7    O     O_R   0.500010 0.581440 0.680340 -0.486500
O8    O     O_R   0.499990 0.418560 0.319660 -0.499686

loop_
_geom_bond_atom_site_label_1
_geom_bond_atom_site_label_2
_ccdc_geom_bond_type
C48   H5    S    
C11   C18   A    
C42   H30   S    
C6    C45   A    
C43   H33   S    
C14   H34   S    
C36   H9    S    
C17   H1    S    
C1    C33   S    
C30   C35   A    
C10   C37   S    
C19   C21   A    
C8    O7    A    
C10   C15   A    
C41   H27   S    
C5    C6    S    
C7    C24   S    
C29   C33   A    
C46   H3    S    
C3    N1    A    
C8    O6    A    
C26   C34   A    
C38   H16   S    
C26   H37   S    
C48   N1    A    
C37   H15   S    
C9    C36   S    
C8    C22   S    
C30   C41   S    
C28   H39   S    
C40   H22   S    
C18   C20   A    
C42   H29   S    
C27   C34   A    
C21   C22   A    
C12   O2    A    
C42   H31   S    
C16   H12   S    
C37   H13   S    
C10   C21   A    
C25   C29   A    
Cu2   O6    S    
C7    O8    A    
C13   C19   A    
C27   C31   A    
C43   H35   S    
C20   C24   A    
C28   C32   A    
C6    C47   A    
C41   H28   S    
Cu2   O2    S    
C45   H2    S    
C11   C38   S    
C9    C14   A    
Cu1   O7    S    
C11   C16   A    
C9    C20   A    
C23   C34   S    
C39   H19   S    
C12   O3    A    
C23   C28   A    
Cu1   O3    S    
C12   C35   S    
C2    N2    A    
C47   H4    S    
C3    H7    S    
C15   H23   S    
C5    C44   A    
C38   H18   S    
C26   C30   A    
C31   C35   A    
Cu1   N2    S    
C36   H11   S    
C37   H14   S    
C44   H40   S    
C15   C17   A    
C7    O5    A    
C18   C22   A    
C36   H10   S    
C5    C46   A    
C3    C46   A    
Cu2   O8    S    
C40   H25   S    
C13   C17   A    
C32   C33   A    
C19   C24   A    
C2    H6    S    
C41   H26   S    
Cu2   O4    S    
C31   C42   S    
C1    O4    A    
C29   C40   S    
C25   H36   S    
C39   H20   S    
C40   H24   S    
C14   C16   A    
C23   C25   A    
C32   C43   S    
C27   H38   S    
C13   C39   S    
C2    C45   A    
Cu1   O5    S    
Cu2   N1    S    
C38   H17   S    
C1    O1    A    
Cu1   Cu2   S    
C4    H8    S    
C43   H32   S    
C39   H21   S    
Cu1   O1    S    
C44   C48   A    
C4    N2    A    
C4    C47   A    
