data_mof_unit_13057.cif
_audit_creation_date              2012-12-10T16:44:42-0500
_audit_creation_method            fapswitch 2.2
_symmetry_space_group_name_H-M    P1
_symmetry_Int_Tables_number       1
_space_group_crystal_system       triclinic
_cell_length_a                    15.042369
_cell_length_b                    8.685991
_cell_length_c                    7.447608
_cell_angle_alpha                 102.86015
_cell_angle_beta                  94.547928
_cell_angle_gamma                 92.544292
_cell_volume                      943.763983882

loop_
_atom_site_label
_atom_site_type_symbol
_atom_type_description
_atom_site_fract_x
_atom_site_fract_y
_atom_site_fract_z
_atom_type_partial_charge
C1    C     C_R   0.497293 0.199731 0.453305 0.886988
C2    C     C_R   0.502707 0.800269 0.546695 0.886988
C3    C     C_R   0.031026 0.388284 0.168185 -0.212679
C4    C     C_R   0.968974 0.611716 0.831815 -0.212679
C5    C     C_2   0.495988 0.031896 0.426968 -0.371090
C6    C     C_2   0.504012 0.968104 0.573032 -0.371090
C7    C     C_R   0.328699 0.498691 0.501556 0.810218
C8    C     C_R   0.671301 0.501309 0.498444 0.810218
C9    C     C_R   0.822203 0.557421 0.663462 -0.247365
C10   C     C_R   0.177797 0.442579 0.336538 -0.247365
C11   C     C_R   0.768103 0.503388 0.496793 -0.067133
C12   C     C_R   0.231897 0.496612 0.503207 -0.067133
C13   C     C_R   0.806643 0.449675 0.330856 -0.252873
C14   C     C_R   0.193357 0.550325 0.669144 -0.252873
C15   C     C_R   0.899210 0.447159 0.331091 0.102735
C16   C     C_R   0.100790 0.552841 0.668909 0.102735
C17   C     C_R   0.953458 0.501124 0.499199 0.066867
C18   C     C_R   0.046542 0.498876 0.500801 0.066867
C19   C     C_R   0.914705 0.557234 0.665765 0.098965
C20   C     C_R   0.085294 0.442766 0.334235 0.098965
C21   C     C_R   0.938404 0.390659 0.166567 -0.218367
C22   C     C_R   0.061596 0.609341 0.833433 -0.218367
Cu1   Cu    Cu3+1 0.510010 0.517380 0.684380 0.947104
Cu2   Cu    Cu3+1 0.489990 0.482620 0.315620 0.947104
H1    H     H_    0.792399 0.600137 0.791744 0.155791
H2    H     H_    0.207601 0.399863 0.208256 0.155791
H3    H     H_    0.897486 0.348661 0.036800 0.154308
H4    H     H_    0.102514 0.651339 0.963200 0.154308
H5    H     H_    0.060235 0.344367 0.039612 0.156837
H6    H     H_    0.939765 0.655633 0.960387 0.156837
H7    H     H_    0.488416 0.960458 0.286127 0.179114
H8    H     H_    0.511584 0.039542 0.713873 0.179114
H9    H     H_    0.429968 0.377650 0.948209 0.224043
H10   H     H_    0.570032 0.622350 0.051791 0.224043
N1    N     N_2   0.474890 0.456420 0.038520 -0.219784
N2    N     N_2   0.525110 0.543580 0.961480 -0.219784
O1    O     O_R   0.506510 0.286130 0.619770 -0.582912
O2    O     O_R   0.493490 0.713870 0.380230 -0.582912
O3    O     O_R   0.489600 0.256770 0.308360 -0.587255
O4    O     O_R   0.510400 0.743230 0.691640 -0.587255
O5    O     O_R   0.378710 0.514640 0.655720 -0.593639
O6    O     O_R   0.621290 0.485360 0.344280 -0.593639
O7    O     O_R   0.361800 0.485290 0.344300 -0.587933
O8    O     O_R   0.638200 0.514710 0.655700 -0.587933
H11   H     H_    0.764689 0.407537 0.202330 0.158060
H12   H     H_    0.235311 0.592463 0.797669 0.158060

loop_
_geom_bond_atom_site_label_1
_geom_bond_atom_site_label_2
_ccdc_geom_bond_type
C6    H8    S    
Cu1   Cu2   S    
C15   C17   A    
C7    O7    A    
C4    C22   A    
C2    O2    A    
Cu2   O2    S    
N1    N2    D    
Cu1   O5    S    
C1    O1    A    
C9    C11   A    
C10   H2    S    
C7    O5    A    
C17   C18   A    
C21   H3    S    
C9    H1    S    
C3    C20   A    
C14   H12   S    
C22   H4    S    
C13   H11   S    
C11   C13   A    
C2    C6    S    
C10   C12   A    
C8    C11   S    
C1    C5    S    
H9    N1    S    
C12   C14   A    
H10   N2    S    
C13   C15   A    
C5    C6    D    
C14   C16   A    
C7    C12   S    
C3    C21   A    
Cu2   N1    S    
C1    O3    A    
C8    O6    A    
Cu1   O4    S    
C2    O4    A    
C15   C21   A    
Cu2   O3    S    
Cu2   O6    S    
C18   C20   A    
C16   C18   A    
Cu1   N2    S    
C3    H5    S    
Cu2   O7    S    
C16   C22   A    
C17   C19   A    
Cu1   O1    S    
C4    C19   A    
C9    C19   A    
C4    H6    S    
Cu1   O8    S    
C8    O8    A    
C10   C20   A    
C5    H7    S    
