data_mof_unit_64823.cif
_audit_creation_date              2012-12-10T17:59:40-0500
_audit_creation_method            fapswitch 2.2
_symmetry_space_group_name_H-M    P1
_symmetry_Int_Tables_number       1
_space_group_crystal_system       triclinic
_cell_length_a                    18.639597
_cell_length_b                    18.611423
_cell_length_c                    18.746605
_cell_angle_alpha                 109.328783
_cell_angle_beta                  109.934996
_cell_angle_gamma                 109.12926
_cell_volume                      5007.37159972

loop_
_atom_site_label
_atom_site_type_symbol
_atom_type_description
_atom_site_fract_x
_atom_site_fract_y
_atom_site_fract_z
_atom_type_partial_charge
Br1   Br    Br    0.814897 0.056910 0.612694 -0.524144
Br2   Br    Br    0.760244 0.702199 0.316298 -0.528261
C1    C     C_R   0.620242 0.620467 0.499935 0.882472
C2    C     C_R   0.686173 0.686779 0.499380 -0.083331
C3    C     C_R   0.679902 0.500672 0.759512 -0.175556
C4    C     C_R   0.379395 0.500124 0.379149 0.865179
C5    C     C_R   0.743585 0.499177 0.823162 -0.170780
C6    C     C_R   0.815926 0.499835 0.815910 -0.013133
C7    C     C_R   0.824502 0.500579 0.744933 -0.174167
C8    C     C_R   0.759449 0.499302 0.679913 -0.174472
C9    C     C_R   0.687805 0.500049 0.687855 -0.013597
C10   C     C_R   0.242466 0.322503 0.500982 -0.178775
C11   C     C_R   0.177934 0.257948 0.499818 -0.182576
C12   C     C_3   0.190228 0.416695 0.189770 -0.155108
C13   C     C_R   0.186374 0.186101 0.499832 0.003412
C14   C     C_R   0.257873 0.177336 0.499463 -0.133737
C15   C     C_R   0.321068 0.240590 0.497963 -0.174116
C16   C     C_R   0.379695 0.379626 0.499837 0.858306
C17   C     C_R   0.313428 0.313233 0.499492 -0.014469
C18   C     C_R   0.003070 0.620512 0.123175 0.888468
C19   C     C_R   0.124742 0.499870 0.124353 0.863572
C20   C     C_R   0.004387 0.379404 0.884008 0.879597
C21   C     C_R   0.882643 0.499918 0.882549 0.863325
C22   C     C_R   0.001399 0.880411 0.380740 0.946716
C23   C     C_3   0.215899 0.458677 0.287214 -0.150937
C24   C     C_R   0.879882 0.879339 0.499308 0.929066
C25   C     C_R   0.998631 0.119455 0.619124 0.895289
C26   C     C_R   0.120261 0.120066 0.499900 0.873386
C27   C     C_R   0.025643 0.768817 0.193462 -0.206312
C28   C     C_R   0.621160 0.500016 0.621193 0.858156
C29   C     C_R   0.025045 0.833276 0.256385 0.371169
C30   C     C_R   0.002787 0.815520 0.315278 -0.092990
C31   C     C_R   0.981387 0.734760 0.311740 -0.199878
C32   C     C_R   0.980519 0.670075 0.247829 -0.167673
C33   C     C_R   0.002900 0.687319 0.188985 -0.096821
C34   C     C_3   0.312551 0.500100 0.311879 0.015629
C35   C     C_R   0.077950 0.329446 0.809334 -0.173782
C36   C     C_R   0.075965 0.265040 0.744080 -0.232155
C37   C     C_R   0.998152 0.184948 0.684942 -0.064475
C38   C     C_R   0.921972 0.167721 0.690850 0.251634
C39   C     C_R   0.924747 0.231916 0.757318 -0.198180
C40   C     C_3   0.314415 0.583377 0.313327 -0.153337
C41   C     C_R   0.002479 0.312608 0.816120 -0.077469
C42   C     C_3   0.216409 0.541906 0.287362 -0.154428
C43   C     C_3   0.192032 0.499971 0.191265 0.014535
C44   C     C_3   0.288809 0.541449 0.216029 -0.164008
C45   C     C_R   0.745225 0.768579 0.575271 -0.163545
C46   C     C_3   0.288076 0.458114 0.215658 -0.166683
C47   C     C_R   0.809838 0.831424 0.574949 -0.182634
C48   C     C_R   0.813792 0.812743 0.498351 -0.067327
C49   C     C_R   0.754467 0.731121 0.421817 0.245208
C50   C     C_R   0.690880 0.667883 0.422933 -0.196567
Cl1   Cl    Cl    0.055355 0.935988 0.261765 -0.616829
H1    H     H_    0.185205 0.576075 0.314566 0.133326
H2    H     H_    0.376402 0.233831 0.497138 0.150195
H3    H     H_    0.042940 0.781961 0.147723 0.186957
H4    H     H_    0.366965 0.651351 0.365587 0.150471
H5    H     H_    0.964346 0.721685 0.357653 0.172617
H6    H     H_    0.963572 0.607285 0.245014 0.164185
H7    H     H_    0.138395 0.391661 0.855011 0.160690
H8    H     H_    0.134665 0.277639 0.739170 0.149698
H9    H     H_    0.866229 0.219150 0.762545 0.182996
H10   H     H_    0.317037 0.575201 0.185304 0.157934
H11   H     H_    0.318992 0.423939 0.187915 0.156474
H12   H     H_    0.644936 0.604433 0.364156 0.181232
H13   H     H_    0.137720 0.348717 0.137479 0.148564
H14   H     H_    0.188211 0.424929 0.318229 0.133212
H15   H     H_    0.742169 0.783215 0.634772 0.166459
H16   H     H_    0.856031 0.894813 0.633805 0.171264
H17   H     H_    0.624024 0.500854 0.765229 0.148572
H18   H     H_    0.737370 0.498984 0.878518 0.151517
H19   H     H_    0.880540 0.500729 0.739369 0.147303
H20   H     H_    0.765513 0.499166 0.624398 0.147819
H21   H     H_    0.236565 0.378737 0.501712 0.143417
H22   H     H_    0.122438 0.264543 0.500349 0.143729
H23   H     H_    0.263806 0.121174 0.498941 0.155219
O1    O     O_R   0.592040 0.539900 0.448690 -0.625557
O2    O     O_R   0.948580 0.908330 0.356880 -0.565308
O3    O     O_R   0.960490 0.908280 0.552000 -0.634422
O4    O     O_R   0.591220 0.643330 0.551330 -0.619378
O5    O     O_R   0.856260 0.908310 0.447800 -0.570748
O6    O     O_R   0.051420 0.091500 0.642940 -0.626870
O7    O     O_R   0.947190 0.091540 0.538750 -0.597984
O8    O     O_R   0.143740 0.091510 0.552020 -0.635263
O9    O     O_R   0.039510 0.091550 0.447830 -0.603630
O10   O     O_R   0.408100 0.448290 0.356370 -0.623877
O11   O     O_R   0.407270 0.551710 0.459000 -0.624369
O12   O     O_R   0.054890 0.643310 0.094620 -0.620424
O13   O     O_R   0.408780 0.356670 0.448670 -0.613770
O14   O     O_R   0.407960 0.460100 0.551310 -0.625350
O15   O     O_R   0.592730 0.448290 0.541000 -0.620065
O16   O     O_R   0.591900 0.551710 0.643630 -0.619127
O17   O     O_R   0.951430 0.539890 0.094630 -0.622599
O18   O     O_R   0.044450 0.448260 0.096050 -0.623819
O19   O     O_R   0.147910 0.551670 0.096030 -0.625543
O20   O     O_R   0.952840 0.356630 0.912840 -0.621520
O21   O     O_R   0.056290 0.460040 0.912820 -0.626568
O22   O     O_R   0.859820 0.448260 0.911420 -0.619172
O23   O     O_R   0.963280 0.551670 0.911400 -0.619786
O24   O     O_R   0.052810 0.908290 0.461080 -0.636181
Zn1   Zn    Zn3+2 0.500550 0.430940 0.431470 0.976084
Zn2   Zn    Zn3+2 0.499450 0.569060 0.568530 0.970417
Zn3   Zn    Zn3+2 0.934780 0.430920 0.003740 0.973812
Zn4   Zn    Zn3+2 0.072940 0.569020 0.003710 0.970271
Zn5   Zn    Zn3+2 0.069600 0.999890 0.569480 0.975460
Zn6   Zn    Zn3+2 0.930400 0.999940 0.430340 1.068569

loop_
_geom_bond_atom_site_label_1
_geom_bond_atom_site_label_2
_ccdc_geom_bond_type
C21   O23   A    
C18   O17   A    
C31   H5    S    
C10   H21   S    
C26   O8    A    
O1    Zn1   S    
C23   H14   S    
C7    H19   S    
O17   Zn3   S    
C5    C6    A    
C45   C47   A    
C43   C44   S    
O19   Zn4   S    
O24   Zn5   S    
C35   C36   A    
C2    C50   A    
C3    C9    A    
C24   C48   S    
C5    H18   S    
C36   C37   A    
C8    H20   S    
C46   H11   S    
C19   O18   A    
C13   C14   A    
C6    C21   S    
O3    Zn5   S    
C32   C33   A    
C40   C44   S    
O6    Zn5   S    
O14   Zn2   S    
Br1   C38   S    
C18   C33   S    
C34   C40   S    
C11   H22   S    
C9    C28   S    
C25   C37   S    
C6    C7    A    
O22   Zn3   S    
C7    C8    A    
C15   H2    S    
O16   Zn2   S    
C36   H8    S    
O23   Zn4   S    
C20   O21   A    
C22   O24   A    
C39   C41   A    
C40   C42   S    
C39   H9    S    
O15   Zn1   S    
C1    O4    A    
C40   H4    S    
O12   Zn4   S    
C31   C32   A    
C12   C43   S    
C19   C43   S    
C25   O6    A    
C44   C46   S    
C49   C50   A    
C16   O14   A    
C28   O16   A    
C8    C9    A    
C37   C38   A    
C3    C5    A    
C16   C17   S    
C12   C46   S    
C19   O19   A    
C48   C49   A    
C4    O11   A    
O4    Zn2   S    
C35   C41   A    
C22   C30   S    
C3    H17   S    
O11   Zn2   S    
C20   C41   S    
O8    Zn5   S    
C12   H13   S    
C35   H7    S    
C29   Cl1   S    
C22   O2    A    
C38   C39   A    
O18   Zn3   S    
C24   O5    A    
C11   C13   A    
C32   H6    S    
O9    Zn6   S    
C1    O1    A    
C45   H15   S    
C42   C43   S    
O5    Zn6   S    
O13   Zn1   S    
C14   H23   S    
C16   O13   A    
C20   O20   A    
C29   C30   A    
C28   O15   A    
C27   H3    S    
C27   C33   A    
C24   O3    A    
C4    O10   A    
O7    Zn6   S    
C44   H10   S    
O2    Zn6   S    
C30   C31   A    
C25   O7    A    
C27   C29   A    
C13   C26   S    
C14   C15   A    
C18   O12   A    
C10   C17   A    
C15   C17   A    
C4    C34   S    
C34   C46   S    
C12   C23   S    
C23   C42   S    
O21   Zn4   S    
Br2   C49   S    
C23   C34   S    
C42   H1    S    
C21   O22   A    
C10   C11   A    
C47   C48   A    
O20   Zn3   S    
C26   O9    A    
C47   H16   S    
O10   Zn1   S    
C50   H12   S    
C1    C2    S    
C2    C45   A    
