data_mof_unit_50947.cif
_audit_creation_date              2012-12-10T16:54:56-0500
_audit_creation_method            fapswitch 2.2
_symmetry_space_group_name_H-M    P1
_symmetry_Int_Tables_number       1
_space_group_crystal_system       triclinic
_cell_length_a                    7.909492
_cell_length_b                    8.550645
_cell_length_c                    15.733158
_cell_angle_alpha                 92.549268
_cell_angle_beta                  86.127697
_cell_angle_gamma                 92.822586
_cell_volume                      1059.43155921

loop_
_atom_site_label
_atom_site_type_symbol
_atom_type_description
_atom_site_fract_x
_atom_site_fract_y
_atom_site_fract_z
_atom_type_partial_charge
C1    C     C_R   0.544419 0.793905 0.501975 0.987311
C2    C     C_3   0.342871 0.613277 0.055254 0.261734
C3    C     C_3   0.502546 0.524804 0.083162 0.168576
C4    C     C_3   0.509464 0.353541 0.042900 -0.443545
C5    C     C_3   0.512634 0.352897 0.944536 -0.176290
C6    C     C_1   0.495905 0.512879 0.174867 -0.052384
C7    C     C_1   0.515070 0.525851 0.824513 0.044860
C8    C     C_1   0.510374 0.517054 0.749414 -0.018985
C9    C     C_2   0.565630 0.957800 0.502350 -0.377693
C10   C     C_2   0.437769 0.047905 0.530580 -0.251644
C11   C     C_R   0.502790 0.504117 0.661034 0.910848
C12   C     C_R   0.456002 0.206777 0.507876 0.864430
C13   C     C_R   0.497923 0.499328 0.338744 0.882643
C14   C     C_3   0.347895 0.599591 0.955802 -0.375247
C15   C     C_3   0.681699 0.621421 0.948417 -0.201875
C16   C     C_3   0.675858 0.609348 0.049831 -0.330753
C17   C     C_1   0.494655 0.505000 0.250020 -0.158001
C18   C     C_3   0.515372 0.527217 0.916445 0.034094
H1    H     H_    0.237157 0.526780 0.935410 0.222571
H2    H     H_    0.626761 0.299358 0.060623 0.203738
H3    H     H_    0.679051 0.002940 0.466738 0.182629
H4    H     H_    0.327991 0.713699 0.928138 0.224664
H5    H     H_    0.772390 0.525349 0.062501 0.187471
H6    H     H_    0.630415 0.298703 0.918680 0.185877
H7    H     H_    0.410906 0.271610 0.069810 0.199251
N1    N     N_2   0.950340 0.457950 0.477370 -0.082090
N2    N     N_2   0.049660 0.542050 0.522630 -0.141395
O1    O     O_R   0.389240 0.738570 0.505550 -0.622678
O2    O     O_R   0.678400 0.711630 0.491050 -0.584242
O3    O     O_R   0.355360 0.513470 0.630110 -0.578190
O4    O     O_R   0.644510 0.486530 0.615610 -0.621117
O5    O     O_R   0.321600 0.288370 0.508950 -0.613282
O6    O     O_R   0.610760 0.261430 0.494450 -0.616364
O7    O     O_R   0.355490 0.513470 0.384390 -0.646591
O8    O     O_R   0.644640 0.486530 0.369890 -0.613316
Zn1   Zn    Zn3+2 0.306930 0.517990 0.509680 1.002026
Zn2   Zn    Zn3+2 0.693070 0.482010 0.490320 0.998855
C19   C     C_3   0.358199 0.792765 0.083660 -0.427959
C20   C     C_3   0.197662 0.886721 0.081863 -0.826156
H8    H     H_    0.136089 0.864559 0.020943 0.296233
H9    H     H_    0.106156 0.858120 0.136031 0.271648
H10   H     H_    0.231878 0.013838 0.089130 0.270814
H11   H     H_    0.400957 0.806676 0.149512 0.217893
H12   H     H_    0.452796 0.853480 0.040738 0.294478
C21   C     C_3   0.165268 0.550539 0.095633 -0.325697
C22   C     C_3   0.119364 0.375004 0.096307 -0.871780
H13   H     H_    0.144559 0.317330 0.032850 0.289672
H14   H     H_    0.184719 0.318791 0.146191 0.235056
H15   H     H_    0.981559 0.357289 0.113707 0.266347
H16   H     H_    0.149511 0.596400 0.162498 0.225809
H17   H     H_    0.064729 0.602009 0.061393 0.238915
C23   C     C_2   0.295743 0.998748 0.592933 1.000392
O9    O     O_2   0.155044 0.050563 0.589630 -0.571524
O10   O     O_R   0.325432 0.896981 0.657019 -0.776616
H18   H     H_    0.220452 0.873583 0.695807 0.359878
C24   C     C_3   0.014463 0.383099 0.398451 -0.127644
C25   C     C_3   0.033021 0.497182 0.326060 -0.773269
H19   H     H_    0.914383 0.502767 0.293242 0.278595
H20   H     H_    0.072932 0.617122 0.349135 0.267118
H21   H     H_    0.129962 0.453291 0.278290 0.218853
H22   H     H_    0.132189 0.323872 0.405963 0.207249
H23   H     H_    0.921707 0.287545 0.380614 0.163196
C26   C     C_2   0.979485 0.595854 0.602808 1.122271
O11   O     O_2   0.985330 0.514973 0.664526 -0.563050
O12   O     O_R   0.913345 0.744509 0.612239 -0.785618
H24   H     H_    0.869381 0.770573 0.672998 0.350270
C27   C     C_2   0.840084 0.542821 0.906241 0.859097
O13   O     O_2   0.909280 0.591595 0.839966 -0.564992
O14   O     O_R   0.901319 0.409806 0.940034 -0.854933
H25   H     H_    0.991682 0.359619 0.900897 0.387354
C28   C     C_2   0.697578 0.791651 0.919705 0.998384
O15   O     O_2   0.586125 0.847617 0.882187 -0.610819
O16   O     O_R   0.849935 0.879530 0.929160 -0.773104
H26   H     H_    0.848211 0.988287 0.906106 0.364436
C29   C     C_2   0.738595 0.749387 0.106283 0.866104
O17   O     O_2   0.801410 0.722792 0.172875 -0.666185
O18   O     O_R   0.725695 0.905382 0.085539 -0.796757
H27   H     H_    0.772954 0.982770 0.129612 0.344315
C30   C     C_2   0.376629 0.239799 0.909496 0.908938
O19   O     O_2   0.282805 0.278776 0.856381 -0.636696
O20   O     O_R   0.366230 0.085352 0.935067 -0.773781
H28   H     H_    0.275978 0.018928 0.905618 0.367367

loop_
_geom_bond_atom_site_label_1
_geom_bond_atom_site_label_2
_ccdc_geom_bond_type
C15   C18   S    
C26   O12   S    
C16   C29   S    
O16   H26   S    
C14   C18   S    
C3    C6    S    
C10   C23   S    
C4    H7    S    
C7    C8    T    
C20   H9    S    
O18   H27   S    
C22   H15   S    
N1    N2    D    
O5    Zn1   S    
O8    Zn2   S    
C13   O8    A    
C19   C20   S    
C25   H20   S    
C21   H17   S    
C15   C16   S    
C24   C25   S    
O10   H18   S    
C11   O3    A    
C1    O1    A    
C5    C30   S    
C9    C10   D    
C11   O4    A    
C12   O5    A    
C23   O10   S    
O20   H28   S    
C20   H10   S    
C2    C21   S    
C22   H14   S    
C27   O13   D    
C1    C9    S    
C20   H8    S    
C28   O16   S    
C4    C5    S    
C25   H21   S    
C5    C18   S    
C21   C22   S    
O6    Zn2   S    
O4    Zn2   S    
C27   O14   S    
C29   O17   D    
C19   H12   S    
C2    C19   S    
C7    C18   S    
C15   C27   S    
C1    O2    A    
C29   O18   S    
C10   C12   S    
C16   H5    S    
C24   H23   S    
C3    C4    S    
C23   O9    D    
C30   O20   S    
C6    C17   T    
C22   H13   S    
C14   H1    S    
C26   O11   D    
N1    C24   S    
N1    Zn2   S    
C13   C17   S    
N2    Zn1   S    
C15   C28   S    
O3    Zn1   S    
C14   H4    S    
C2    C3    S    
C19   H11   S    
C9    H3    S    
C25   H19   S    
C5    H6    S    
C21   H16   S    
C8    C11   S    
O7    Zn1   S    
O14   H25   S    
C2    C14   S    
C30   O19   D    
C4    H2    S    
C13   O7    A    
C28   O15   D    
O1    Zn1   S    
O12   H24   S    
O2    Zn2   S    
C24   H22   S    
N2    C26   S    
C12   O6    A    
C3    C16   S    
