data_mof_unit_46756.cif
_audit_creation_date              2012-12-10T16:53:29-0500
_audit_creation_method            fapswitch 2.2
_symmetry_space_group_name_H-M    P1
_symmetry_Int_Tables_number       1
_space_group_crystal_system       triclinic
_cell_length_a                    7.781543
_cell_length_b                    8.665132
_cell_length_c                    13.618815
_cell_angle_alpha                 92.238039
_cell_angle_beta                  78.755151
_cell_angle_gamma                 94.0157
_cell_volume                      898.148266236

loop_
_atom_site_label
_atom_site_type_symbol
_atom_type_description
_atom_site_fract_x
_atom_site_fract_y
_atom_site_fract_z
_atom_type_partial_charge
C1    C     C_R   0.544860 0.794677 0.503860 0.925581
C2    C     C_1   0.556400 0.453238 0.121707 -0.029927
C3    C     C_2   0.566272 0.957494 0.521483 -0.280426
C4    C     C_2   0.424537 0.046199 0.531955 -0.305656
C5    C     C_2   0.237996 0.487934 0.046285 0.410791
C6    C     C_2   0.729086 0.389658 0.955204 0.416551
C7    C     C_2   0.746188 0.018618 0.532344 0.497569
C8    C     C_2   0.236671 0.988415 0.554226 0.511481
C9    C     C_R   0.452522 0.207136 0.512680 0.920444
C10   C     C_R   0.470555 0.502601 0.687161 0.878444
C11   C     C_R   0.529089 0.495790 0.312857 0.904290
C12   C     C_1   0.545992 0.474941 0.209113 -0.081554
C13   C     C_1   0.446670 0.490684 0.791122 -0.070882
C14   C     C_2   0.558191 0.430398 0.018156 -0.020826
C15   C     C_2   0.412492 0.458793 0.982993 -0.010584
C16   C     C_1   0.426658 0.476383 0.878917 -0.029070
H1    H     H_    0.024721 0.378960 0.426722 0.217830
H2    H     H_    0.975290 0.621065 0.573268 0.206510
H3    H     H_    0.140596 0.540153 0.013207 0.056290
H4    H     H_    0.845582 0.395509 0.988319 0.065808
H5    H     H_    0.763035 0.101466 0.592185 0.115923
H6    H     H_    0.179317 0.922552 0.497995 0.134119
N1    N     N_2   0.954190 0.457600 0.473930 -0.153992
N2    N     N_2   0.045810 0.542400 0.526070 -0.159858
O1    O     O_R   0.388300 0.738660 0.506400 -0.654654
O2    O     O_2   0.741789 0.344560 0.868183 -0.546817
O3    O     O_2   0.875410 0.979636 0.472946 -0.580122
O4    O     O_2   0.144546 0.019399 0.634909 -0.554773
O5    O     O_R   0.611700 0.261340 0.493600 -0.632438
O6    O     O_R   0.679920 0.711490 0.489690 -0.580527
O7    O     O_R   0.320080 0.288510 0.510310 -0.600836
O8    O     O_R   0.333200 0.515510 0.649910 -0.607016
O9    O     O_R   0.666800 0.484490 0.350090 -0.600680
O10   O     O_R   0.624820 0.488340 0.633200 -0.613749
O11   O     O_R   0.375180 0.511660 0.366800 -0.597546
O12   O     O_2   0.198165 0.449902 0.133583 -0.555323
Zn1   Zn    Zn3+2 0.305280 0.518140 0.511160 0.999205
Zn2   Zn    Zn3+2 0.694720 0.481860 0.488840 1.006418

loop_
_geom_bond_atom_site_label_1
_geom_bond_atom_site_label_2
_ccdc_geom_bond_type
O5    Zn2   S    
C8    H6    S    
N1    N2    D    
C5    H3    S    
C6    C14   S    
N1    Zn2   S    
C6    H4    S    
O9    Zn2   S    
C9    O5    A    
C4    C8    S    
C2    C12   T    
C11   O11   A    
N2    Zn1   S    
C10   O10   A    
H1    N1    S    
O8    Zn1   S    
C1    O1    A    
C6    O2    D    
C2    C14   S    
C1    O6    A    
O11   Zn1   S    
C3    C7    S    
C8    O4    D    
H2    N2    S    
C5    C15   S    
C9    O7    A    
C3    C4    D    
C5    O12   D    
C10   O8    A    
C11   O9    A    
C7    O3    D    
O6    Zn2   S    
C13   C16   T    
C14   C15   D    
O1    Zn1   S    
C4    C9    S    
C7    H5    S    
C15   C16   S    
C11   C12   S    
O7    Zn1   S    
C1    C3    S    
C10   C13   S    
O10   Zn2   S    
