data_mof_unit_63783.cif
_audit_creation_date              2012-10-26T20:56:55-0400
_audit_creation_method            fapswitch 2.2
_symmetry_space_group_name_H-M    P1
_symmetry_Int_Tables_number       1
_space_group_crystal_system       triclinic
_cell_length_a                    16.178869
_cell_length_b                    17.195884
_cell_length_c                    19.352978
_cell_angle_alpha                 93.859365
_cell_angle_beta                  92.954087
_cell_angle_gamma                 96.961658
_cell_volume                      5322.68130723

loop_
_atom_site_label
_atom_site_type_symbol
_atom_type_description
_atom_site_fract_x
_atom_site_fract_y
_atom_site_fract_z
_atom_type_partial_charge
C1    C     C_R   0.488653 0.349713 0.504561 0.586816
C2    C     C_R   0.536800 0.897661 0.488261 0.048196
C3    C     C_R   0.411488 0.131966 0.505657 -0.104451
C4    C     C_R   0.503998 0.849131 0.430199 -0.101512
C5    C     C_R   0.409460 0.211862 0.500072 0.007375
C6    C     C_R   0.494729 0.767661 0.431958 0.002394
C7    C     C_2   0.481954 0.018073 0.529993 0.017004
C8    C     C_2   0.533292 0.982688 0.487468 0.049620
C9    C     C_R   0.747313 0.458565 0.464983 0.159208
C10   C     C_R   0.254922 0.538210 0.539879 0.146483
C11   C     C_R   0.834438 0.466523 0.458367 0.002040
C12   C     C_R   0.511164 0.649925 0.498252 0.607502
C13   C     C_R   0.168174 0.532214 0.547839 -0.010195
C14   C     C_R   0.886201 0.523765 0.501201 -0.022669
C15   C     C_R   0.114505 0.477797 0.504554 0.032769
C16   C     C_R   0.500113 0.503360 0.367425 0.623476
C17   C     C_R   0.500332 0.500438 0.631824 0.663475
C18   C     C_R   0.849329 0.574179 0.548124 0.197307
C19   C     C_R   0.147568 0.429527 0.454778 0.208341
C20   C     C_R   0.761663 0.566906 0.549999 0.216181
C21   C     C_R   0.235046 0.438864 0.445971 0.186785
C22   C     C_2   0.978935 0.530964 0.495747 0.292419
C23   C     C_R   0.482475 0.265400 0.519022 0.000774
C24   C     C_2   0.022134 0.470849 0.511086 0.365918
C25   C     C_R   0.424521 0.505693 0.250027 0.177433
C26   C     C_R   0.497267 0.575823 0.744367 0.190006
C27   C     C_R   0.425288 0.502621 0.176855 -0.011805
C28   C     C_R   0.498472 0.579682 0.817693 -0.002713
C29   C     C_R   0.501802 0.515414 0.145005 -0.009444
C30   C     C_R   0.508672 0.511255 0.852616 -0.003972
C31   C     C_R   0.576874 0.532492 0.185950 0.221443
C32   C     C_R   0.517770 0.440059 0.814759 0.224684
C33   C     C_R   0.577015 0.527131 0.258657 0.205195
C34   C     C_R   0.518637 0.734804 0.493982 0.032469
C35   C     C_R   0.510664 0.435642 0.741351 0.194322
C36   C     C_R   0.500580 0.511804 0.290897 0.063279
C37   C     C_R   0.501777 0.503729 0.707356 0.090599
C38   C     C_R   0.507434 0.512643 0.928838 0.413529
C39   C     C_R   0.504049 0.514843 0.068725 0.398447
C40   C     C_2   0.696297 0.392945 0.423542 0.668130
C41   C     C_2   0.307519 0.598545 0.586125 0.682220
C42   C     C_2   0.264434 0.398785 0.383097 0.639261
C43   C     C_2   0.725573 0.622604 0.597110 0.712972
C44   C     C_2   0.133708 0.580648 0.603654 0.599592
C45   C     C_R   0.551651 0.237745 0.553546 0.311911
C46   C     C_2   0.871365 0.417646 0.404222 0.632215
C47   C     C_2   0.346519 0.480591 0.133711 0.597262
C48   C     C_2   0.490558 0.655029 0.857611 0.592593
C49   C     C_2   0.459926 0.719821 0.367971 0.579979
C50   C     C_2   0.328538 0.234770 0.475591 0.630584
C51   C     C_2   0.586163 0.025641 0.437665 0.607082
C52   C     C_2   0.421132 0.973475 0.572997 0.599743
C53   C     C_R   0.553738 0.783345 0.552217 0.254307
C54   C     C_R   0.551494 0.156588 0.561038 0.276669
C55   C     C_R   0.566454 0.865720 0.548145 0.275647
C56   C     C_R   0.482050 0.103854 0.533518 -0.007226
Cu1   Cu    Cu3+1 0.415410 0.495980 0.496480 1.156301
Cu2   Cu    Cu3+1 0.584590 0.504020 0.503520 1.135385
H1    H     H_    0.357315 0.090627 0.487686 0.174470
H2    H     H_    0.979225 0.634036 0.461170 0.358936
H3    H     H_    0.955792 0.625072 0.592454 0.368025
H4    H     H_    0.122018 0.328364 0.402300 0.346232
H5    H     H_    0.125345 0.688570 0.648373 0.365442
H6    H     H_    0.947147 0.414932 0.324730 0.382842
H7    H     H_    0.238837 0.513383 0.095391 0.372130
H8    H     H_    0.536695 0.734855 0.935456 0.368463
H9    H     H_    0.686571 0.592914 0.186319 0.356485
H10   H     H_    0.565165 0.342346 0.822688 0.358505
H11   H     H_    0.695709 0.519938 0.271468 0.365035
H12   H     H_    0.482522 0.875361 0.384204 0.180646
H13   H     H_    0.488692 0.321738 0.728190 0.354766
H14   H     H_    0.660780 0.265156 0.604513 0.397107
H15   H     H_    0.568414 0.786894 0.652777 0.342067
H16   H     H_    0.454056 0.707289 0.263344 0.356654
H17   H     H_    0.233380 0.218431 0.402470 0.347480
H18   H     H_    0.604781 0.116882 0.377453 0.362761
H19   H     H_    0.345102 0.873820 0.585191 0.369469
H20   H     H_    0.646811 0.888592 0.627000 0.360869
H21   H     H_    0.606443 0.076024 0.605445 0.374281
H22   H     H_    0.304765 0.513860 0.251758 0.379451
H23   H     H_    0.512028 0.689368 0.736782 0.355162
H24   H     H_    0.653217 0.277397 0.415647 0.346587
H25   H     H_    0.358845 0.711701 0.601712 0.358632
H26   H     H_    0.240635 0.363614 0.281504 0.366906
H27   H     H_    0.678500 0.644126 0.689905 0.357198
H28   H     H_    0.022104 0.367519 0.545082 0.361990
N1    N     N_R   0.563714 0.480943 0.035210 -0.112395
N2    N     N_R   0.447731 0.546370 0.962325 -0.168176
N3    N     N_R   0.565427 0.479919 0.966498 -0.115268
N4    N     N_R   0.446346 0.547812 0.030994 -0.170470
N5    N     N_R   0.711660 0.510070 0.508820 -0.330182
N6    N     N_R   0.288340 0.489930 0.491180 -0.304591
O1    O     O_R   0.420280 0.382610 0.496690 -0.463258
O2    O     O_3   0.492969 0.641039 0.706816 -0.637174
O3    O     O_2   0.671468 0.401055 0.364139 -0.479079
O4    O     O_R   0.686428 0.318654 0.449416 -0.608820
O5    O     O_2   0.323203 0.585745 0.646469 -0.447854
O6    O     O_R   0.326186 0.674305 0.564463 -0.618100
O7    O     O_2   0.328143 0.367754 0.385346 -0.451808
O8    O     O_R   0.216249 0.394260 0.320431 -0.649873
O9    O     O_2   0.724584 0.690372 0.582016 -0.438211
O10   O     O_R   0.700187 0.600064 0.661484 -0.644789
O11   O     O_3   0.980431 0.403423 0.534276 -0.644106
O12   O     O_R   0.579720 0.617390 0.503310 -0.492744
O13   O     O_3   0.020860 0.598290 0.472533 -0.664017
O14   O     O_3   0.895901 0.631156 0.592939 -0.639792
O15   O     O_3   0.092594 0.373909 0.415437 -0.631137
O16   O     O_2   0.088434 0.548773 0.644899 -0.470766
O17   O     O_R   0.152689 0.662411 0.608585 -0.617542
O18   O     O_2   0.855411 0.346074 0.400102 -0.411084
O19   O     O_R   0.925396 0.454023 0.358626 -0.637319
O20   O     O_2   0.332437 0.415312 0.103257 -0.447809
O21   O     O_R   0.289778 0.535125 0.126616 -0.654593
O22   O     O_2   0.432826 0.691979 0.843082 -0.436704
O23   O     O_R   0.563150 0.389410 0.502640 -0.452351
O24   O     O_R   0.548987 0.683362 0.911989 -0.655794
O25   O     O_3   0.648932 0.556300 0.153643 -0.639509
O26   O     O_3   0.531787 0.375746 0.850798 -0.639792
O27   O     O_3   0.651008 0.538514 0.298995 -0.640595
O28   O     O_3   0.510604 0.365932 0.701347 -0.671529
O29   O     O_3   0.617195 0.291881 0.581637 -0.590883
O30   O     O_3   0.571448 0.748676 0.612677 -0.654937
O31   O     O_2   0.410452 0.660836 0.371298 -0.452622
O32   O     O_R   0.481646 0.744355 0.303155 -0.661855
O33   O     O_2   0.292398 0.278222 0.512787 -0.484066
O34   O     O_R   0.436850 0.610590 0.497360 -0.462044
O35   O     O_R   0.290078 0.200821 0.412540 -0.644347
O36   O     O_2   0.648720 0.999191 0.418503 -0.437315
O37   O     O_R   0.563629 0.094108 0.410782 -0.688433
O38   O     O_2   0.400199 0.005335 0.626615 -0.453444
O39   O     O_R   0.385447 0.896934 0.551400 -0.682295
O40   O     O_3   0.606178 0.916346 0.601361 -0.688924
O41   O     O_3   0.620085 0.131153 0.594132 -0.658676
O42   O     O_R   0.428540 0.496590 0.397170 -0.415065
O43   O     O_R   0.571460 0.503410 0.602830 -0.461197
O44   O     O_R   0.571410 0.503390 0.403120 -0.460001
O45   O     O_R   0.428590 0.496610 0.596880 -0.488977
O46   O     O_3   0.350563 0.500999 0.282990 -0.619637

loop_
_geom_bond_atom_site_label_1
_geom_bond_atom_site_label_2
_ccdc_geom_bond_type
C26   O2    S    
H16   O32   S    
C23   C45   A    
Cu1   N6    S    
H14   O29   S    
C27   C29   A    
C14   C18   A    
C39   N1    A    
C16   O42   A    
C9    N5    A    
C4    H12   S    
C51   O37   S    
C7    C8    D    
C15   C19   A    
C38   N3    A    
H8    O24   S    
H13   O28   S    
C51   O36   D    
C35   C37   A    
C7    C52   S    
C12   O12   A    
C53   O30   S    
H19   O39   S    
C11   C14   A    
C12   O34   A    
C47   O20   D    
C49   O31   D    
C33   C36   A    
C30   C38   S    
H18   O37   S    
H20   O40   S    
C31   O25   S    
C41   O5    D    
H10   O26   S    
H25   O6    S    
C17   O43   A    
C31   C33   A    
Cu2   N5    S    
C39   N4    A    
C18   C20   A    
C48   O24   S    
C44   O17   S    
C53   C55   A    
C10   N6    A    
Cu1   O1    S    
C46   O19   S    
C10   C41   S    
C35   O28   S    
C7    C56   S    
C40   O4    S    
H28   O11   S    
C44   O16   D    
H21   O41   S    
C20   N5    A    
C54   C56   A    
H24   O4    S    
H26   O8    S    
C32   C35   A    
C4    C6    A    
Cu1   O34   S    
H6    O19   S    
H4    O15   S    
C45   O29   S    
C54   O41   S    
H11   O27   S    
C9    C40   S    
C6    C34   A    
C38   N2    A    
H5    O17   S    
C2    C4    A    
C43   O9    D    
C42   O8    S    
H9    O25   S    
C3    C56   A    
C5    C23   A    
C29   C39   S    
Cu1   O45   S    
C50   O33   D    
C17   C37   S    
H3    O14   S    
C9    C11   A    
C8    C51   S    
C15   C24   S    
N2    N4    A    
C45   C54   A    
C33   O27   S    
C13   C15   A    
Cu2   O23   S    
C22   C24   D    
C5    C50   S    
Cu2   O12   S    
C40   O3    D    
C12   C34   S    
C16   O44   A    
C20   C43   S    
C48   O22   D    
C27   C47   S    
C47   O21   S    
C28   C48   S    
C19   C21   A    
C52   O39   S    
H7    O21   S    
C2    C8    S    
C32   O26   S    
C3    C5    A    
C10   C13   A    
C26   C37   A    
C1    C23   S    
Cu2   O43   S    
C25   C27   A    
C22   O13   S    
C26   C28   A    
C2    C55   A    
C24   O11   S    
Cu2   O44   S    
C14   C22   S    
C46   O18   D    
C25   O46   S    
C43   O10   S    
C52   O38   D    
C29   C31   A    
C55   O40   S    
C42   O7    D    
C16   C36   S    
C30   C32   A    
H23   O2    S    
C49   O32   S    
Cu1   Cu2   S    
C18   O14   S    
H22   O46   S    
C28   C30   A    
H17   O35   S    
C6    C49   S    
Cu1   O42   S    
H2    O13   S    
C25   C36   A    
C21   C42   S    
C34   C53   A    
C1    O1    A    
H15   O30   S    
N1    N3    A    
C41   O6    S    
C11   C46   S    
C17   O45   A    
C50   O35   S    
C1    O23   A    
C13   C44   S    
H27   O10   S    
C3    H1    S    
C21   N6    A    
C19   O15   S    
