data_mof_unit_37963.cif
_audit_creation_date              2012-12-10T16:38:35-0500
_audit_creation_method            fapswitch 2.2
_symmetry_space_group_name_H-M    P1
_symmetry_Int_Tables_number       1
_space_group_crystal_system       triclinic
_cell_length_a                    10.79718
_cell_length_b                    10.917943
_cell_length_c                    17.875105
_cell_angle_alpha                 98.31516
_cell_angle_beta                  72.458175
_cell_angle_gamma                 98.572103
_cell_volume                      1975.59991699

loop_
_atom_site_label
_atom_site_type_symbol
_atom_type_description
_atom_site_fract_x
_atom_site_fract_y
_atom_site_fract_z
_atom_type_partial_charge
C1    C     C_R   0.157383 0.480104 0.517665 0.869964
C2    C     C_R   0.518367 0.365039 0.933215 0.485251
C3    C     C_R   0.593766 0.313554 0.968876 0.481193
C4    C     C_R   0.843360 0.521009 0.482277 0.858622
C5    C     C_R   0.605750 0.366637 0.043137 -0.281925
C6    C     C_R   0.517337 0.452107 0.089436 -0.127084
C7    C     C_R   0.700782 0.330198 0.072382 0.431836
C8    C     C_R   0.680709 0.343832 0.154501 0.309278
C9    C     C_R   0.513693 0.481394 0.170347 0.460224
C10   C     C_2   0.981953 0.529134 0.474976 -0.330847
C11   C     C_2   0.020873 0.474080 0.524667 -0.310372
C12   C     C_R   0.345676 0.706330 0.835663 0.318565
C13   C     C_2   0.548530 0.970063 0.486627 0.154841
C14   C     C_2   0.447057 0.036213 0.525479 0.236356
C15   C     C_R   0.466724 0.168904 0.518009 0.809205
C16   C     C_R   0.531631 0.833873 0.484433 0.799752
C17   C     C_R   0.565272 0.435946 0.287926 0.970936
C18   C     C_R   0.440928 0.568501 0.711802 0.855316
C19   C     C_R   0.422915 0.609543 0.796735 -0.363012
C20   C     C_R   0.585623 0.417642 0.202801 -0.276330
C21   C     C_R   0.299149 0.719285 0.918290 0.427826
C22   C     C_3   0.299501 0.862238 0.106789 0.117034
C23   C     C_R   0.482734 0.552878 0.839969 0.462197
C24   C     C_3   0.209123 0.957662 0.156220 -0.301379
C25   C     C_3   0.286058 0.083056 0.171936 -0.983061
C26   C     C_3   0.867081 0.206990 0.002256 0.200223
C27   C     C_3   0.998764 0.208846 0.018336 -0.386083
C28   C     C_3   0.044415 0.079452 0.000957 -0.972685
C29   C     C_3   0.758930 0.032222 0.487883 0.075851
C30   C     C_3   0.884608 0.111032 0.448076 -0.280967
C31   C     C_3   0.988291 0.116054 0.490959 -0.977813
C32   C     C_3   0.225979 0.052496 0.603133 0.088772
C33   C     C_3   0.239397 0.110418 0.684237 -0.409696
C34   C     C_R   0.431423 0.558538 0.923290 -0.159415
C35   C     C_3   0.139205 0.202469 0.722878 -0.946638
C36   C     C_3   0.509621 0.685120 0.218559 -0.374367
C37   C     C_3   0.721521 0.161998 0.188430 0.021937
C38   C     C_3   0.656082 0.128021 0.272345 -0.301623
C39   C     C_3   0.619474 0.987537 0.271849 -0.918208
C40   C     C_3   0.574560 0.103313 0.967877 -0.407063
C41   C     C_3   0.083464 0.742235 0.956345 -0.189337
C42   C     C_3   0.420079 0.861756 0.751703 0.151719
C43   C     C_3   0.478622 0.960504 0.804817 -0.432927
C44   C     C_3   0.585456 0.048249 0.755071 -0.842509
C45   C     C_R   0.344343 0.647996 0.962992 -0.213122
C46   C     C_3   0.706767 0.573504 0.810754 0.108172
C47   C     C_3   0.760121 0.661362 0.745878 -0.396609
C48   C     C_3   0.888646 0.736381 0.751649 -0.921205
C49   C     C_3   0.358397 0.263061 0.880151 -0.302625
C50   C     C_R   0.467931 0.479117 0.967691 -0.105725
C51   C     C_R   0.445266 0.508522 0.050220 -0.008977
C52   C     C_R   0.352619 0.592630 0.088337 -0.245425
C53   C     C_R   0.305997 0.664466 0.046275 0.490440
H1    H     H_    0.052411 0.579566 0.429154 0.161995
H2    H     H_    0.335933 0.124142 0.115723 0.254998
H3    H     H_    0.881772 0.181962 0.937922 0.185684
H4    H     H_    0.795271 0.132945 0.032127 0.093282
H5    H     H_    0.072893 0.273467 0.980729 0.217388
H6    H     H_    0.990789 0.243665 0.080939 0.264302
H7    H     H_    0.972413 0.014569 0.039350 0.253504
H8    H     H_    0.139863 0.083725 0.013213 0.280382
H9    H     H_    0.056191 0.043753 0.938045 0.279087
H10   H     H_    0.782184 0.936247 0.488015 0.144783
H11   H     H_    0.720993 0.074270 0.550007 0.141905
H12   H     H_    0.952436 0.423676 0.571161 0.165311
H13   H     H_    0.923461 0.070594 0.385956 0.224699
H14   H     H_    0.862944 0.207334 0.447672 0.229087
H15   H     H_    0.953557 0.160665 0.552357 0.258157
H16   H     H_    0.079066 0.171423 0.459556 0.292436
H17   H     H_    0.011361 0.020714 0.492264 0.258960
H18   H     H_    0.130924 0.992744 0.613065 0.169237
H19   H     H_    0.218451 0.123552 0.566661 0.151045
H20   H     H_    0.223466 0.035519 0.723163 0.236630
H21   H     H_    0.338819 0.159753 0.678645 0.225112
H22   H     H_    0.155597 0.280738 0.686343 0.254558
H23   H     H_    0.310759 0.604698 0.151039 0.234209
H24   H     H_    0.148951 0.240926 0.782082 0.259818
H25   H     H_    0.038475 0.155125 0.729960 0.269597
H26   H     H_    0.543200 0.715279 0.158106 0.157490
H27   H     H_    0.595067 0.687868 0.241361 0.206423
H28   H     H_    0.445387 0.753207 0.257327 0.197257
H29   H     H_    0.811339 0.114230 0.164174 0.172800
H30   H     H_    0.654059 0.122981 0.151998 0.096528
H31   H     H_    0.722629 0.160225 0.309814 0.243150
H32   H     H_    0.565286 0.173257 0.297704 0.235536
H33   H     H_    0.562570 0.953603 0.229093 0.226088
H34   H     H_    0.361299 0.901862 0.051717 0.145452
H35   H     H_    0.557335 0.964690 0.330877 0.286034
H36   H     H_    0.708768 0.938985 0.255465 0.269971
H37   H     H_    0.568278 0.109601 0.031481 0.135629
H38   H     H_    0.621795 0.018493 0.938896 0.187576
H39   H     H_    0.474424 0.091609 0.961068 0.185417
H40   H     H_    0.062491 0.654000 0.984643 0.167722
H41   H     H_    0.071187 0.723658 0.895988 0.167578
H42   H     H_    0.009505 0.803777 0.992076 0.166180
H43   H     H_    0.387945 0.908470 0.710749 0.181464
H44   H     H_    0.499387 0.807209 0.714029 0.103910
H45   H     H_    0.363800 0.844485 0.141633 0.103011
H46   H     H_    0.400343 0.013248 0.845276 0.251098
H47   H     H_    0.522251 0.914046 0.840514 0.200048
H48   H     H_    0.661737 0.994665 0.712629 0.221546
H49   H     H_    0.632961 0.115168 0.793505 0.339118
H50   H     H_    0.543119 0.101113 0.721910 0.264965
H51   H     H_    0.782358 0.511860 0.806287 0.173370
H52   H     H_    0.689950 0.627784 0.870170 0.103305
H53   H     H_    0.776530 0.606109 0.687097 0.248488
H54   H     H_    0.687843 0.727027 0.751259 0.193708
H55   H     H_    0.874215 0.793653 0.809655 0.255666
H56   H     H_    0.138383 0.970963 0.124838 0.241352
H57   H     H_    0.924198 0.799460 0.704249 0.265092
H58   H     H_    0.963977 0.673098 0.744483 0.276701
H59   H     H_    0.301538 0.343260 0.888954 0.159672
H60   H     H_    0.320343 0.208049 0.931644 0.142093
H61   H     H_    0.341867 0.203195 0.827723 0.195663
H62   H     H_    0.153118 0.922059 0.213464 0.222321
H63   H     H_    0.359963 0.071800 0.201559 0.265752
H64   H     H_    0.218127 0.148246 0.210822 0.282376
O1    O     O_3   0.500000 0.500000 0.500000 -0.498991
O2    O     O_R   0.470800 0.371790 0.332500 -0.654021
O3    O     O_R   0.380610 0.619380 0.674980 -0.631865
O4    O     O_R   0.632640 0.524780 0.317540 -0.636091
O5    O     O_R   0.515950 0.484050 0.674980 -0.586599
O6    O     O_3   0.222975 0.751611 0.088334 -0.606102
O7    O     O_3   0.827112 0.327828 0.022106 -0.617575
O8    O     O_3   0.667094 0.029961 0.445579 -0.668982
O9    O     O_3   0.325220 0.974537 0.563697 -0.643882
O10   O     O_3   0.436451 0.566624 0.220486 -0.620697
O11   O     O_3   0.758777 0.292338 0.187803 -0.629775
O12   O     O_R   0.535460 0.243030 0.556410 -0.650320
O13   O     O_3   0.650896 0.207279 0.931764 -0.589434
O14   O     O_3   0.209148 0.802868 0.954707 -0.568565
O15   O     O_3   0.309098 0.787462 0.795008 -0.593767
O16   O     O_3   0.594464 0.496130 0.800038 -0.554696
O17   O     O_3   0.493801 0.300593 0.865467 -0.539472
O18   O     O_R   0.437420 0.784080 0.535340 -0.606984
O19   O     O_R   0.223560 0.397520 0.472140 -0.640003
O20   O     O_R   0.803560 0.575360 0.436110 -0.642575
O21   O     O_R   0.209690 0.568800 0.556400 -0.622928
O22   O     O_R   0.763190 0.458310 0.535350 -0.644550
O23   O     O_R   0.414000 0.207090 0.472140 -0.667093
O24   O     O_R   0.613120 0.765800 0.436110 -0.640196
Zn1   Zn    Zn3+2 0.577310 0.422690 0.565550 0.967140
Zn2   Zn    Zn3+2 0.403760 0.371330 0.445150 0.963716
Zn3   Zn    Zn3+2 0.634990 0.589920 0.423760 0.977142
Zn4   Zn    Zn3+2 0.383940 0.616050 0.565540 0.984977

loop_
_geom_bond_atom_site_label_1
_geom_bond_atom_site_label_2
_ccdc_geom_bond_type
C48   H57   S    
C49   O17   S    
C29   H10   S    
C22   H45   S    
C29   O8    S    
C3    O13   S    
O2    Zn2   S    
C49   H60   S    
C1    C11   S    
O23   Zn2   S    
C7    O7    S    
C6    C9    A    
C22   O6    S    
C32   H19   S    
C48   H55   S    
C35   H22   S    
C26   C27   S    
C29   C30   S    
C42   H43   S    
C5    C6    A    
C43   H46   S    
O19   Zn2   S    
O1    Zn3   S    
C30   C31   S    
O22   Zn1   S    
O21   Zn4   S    
C46   H52   S    
C17   C20   S    
C18   C19   S    
C32   O9    S    
C21   O14   S    
C2    C50   A    
C4    O20   A    
C8    O11   S    
C31   H17   S    
C41   H40   S    
C41   H41   S    
O18   Zn4   S    
C6    C51   A    
C1    O19   A    
C30   H14   S    
C37   O11   S    
C13   O8    S    
C28   H8    S    
C23   C34   A    
C49   H61   S    
C29   H11   S    
C45   C53   A    
O3    Zn4   S    
C13   C14   D    
O4    Zn3   S    
C31   H15   S    
C26   O7    S    
C39   H35   S    
C44   H50   S    
C32   H18   S    
C21   C45   A    
C28   H7    S    
C38   C39   S    
C34   C50   A    
C23   O16   S    
C38   H32   S    
C51   C52   A    
C7    C8    A    
C43   H47   S    
O1    Zn2   S    
C36   H27   S    
O24   Zn3   S    
C5    C7    A    
C44   H49   S    
O12   Zn1   S    
C3    C5    A    
C46   H51   S    
C12   C21   A    
C35   H24   S    
C40   H39   S    
C26   H3    S    
C19   C23   A    
C43   C44   S    
C37   C38   S    
C9    C20   A    
C47   C48   S    
C15   O12   A    
C36   H28   S    
C47   H53   S    
C50   C51   A    
C34   C45   A    
C8    C20   A    
C22   H34   S    
C24   C25   S    
C30   H13   S    
C18   O5    A    
C49   H59   S    
C17   O4    A    
O20   Zn3   S    
C47   H54   S    
C53   O6    S    
C22   C24   S    
C37   H29   S    
C25   H63   S    
C36   O10   S    
C42   C43   S    
O5    Zn1   S    
C4    C10   S    
C18   O3    A    
C42   H44   S    
C52   C53   A    
C41   O14   S    
C15   O23   A    
C33   H20   S    
C9    O10   S    
C40   O13   S    
C46   C47   S    
C12   O15   S    
C38   H31   S    
O1    Zn4   S    
C24   H56   S    
C25   H2    S    
O1    Zn1   S    
C36   H26   S    
C25   H64   S    
C44   H48   S    
C2    O17   S    
C35   H25   S    
C14   O9    S    
C52   H23   S    
C32   C33   S    
C16   O24   A    
C27   H6    S    
C46   O16   S    
C41   H42   S    
C27   H5    S    
C12   C19   A    
C33   C35   S    
C2    C3    A    
C40   H38   S    
C10   H1    S    
C26   H4    S    
C10   C11   D    
C17   O2    A    
C33   H21   S    
C31   H16   S    
C48   H58   S    
C24   H62   S    
C13   C16   S    
C27   C28   S    
C14   C15   S    
C37   H30   S    
C42   O15   S    
C39   H33   S    
C40   H37   S    
C16   O18   A    
C39   H36   S    
C1    O21   A    
C11   H12   S    
C4    O22   A    
C28   H9    S    
