data_mof_unit_26103.cif
_audit_creation_date              2012-12-10T20:34:56-0500
_audit_creation_method            fapswitch 2.2
_symmetry_space_group_name_H-M    P1
_symmetry_Int_Tables_number       1
_space_group_crystal_system       triclinic
_cell_length_a                    10.6505
_cell_length_b                    10.645724
_cell_length_c                    9.867985
_cell_angle_alpha                 90.10376
_cell_angle_beta                  89.603777
_cell_angle_gamma                 90.231251
_cell_volume                      1118.81702778

loop_
_atom_site_label
_atom_site_type_symbol
_atom_type_description
_atom_site_fract_x
_atom_site_fract_y
_atom_site_fract_z
_atom_type_partial_charge
C1    C     C_R   0.494956 0.259833 0.499837 0.868955
C2    C     C_R   0.445891 0.936019 0.619938 0.133079
C3    C     C_3   0.508660 0.928786 0.755182 -0.034434
C4    C     C_R   0.257465 0.498500 0.500199 0.836907
C5    C     C_3   0.514380 0.071829 0.753126 -0.485261
C6    C     C_R   0.440000 0.406602 0.071793 0.124513
C7    C     C_R   0.570362 0.583933 0.071605 -0.107969
C8    C     C_R   0.571072 0.583338 0.927626 -0.116694
C9    C     C_R   0.437955 0.408213 0.929135 0.107559
C10   C     C_3   0.300037 0.384092 0.928476 0.428191
C11   C     C_3   0.303941 0.376311 0.081419 -0.547906
C12   C     C_3   0.877803 0.491026 0.497425 0.140495
C13   C     C_R   0.493435 0.740027 0.500069 0.872196
C14   C     C_R   0.741773 0.493416 0.499337 0.844952
C15   C     C_3   0.070359 0.400176 0.605041 -0.398327
C16   C     C_3   0.927203 0.407740 0.614218 -0.394468
C17   C     C_3   0.068330 0.631985 0.528563 -0.006606
C18   C     C_3   0.073292 0.454848 0.357841 -0.452481
C19   C     C_3   0.120534 0.497136 0.500042 0.138270
C20   C     C_3   0.421346 0.875902 0.865351 -0.850062
C21   C     C_3   0.110602 0.691120 0.663681 -0.823298
C22   C     C_3   0.890187 0.305664 0.323858 -0.924615
C23   C     C_3   0.923724 0.627874 0.520214 -0.466387
C24   C     C_3   0.929811 0.441913 0.358081 0.047437
C25   C     C_R   0.449413 0.064364 0.619496 0.077491
C26   C     C_R   0.470168 0.128656 0.498625 -0.101945
C27   C     C_R   0.460874 0.064380 0.374860 -0.234177
C28   C     C_R   0.459504 0.934653 0.375108 -0.222975
C29   C     C_R   0.466926 0.870847 0.499173 -0.139197
F1    F     F_    0.234749 0.489208 0.887345 -0.676897
H1    H     H_    0.109486 0.416410 0.706881 0.247891
H2    H     H_    0.624923 0.653534 0.125613 0.133544
H3    H     H_    0.098741 0.303646 0.574273 0.153159
H4    H     H_    0.626442 0.652282 0.873048 0.136120
H5    H     H_    0.272784 0.295335 0.876820 0.046974
H6    H     H_    0.249629 0.451698 0.132015 0.243231
H7    H     H_    0.286901 0.280025 0.121063 0.144148
H8    H     H_    0.885471 0.311875 0.610549 0.163114
H9    H     H_    0.900418 0.449062 0.714041 0.193448
H10   H     H_    0.879717 0.667151 0.613879 0.188262
H11   H     H_    0.100268 0.526457 0.280783 0.160685
H12   H     H_    0.893640 0.502697 0.275278 0.167492
H13   H     H_    0.119110 0.365010 0.327576 0.194329
H14   H     H_    0.402257 0.775024 0.845785 0.278516
H15   H     H_    0.466880 0.885351 0.965755 0.229980
H16   H     H_    0.330107 0.926281 0.867896 0.240425
H17   H     H_    0.080797 0.632755 0.751206 0.293380
H18   H     H_    0.213798 0.705148 0.665467 0.261811
H19   H     H_    0.067771 0.785521 0.675582 0.214988
H20   H     H_    0.920962 0.282286 0.219040 0.242854
H21   H     H_    0.933987 0.237234 0.393649 0.244432
H22   H     H_    0.786842 0.293330 0.328810 0.255677
H23   H     H_    0.103545 0.695692 0.447093 0.144283
H24   H     H_    0.892452 0.688291 0.434891 0.139536
H25   H     H_    0.465673 0.112761 0.278438 0.170270
H26   H     H_    0.464029 0.885804 0.278783 0.172743
H27   H     H_    0.602521 0.883373 0.750869 0.160228
H28   H     H_    0.455601 0.118917 0.831600 0.195692
H29   H     H_    0.611749 0.109159 0.743937 0.180108
N1    N     N_R   0.499150 0.499140 0.142800 -0.085540
N2    N     N_R   0.499150 0.499180 0.857150 -0.080307
O1    O     O_R   0.500020 0.316790 0.614690 -0.626625
O2    O     O_R   0.500000 0.316760 0.385350 -0.623865
O3    O     O_R   0.314800 0.500000 0.614670 -0.568227
O4    O     O_R   0.314790 0.499960 0.385330 -0.636776
O5    O     O_R   0.500000 0.683240 0.614650 -0.623671
O6    O     O_R   0.499980 0.683210 0.385310 -0.620930
O7    O     O_R   0.685210 0.500040 0.614670 -0.631685
O8    O     O_R   0.685200 0.500000 0.385330 -0.629618
Zn1   Zn    Zn3+2 0.500010 0.500020 0.653130 0.958265
Zn2   Zn    Zn3+2 0.499990 0.499980 0.346870 0.935312

loop_
_geom_bond_atom_site_label_1
_geom_bond_atom_site_label_2
_ccdc_geom_bond_type
N2    Zn1   S    
C11   H7    S    
C15   H1    S    
C10   H5    S    
C18   C24   S    
O3    Zn1   S    
C2    C25   A    
C24   H12   S    
C9    C10   S    
C4    O3    A    
C20   H15   S    
C8    N2    A    
C22   H20   S    
C21   H18   S    
C1    O1    A    
C3    C5    S    
C6    C9    A    
C21   H19   S    
C2    C3    S    
C28   H26   S    
C17   H23   S    
C3    C20   S    
C8    H4    S    
C18   H13   S    
C15   C19   S    
C12   C23   S    
C26   C27   A    
C17   C23   S    
C12   C16   S    
C5    H28   S    
C2    C29   A    
C5    C25   S    
C1    O2    A    
C22   C24   S    
C13   C29   S    
C28   C29   A    
C20   H14   S    
C12   C14   S    
C9    N2    A    
O6    Zn2   S    
C13   O5    A    
C6    C11   S    
C4    O4    A    
C7    H2    S    
C14   O8    A    
C27   H25   S    
C18   H11   S    
C1    C26   S    
C10   C11   S    
C5    H29   S    
C16   H9    S    
C23   H10   S    
C3    H27   S    
C7    N1    A    
C7    C8    A    
O5    Zn1   S    
O1    Zn1   S    
C23   H24   S    
C22   H22   S    
C18   C19   S    
C13   O6    A    
C6    N1    A    
C27   C28   A    
O8    Zn2   S    
O7    Zn1   S    
C10   F1    S    
C11   H6    S    
C14   O7    A    
C12   C24   S    
N1    Zn2   S    
C17   C19   S    
C25   C26   A    
O4    Zn2   S    
C4    C19   S    
O2    Zn2   S    
C15   H3    S    
C20   H16   S    
C15   C16   S    
C16   H8    S    
C22   H21   S    
C21   H17   S    
C17   C21   S    
