data_mof_unit_43990.cif
_audit_creation_date              2012-12-11T16:08:38-0500
_audit_creation_method            fapswitch 2.2
_symmetry_space_group_name_H-M    P1
_symmetry_Int_Tables_number       1
_space_group_crystal_system       triclinic
_cell_length_a                    12.941254
_cell_length_b                    13.297877
_cell_length_c                    27.764444
_cell_angle_alpha                 94.337438
_cell_angle_beta                  90.194754
_cell_angle_gamma                 119.085024
_cell_volume                      4159.12164355

loop_
_atom_site_label
_atom_site_type_symbol
_atom_type_description
_atom_site_fract_x
_atom_site_fract_y
_atom_site_fract_z
_atom_type_partial_charge
C1    C     C_R   0.629514 0.894965 0.428110 0.556677
C2    C     C_R   0.645909 0.243439 0.220279 -0.109946
C3    C     C_R   0.634763 0.225942 0.269413 -0.119045
C4    C     C_R   0.665122 0.319357 0.304140 0.020134
C5    C     C_R   0.686264 0.354342 0.205623 0.025265
C6    C     C_1   0.695497 0.373411 0.155142 -0.073981
C7    C     C_1   0.651139 0.298647 0.354407 -0.089118
C8    C     C_1   0.704289 0.397690 0.113867 -0.027533
C9    C     C_R   0.133619 0.748861 0.357097 0.089636
C10   C     C_R   0.102227 0.734596 0.307607 0.011133
C11   C     C_R   0.068690 0.707225 0.207006 0.004399
C12   C     C_R   0.601264 0.222681 0.440713 0.542549
C13   C     C_R   0.021745 0.610292 0.233292 -0.148717
C14   C     C_R   0.036688 0.623745 0.283234 -0.128514
C15   C     C_R   0.056206 0.693698 0.157203 -0.129215
C16   C     C_R   0.096903 0.790403 0.130502 0.006038
C17   C     C_R   0.230055 0.959655 0.354463 0.086716
C18   C     C_R   0.203721 0.945710 0.304646 0.011435
C19   C     C_R   0.143684 0.833195 0.281140 0.008946
C20   C     C_R   0.240658 0.042024 0.277376 -0.131010
C21   C     C_R   0.224708 0.027427 0.227422 -0.149031
C22   C     C_R   0.168747 0.916741 0.203767 0.016303
C23   C     C_R   0.269014 0.877644 0.425795 0.584679
C24   C     C_R   0.126642 0.819123 0.230697 0.067282
C25   C     C_R   0.152260 0.901750 0.153596 -0.145805
C26   C     C_R   0.205252 0.861218 0.379438 0.037935
C27   C     C_R   0.750230 0.941556 0.357413 -0.158327
C28   C     C_R   0.753063 0.931481 0.307471 0.000096
C29   C     C_R   0.750437 0.913771 0.206447 0.009073
C30   C     C_R   0.832359 0.018251 0.232579 0.158423
C31   C     C_R   0.833452 0.027424 0.283359 0.158855
C32   C     C_R   0.749145 0.903360 0.156103 -0.154087
C33   C     C_R   0.681435 0.796809 0.129771 0.005647
C34   C     C_R   0.626809 0.898064 0.564977 0.536994
C35   C     C_R   0.583946 0.747399 0.357452 0.137625
C36   C     C_R   0.590314 0.729973 0.306485 0.046392
C37   C     C_R   0.671607 0.826008 0.281551 -0.037201
C38   C     C_R   0.517575 0.622695 0.279129 0.135402
C39   C     C_R   0.521069 0.615342 0.228858 -0.121147
C40   C     C_R   0.595222 0.711027 0.204102 -0.004310
C41   C     C_R   0.672273 0.816947 0.230735 -0.015843
C42   C     C_R   0.598028 0.701395 0.153206 0.125817
C43   C     C_R   0.658247 0.857102 0.381373 -0.005814
C44   C     C_R   0.731283 0.279659 0.651195 -0.161906
C45   C     C_R   0.604400 0.229029 0.577726 0.559671
C46   C     C_R   0.745973 0.303979 0.701185 0.018491
C47   C     C_R   0.760429 0.338537 0.802893 0.006680
C48   C     C_R   0.823833 0.290981 0.778769 -0.122353
C49   C     C_R   0.818333 0.274852 0.728383 0.108119
C50   C     C_R   0.764861 0.354095 0.853914 0.121430
C51   C     C_R   0.698144 0.400858 0.876490 0.000681
C52   C     C_R   0.594713 0.356016 0.647061 0.129981
C53   C     C_R   0.611936 0.385446 0.697431 0.022932
C54   C     C_R   0.683525 0.354154 0.724610 -0.000235
C55   C     C_R   0.556055 0.441318 0.721620 -0.128528
C56   C     C_R   0.274313 0.880386 0.564181 0.542208
C57   C     C_R   0.563372 0.457957 0.771677 -0.127146
C58   C     C_R   0.627902 0.420670 0.798532 -0.002717
C59   C     C_R   0.691251 0.371654 0.775362 0.008845
C60   C     C_R   0.630572 0.433329 0.848404 -0.165765
C61   C     C_R   0.648329 0.295188 0.624978 0.005247
C62   C     C_1   0.235650 0.867781 0.612813 -0.023284
C63   C     C_R   0.140609 0.741053 0.724657 0.165860
C64   C     C_R   0.130014 0.735795 0.775112 -0.107924
C65   C     C_R   0.248830 0.944886 0.788897 0.151547
C66   C     C_R   0.257524 0.950730 0.738616 -0.095942
C67   C     C_1   0.633194 0.271080 0.395173 -0.037655
C68   C     C_R   0.203017 0.850450 0.706648 0.010006
C69   C     C_R   0.182507 0.836033 0.807076 -0.001153
C70   C     C_1   0.154059 0.823485 0.857418 -0.086719
C71   C     C_1   0.216991 0.860604 0.655307 -0.071621
C72   C     C_1   0.116917 0.804078 0.897437 -0.034269
C73   C     C_1   0.641689 0.858834 0.610098 -0.035399
C74   C     C_R   0.757588 0.842920 0.724732 0.152488
C75   C     C_R   0.762923 0.849758 0.775819 0.150610
C76   C     C_R   0.548368 0.754050 0.775921 -0.117773
C77   C     C_R   0.542520 0.758811 0.725682 0.116013
C78   C     C_R   0.705442 0.430343 0.289519 -0.123336
C79   C     C_R   0.647846 0.804916 0.699915 0.025553
C80   C     C_R   0.657792 0.802107 0.801283 -0.017581
C81   C     C_1   0.664352 0.796121 0.853096 -0.062172
C82   C     C_1   0.645968 0.830179 0.650044 -0.053650
C83   C     C_1   0.682116 0.789687 0.895287 -0.024392
C84   C     C_R   0.060364 0.769165 0.079935 0.544023
C85   C     C_R   0.717062 0.441507 0.067416 0.543862
C86   C     C_R   0.720023 0.780989 0.081370 0.554156
C87   C     C_R   0.058782 0.767246 0.941853 0.546675
C88   C     C_R   0.711981 0.438172 0.928145 0.542560
C89   C     C_R   0.715543 0.447674 0.240308 -0.116461
C90   C     C_R   0.716108 0.776332 0.942882 0.538985
Cr1   Cr    Cr6+3 0.416430 0.829200 0.492370 1.021460
Cr2   Cr    Cr6+3 0.674630 0.087020 0.504170 1.010393
Cr3   Cr    Cr6+3 0.408920 0.083740 0.503490 1.033653
Cr4   Cr    Cr6+3 0.914010 0.832750 0.013970 1.016384
Cr5   Cr    Cr6+3 0.922310 0.578600 0.003000 1.000451
Cr6   Cr    Cr6+3 0.656280 0.574630 0.003870 1.026985
H1    H     H_    0.517122 0.498868 0.789452 0.110319
H2    H     H_    0.622436 0.170651 0.193823 0.118344
H3    H     H_    0.078929 0.653883 0.790224 0.110776
H4    H     H_    0.008674 0.606836 0.139379 0.137966
H5    H     H_    0.974127 0.523857 0.215181 0.115594
O1    O     O_R   0.296680 0.802170 0.437540 -0.496229
O2    O     O_R   0.662610 0.183990 0.557860 -0.520051
O3    O     O_R   0.500730 0.201280 0.562180 -0.475449
O4    O     O_R   0.312500 0.978850 0.548170 -0.497310
O5    O     O_3   0.499990 0.999990 0.500010 -0.251659
O6    O     O_R   0.820790 0.857990 0.068830 -0.531218
O7    O     O_R   0.016700 0.827330 0.062850 -0.499016
O8    O     O_R   0.041970 0.673520 0.060040 -0.525879
O9    O     O_R   0.817980 0.483660 0.048840 -0.502480
O10   O     O_R   0.637200 0.461990 0.052510 -0.501361
O11   O     O_R   0.664790 0.681920 0.057970 -0.458072
O12   O     O_R   0.525380 0.838530 0.443500 -0.467896
O13   O     O_R   0.815840 0.852920 0.961840 -0.508019
O14   O     O_R   0.012100 0.822630 0.963670 -0.495014
O15   O     O_R   0.037010 0.668460 0.953040 -0.519148
O16   O     O_R   0.813390 0.478970 0.949660 -0.494433
O17   O     O_R   0.632250 0.456930 0.945520 -0.527350
O18   O     O_R   0.660200 0.677230 0.958780 -0.501902
O19   O     O_3   0.830870 0.661990 0.006950 -0.246092
O20   O     O_R   0.702130 0.995190 0.446810 -0.534434
O21   O     O_R   0.661770 0.181390 0.458760 -0.496681
O22   O     O_R   0.499820 0.198480 0.455280 -0.502263
O23   O     O_R   0.311660 0.976250 0.449080 -0.473248
O24   O     O_R   0.297580 0.804960 0.544440 -0.514095
O25   O     O_R   0.526220 0.841130 0.542590 -0.499823
O26   O     O_R   0.703030 0.997990 0.553710 -0.509694
H6    H     H_    0.728179 0.502967 0.315982 0.109872
H7    H     H_    0.256503 0.102934 0.207275 0.102867
H8    H     H_    0.284464 0.129798 0.293849 0.114125
N1    N     N_2   0.289896 0.072876 0.378923 -0.476682
H9    H     H_    0.365420 0.131653 0.363426 0.250477
C91   C     C_3   0.213174 0.117866 0.395390 -0.276445
H10   H     H_    0.167866 0.130182 0.364147 0.128283
H11   H     H_    0.266522 0.202468 0.416663 0.139794
H12   H     H_    0.145838 0.057678 0.419002 0.155795
H13   H     H_    0.808496 0.976606 0.137039 0.173220
H14   H     H_    0.812879 0.021528 0.377557 0.180708
N2    N     N_2   0.912893 0.113881 0.207482 -0.537329
H15   H     H_    0.927181 0.193524 0.221865 0.254805
C92   C     C_3   0.021394 0.113536 0.195373 -0.323938
H16   H     H_    0.076163 0.127973 0.228661 0.136987
H17   H     H_    0.072660 0.183965 0.171924 0.135028
H18   H     H_    0.002236 0.030160 0.175509 0.172919
N3    N     N_2   0.916367 0.132191 0.310514 -0.544190
H19   H     H_    0.000264 0.172240 0.297591 0.249872
C93   C     C_3   0.872996 0.211992 0.323601 -0.322791
H20   H     H_    0.862288 0.250484 0.291161 0.143899
H21   H     H_    0.937467 0.282671 0.349616 0.137685
H22   H     H_    0.786823 0.167773 0.341047 0.169198
N4    N     N_2   0.522107 0.595208 0.125477 -0.484176
H23   H     H_    0.521590 0.522766 0.136605 0.248505
C94   C     C_3   0.406602 0.579474 0.112466 -0.294087
H24   H     H_    0.357116 0.498763 0.088289 0.136563
H25   H     H_    0.415659 0.652989 0.092865 0.157713
H26   H     H_    0.355625 0.573017 0.145299 0.130556
H27   H     H_    0.465022 0.532143 0.209558 0.118411
N5    N     N_2   0.446918 0.519108 0.301448 -0.526696
H28   H     H_    0.478625 0.461380 0.297346 0.253167
C95   C     C_3   0.320678 0.464423 0.290325 -0.337120
H29   H     H_    0.273096 0.398242 0.315997 0.135079
H30   H     H_    0.298651 0.420992 0.253048 0.129830
H31   H     H_    0.289615 0.529076 0.293954 0.150301
H32   H     H_    0.746034 0.533772 0.229280 0.123881
N6    N     N_2   0.500844 0.659902 0.385195 -0.483350
H33   H     H_    0.414570 0.613985 0.371943 0.271277
C96   C     C_3   0.545924 0.596440 0.410027 -0.279502
H34   H     H_    0.475955 0.534363 0.432158 0.130785
H35   H     H_    0.622996 0.656670 0.434498 0.140381
H36   H     H_    0.573418 0.547915 0.383637 0.154057
N7    N     N_2   0.833704 0.320585 0.882075 -0.526902
H37   H     H_    0.798961 0.286720 0.914131 0.253720
C97   C     C_3   0.960662 0.397479 0.884805 -0.283622
H38   H     H_    0.989935 0.441214 0.921855 0.171845
H39   H     H_    0.988022 0.464585 0.858715 0.146645
H40   H     H_    0.006192 0.346249 0.876584 0.128235
H41   H     H_    0.776464 0.238289 0.633053 0.175611
H42   H     H_    0.877607 0.264880 0.798644 0.147823
N8    N     N_2   0.888216 0.231571 0.705165 -0.551996
H43   H     H_    0.970997 0.263274 0.721723 0.242556
C98   C     C_3   0.828130 0.107523 0.696524 -0.290134
H44   H     H_    0.813467 0.068592 0.731557 0.161317
H45   H     H_    0.883223 0.081343 0.674055 0.177528
H46   H     H_    0.741482 0.075471 0.676855 0.164739
H47   H     H_    0.582873 0.473709 0.865374 0.145464
H48   H     H_    0.504464 0.470752 0.702472 0.109939
N9    N     N_2   0.519201 0.380864 0.618673 -0.493692
H49   H     H_    0.439127 0.361737 0.633158 0.242500
C99   C     C_3   0.578080 0.492118 0.599196 -0.308735
H50   H     H_    0.610035 0.562654 0.628879 0.131819
H51   H     H_    0.515015 0.500604 0.574861 0.140160
H52   H     H_    0.654041 0.500443 0.577935 0.153755
N10   N     N_2   0.086799 0.638959 0.691605 -0.523830
H53   H     H_    0.125819 0.644079 0.658919 0.257767
C100  C     C_3   0.038823 0.526775 0.709870 -0.315992
H54   H     H_    0.004868 0.459063 0.679055 0.165353
H55   H     H_    0.963846 0.512011 0.732967 0.164855
H56   H     H_    0.108412 0.519951 0.730591 0.138648
N11   N     N_2   0.302769 0.049017 0.820205 -0.521411
H57   H     H_    0.269901 0.043304 0.854246 0.255962
C101  C     C_3   0.430790 0.111309 0.821174 -0.294057
H58   H     H_    0.464046 0.190447 0.846427 0.151812
H59   H     H_    0.462958 0.137788 0.784771 0.160580
H60   H     H_    0.466916 0.056805 0.833882 0.151109
H61   H     H_    0.305900 0.034188 0.724283 0.126947
N12   N     N_2   0.863291 0.882847 0.698526 -0.529991
H62   H     H_    0.940113 0.942646 0.717490 0.277537
C102  C     C_3   0.876521 0.792634 0.671507 -0.297045
H63   H     H_    0.880063 0.732440 0.696275 0.158081
H64   H     H_    0.959932 0.831802 0.651904 0.151029
H65   H     H_    0.802009 0.743439 0.644434 0.150716
N13   N     N_2   0.874365 0.913437 0.801506 -0.534742
H66   H     H_    0.874808 0.966179 0.830833 0.258152
C103  C     C_3   0.929541 0.846230 0.813005 -0.290876
H67   H     H_    0.015956 0.905341 0.831929 0.160973
H68   H     H_    0.944461 0.804896 0.779544 0.165779
H69   H     H_    0.874239 0.778887 0.837145 0.152780
H70   H     H_    0.467407 0.716755 0.795381 0.133844
N14   N     N_2   0.430057 0.719985 0.702042 -0.506935
H71   H     H_    0.430379 0.767454 0.674294 0.262498
C104  C     C_3   0.365433 0.596971 0.688760 -0.311747
H72   H     H_    0.277436 0.573148 0.672275 0.149398
H73   H     H_    0.351938 0.548663 0.721221 0.143239
H74   H     H_    0.414212 0.572098 0.661847 0.134492
H75   H     H_    0.602706 0.139553 0.280372 0.116664
N15   N     N_2   0.096045 0.651245 0.384539 -0.506122
H76   H     H_    0.005529 0.599717 0.385206 0.239895
C105  C     C_3   0.160172 0.587317 0.378199 -0.270665
H77   H     H_    0.105316 0.503595 0.356544 0.095449
H78   H     H_    0.181367 0.568947 0.414143 0.165191
H79   H     H_    0.244315 0.637198 0.359934 0.157530
H80   H     H_    0.999010 0.546356 0.302099 0.124457
H81   H     H_    0.180363 0.975683 0.132666 0.107401

loop_
_geom_bond_atom_site_label_1
_geom_bond_atom_site_label_2
_ccdc_geom_bond_type
C66   C68   A    
N7    H37   S    
C60   H47   S    
Cr1   O25   S    
C17   N1    S    
C11   C13   A    
C101  H58   S    
Cr6   O18   S    
C86   O6    A    
Cr3   O23   S    
C15   H4    S    
C78   H6    S    
C105  H78   S    
N3    H19   S    
Cr4   O13   S    
C96   H35   S    
C97   H38   S    
Cr5   O16   S    
C90   O13   A    
Cr6   O11   S    
C46   C49   A    
Cr4   O7    S    
N6    H33   S    
C33   C42   A    
Cr6   O17   S    
C36   C37   A    
C93   H21   S    
C8    C85   S    
C29   C32   A    
C2    C3    A    
C52   C61   A    
C92   H17   S    
C5    C6    S    
C103  H68   S    
C55   H48   S    
C23   O1    A    
C58   C60   A    
C15   C16   A    
C11   C24   A    
C16   C84   S    
C18   C20   A    
C18   C19   A    
C23   C26   S    
C99   H51   S    
C45   O2    A    
Cr2   O2    S    
Cr3   O4    S    
C65   N11   S    
Cr4   O19   S    
C1    C43   S    
C64   H3    S    
C93   H20   S    
C76   H70   S    
C102  H63   S    
N10   C100  S    
C22   C25   A    
C91   H12   S    
N4    H23   S    
C63   N10   S    
C9    N15   S    
C52   N9    S    
C13   C14   A    
C94   H25   S    
C29   C30   A    
C35   C43   A    
C75   C80   A    
C3    H75   S    
C89   H32   S    
C14   H80   S    
C100  H56   S    
C40   C42   A    
N8    C98   S    
C25   H81   S    
N11   H57   S    
N6    C96   S    
C21   C22   A    
C39   H27   S    
N5    C95   S    
C101  H59   S    
Cr1   O5    S    
C98   H46   S    
C1    O12   A    
C4    C7    S    
Cr3   O3    S    
C48   H42   S    
C105  H77   S    
N3    C93   S    
C44   C46   A    
C9    C26   A    
C50   C51   A    
C47   C50   A    
C1    O20   A    
C54   C59   A    
C53   C55   A    
C78   C89   A    
Cr4   O6    S    
Cr6   O10   S    
C75   N13   S    
C27   H14   S    
C74   C75   A    
Cr5   O15   S    
C39   C40   A    
C95   H31   S    
C76   C80   A    
C93   H22   S    
C76   C77   A    
C38   N5    S    
C85   O9    A    
Cr5   O8    S    
C92   H18   S    
N14   H71   S    
C66   H61   S    
C103  H67   S    
C34   O26   A    
C100  H54   S    
C6    C8    T    
C12   C67   S    
C85   O10   A    
C58   C59   A    
C98   H44   S    
C7    C67   T    
Cr5   O9    S    
Cr1   O12   S    
C35   C36   A    
C95   H30   S    
C44   H41   S    
C99   H52   S    
C86   O11   A    
C33   C86   S    
C4    C78   A    
C104  H72   S    
C45   O3    A    
Cr2   O21   S    
Cr3   O5    S    
N14   C104  S    
C91   H10   S    
N7    C97   S    
N9    H49   S    
C47   C48   A    
C10   C19   A    
C34   O25   A    
C57   H1    S    
C46   C54   A    
C17   C18   A    
C77   C79   A    
C56   O24   A    
C20   C21   A    
C94   H26   S    
C42   N4    S    
C21   H7    S    
C87   O15   A    
C50   N7    S    
C97   H39   S    
C96   H36   S    
Cr2   O5    S    
C48   C49   A    
N13   C103  S    
N10   H53   S    
C11   C15   A    
C74   C79   A    
C55   C57   A    
C10   C14   A    
N5    H28   S    
C44   C61   A    
C101  H60   S    
C22   C24   A    
C2    C5    A    
C65   C66   A    
C17   C26   A    
Cr1   O1    S    
C13   H5    S    
N1    H9    S    
Cr2   O26   S    
C73   C82   T    
C96   H34   S    
C72   C87   S    
C52   C53   A    
N2    H15   S    
C91   H11   S    
C74   N12   S    
C97   H40   S    
C16   C25   A    
C83   C90   S    
C63   C68   A    
C40   C41   A    
C30   N2    S    
Cr1   O24   S    
C29   C41   A    
N12   H62   S    
C87   O14   A    
Cr6   O19   S    
C28   C31   A    
C77   N14   S    
Cr3   O22   S    
C20   H8    S    
C80   C81   S    
N1    C91   S    
C103  H69   S    
C51   C88   S    
C81   C83   T    
C79   C82   S    
Cr4   O14   S    
C53   C54   A    
C23   O23   A    
Cr5   O19   S    
C104  H74   S    
C64   C69   A    
N15   C105  S    
C84   O8    A    
C90   O18   A    
C36   C38   A    
C19   C24   A    
C88   O16   A    
C32   H13   S    
C104  H73   S    
Cr2   O20   S    
C32   C33   A    
N2    C92   S    
C30   C31   A    
C57   C58   A    
C38   C39   A    
C12   O22   A    
C28   C37   A    
C68   C71   S    
C65   C69   A    
C45   C61   S    
C35   N6    S    
C62   C71   T    
C9    C10   A    
C56   C62   S    
N4    C94   S    
C37   C41   A    
C99   H50   S    
C95   H29   S    
C69   C70   S    
C56   O4    A    
N9    C99   S    
C34   C73   S    
C47   C59   A    
C63   C64   A    
C31   N3    S    
C27   C43   A    
C84   O7    A    
C12   O21   A    
N13   H66   S    
C2    H2    S    
C102  H64   S    
N15   H76   S    
C102  H65   S    
C27   C28   A    
N11   C101  S    
N8    H43   S    
C70   C72   T    
C51   C60   A    
C49   N8    S    
C94   H24   S    
C92   H16   S    
N12   C102  S    
C88   O17   A    
C105  H79   S    
C5    C89   A    
C3    C4    A    
C98   H45   S    
C100  H55   S    
