data_mof_unit_63595.cif
_audit_creation_date              2013-03-05T16:00:22-0500
_audit_creation_method            fapswitch 2.2
_symmetry_space_group_name_H-M    P1
_symmetry_Int_Tables_number       1
_space_group_crystal_system       triclinic
_cell_length_a                    42.638513
_cell_length_b                    29.424635
_cell_length_c                    29.419324
_cell_angle_alpha                 90.000015
_cell_angle_beta                  133.850151
_cell_angle_gamma                 90.0002
_cell_volume                      26617.9075445

loop_
_atom_site_label
_atom_site_type_symbol
_atom_site_description
_atom_site_fract_x
_atom_site_fract_y
_atom_site_fract_z
_atom_type_partial_charge
O1    O     O_R   0.500410 0.561970 0.536310 -0.555723
O2    O     O_R   0.500410 0.438030 0.536310 -0.555393
O3    O     O_R   0.000410 0.061970 0.536310 -0.555127
O4    O     O_R   0.000410 0.938030 0.536310 -0.556020
O5    O     O_R   0.499540 0.561910 0.463710 -0.563283
O6    O     O_R   0.499540 0.438090 0.463710 -0.563259
O7    O     O_R   0.999540 0.061910 0.463710 -0.563275
O8    O     O_R   0.999540 0.938090 0.463710 -0.563238
C1    C     C_R   0.499980 0.585484 0.499998 0.823010
C2    C     C_R   0.499980 0.414516 0.499999 0.823508
C3    C     C_R   0.999980 0.085484 0.499999 0.823966
C4    C     C_R   0.999980 0.914516 0.499998 0.822593
O9    O     O_R   0.439190 0.500000 0.475090 -0.549350
O10   O     O_R   0.939190 0.000000 0.475090 -0.549434
O11   O     O_R   0.438320 0.500000 0.402480 -0.589572
O12   O     O_R   0.938320 0.000000 0.402480 -0.589540
C5    C     C_R   0.418348 0.500002 0.418573 0.857748
C6    C     C_R   0.918348 0.999995 0.418573 0.857791
Cu1   Cu    Cu3+1 0.500480 0.500000 0.542990 1.008086
Cu2   Cu    Cu3+1 0.000480 0.000000 0.542990 1.007994
Cu3   Cu    Cu3+1 0.499450 0.500000 0.457010 0.969184
Cu4   Cu    Cu3+1 0.999450 0.000000 0.457010 0.969233
O13   O     O_R   0.561610 0.500000 0.597520 -0.556838
O14   O     O_R   0.061610 0.000000 0.597520 -0.556847
O15   O     O_R   0.560740 0.500000 0.524910 -0.556502
O16   O     O_R   0.060740 0.000000 0.524910 -0.556496
C7    C     C_R   0.584604 0.500000 0.584472 0.806249
C8    C     C_R   0.084604 0.000000 0.584472 0.806250
C9    C     C_3   0.232894 0.536323 0.257055 0.233458
C10   C     C_3   0.232883 0.462510 0.255105 0.233329
C11   C     C_3   0.732873 0.038595 0.253044 0.233239
C12   C     C_3   0.732911 0.964997 0.259034 0.233606
C13   C     C_3   0.261227 0.538231 0.242361 0.044935
C14   C     C_3   0.261215 0.462860 0.240369 0.044817
C15   C     C_3   0.761197 0.035910 0.238378 0.044711
C16   C     C_3   0.761238 0.960758 0.244496 0.045032
C17   C     C_1   0.373534 0.499991 0.374292 -0.152728
C18   C     C_1   0.873534 0.000034 0.374291 -0.152718
C19   C     C_1   0.120237 0.499998 0.120838 -0.118287
C20   C     C_1   0.620237 0.000008 0.120856 -0.118333
C21   C     C_3   0.261310 0.498856 0.305781 0.210246
C22   C     C_3   0.761317 0.003518 0.305675 0.210247
C23   C     C_3   0.289548 0.499974 0.291395 -0.124493
C24   C     C_3   0.789548 0.000090 0.291401 -0.124501
C25   C     C_3   0.204223 0.499982 0.205958 -0.161301
C26   C     C_3   0.704223 0.000059 0.205982 -0.161282
C27   C     C_3   0.232577 0.501123 0.190799 0.115650
C28   C     C_3   0.732571 0.996560 0.190937 0.115602
C29   C     C_1   0.335429 0.499980 0.336803 0.047217
C30   C     C_1   0.835430 0.000071 0.336803 0.047210
C31   C     C_1   0.158348 0.499990 0.159641 0.111244
C32   C     C_1   0.658348 0.000033 0.159666 0.111272
C33   C     C_1   0.499962 0.636533 0.499952 -0.193974
C34   C     C_1   0.499963 0.363467 0.499952 -0.193353
C35   C     C_1   0.999963 0.136533 0.499952 -0.192877
C36   C     C_1   0.999962 0.863467 0.499951 -0.194417
C37   C     C_1   0.499952 0.678855 0.499936 0.013367
C38   C     C_1   0.499952 0.321145 0.499936 0.014000
C39   C     C_1   0.999952 0.178855 0.499936 0.014445
C40   C     C_1   0.999951 0.821145 0.499935 0.012951
C41   C     C_1   0.499946 0.729022 0.499934 0.014858
C42   C     C_1   0.499946 0.270978 0.499934 0.015433
C43   C     C_1   0.999946 0.229022 0.499934 0.015792
C44   C     C_1   0.999945 0.770978 0.499933 0.014520
C45   C     C_1   0.499945 0.771344 0.499941 0.014167
C46   C     C_1   0.499945 0.228656 0.499941 0.014662
C47   C     C_1   0.999945 0.271344 0.499941 0.014933
C48   C     C_1   0.999944 0.728656 0.499940 0.013909
C49   C     C_1   0.499947 0.821511 0.499955 0.012394
C50   C     C_1   0.499947 0.178489 0.499955 0.012799
C51   C     C_1   0.999947 0.321511 0.499955 0.012991
C52   C     C_1   0.999947 0.678489 0.499955 0.012211
C53   C     C_1   0.499951 0.863834 0.499968 -0.189454
C54   C     C_1   0.499951 0.136166 0.499969 -0.189145
C55   C     C_1   0.999951 0.363834 0.499968 -0.189014
C56   C     C_1   0.999951 0.636166 0.499968 -0.189580
C57   C     C_1   0.635096 0.500000 0.634703 -0.195407
C58   C     C_1   0.135096 1.000000 0.634703 -0.195408
C59   C     C_1   0.676569 0.500000 0.676161 0.020648
C60   C     C_1   0.176569 1.000000 0.676161 0.020647
C61   C     C_1   0.726143 0.500000 0.725812 0.009283
C62   C     C_1   0.226143 1.000000 0.725812 0.009282
C63   C     C_1   0.767617 0.500000 0.767378 0.009257
C64   C     C_1   0.267617 1.000000 0.767378 0.009256
C65   C     C_1   0.817191 0.500000 0.817072 0.020513
C66   C     C_1   0.317191 1.000000 0.817072 0.020512
C67   C     C_1   0.858664 0.500000 0.858644 -0.195130
C68   C     C_1   0.358664 1.000000 0.858644 -0.195131
O17   O     O_R   0.994560 0.535840 0.056620 -0.556384
O18   O     O_R   0.994560 0.464160 0.056620 -0.556231
O19   O     O_R   0.494560 0.035840 0.056620 -0.556195
O20   O     O_R   0.494560 0.964160 0.056620 -0.556469
C69   C     C_R   0.994848 0.500000 0.080454 0.833989
C70   C     C_R   0.494848 1.000000 0.080454 0.833975
O21   O     O_R   0.055010 0.535850 0.055100 -0.567180
O22   O     O_R   0.055010 0.464150 0.055100 -0.565881
O23   O     O_R   0.555010 0.035850 0.055100 -0.564617
O24   O     O_R   0.555010 0.964150 0.055100 -0.568492
C71   C     C_R   0.075422 0.500000 0.075286 0.854815
C72   C     C_R   0.575422 0.000001 0.075292 0.854841
Cu5   Cu    Cu3+1 0.993800 0.542460 0.993900 0.995533
Cu6   Cu    Cu3+1 0.993800 0.457540 0.993900 0.997076
Cu7   Cu    Cu3+1 0.493800 0.042460 0.993900 0.998255
Cu8   Cu    Cu3+1 0.493800 0.957540 0.993900 0.994307
O25   O     O_R   0.993040 0.535870 0.931160 -0.562033
O26   O     O_R   0.993040 0.464130 0.931160 -0.561630
O27   O     O_R   0.493040 0.035870 0.931160 -0.561345
O28   O     O_R   0.493040 0.964130 0.931160 -0.562279
O29   O     O_R   0.932590 0.535860 0.932690 -0.557437
O30   O     O_R   0.932590 0.464140 0.932690 -0.557273
O31   O     O_R   0.432590 0.035860 0.932690 -0.557257
O32   O     O_R   0.432590 0.964140 0.932690 -0.557452
C73   C     C_R   0.993234 0.500000 0.907800 0.815283
C74   C     C_R   0.493234 1.000000 0.907800 0.815332
C75   C     C_R   0.909158 0.500000 0.909242 0.804597
C76   C     C_R   0.409158 1.000000 0.909242 0.804598
O33   O     O_R   0.463790 0.000000 0.401850 -0.558263
O34   O     O_R   0.963790 0.500000 0.401850 -0.558256
O35   O     O_R   0.534640 0.000000 0.472710 -0.553960
O36   O     O_R   0.034640 0.500000 0.472710 -0.553958
C77   C     C_R   0.499101 1.000000 0.414057 0.814197
C78   C     C_R   0.999101 0.500000 0.414057 0.814202
O37   O     O_R   0.464530 0.938000 0.464560 -0.556736
O38   O     O_R   0.464530 0.062000 0.464560 -0.556592
O39   O     O_R   0.964530 0.438000 0.464560 -0.556449
O40   O     O_R   0.964530 0.562000 0.464560 -0.556873
O41   O     O_R   0.535390 0.937990 0.535420 -0.556658
O42   O     O_R   0.535390 0.062010 0.535420 -0.556621
O43   O     O_R   0.035390 0.437990 0.535420 -0.556680
O44   O     O_R   0.035390 0.562010 0.535420 -0.556602
C79   C     C_R   0.499957 0.914883 0.499984 0.813654
C80   C     C_R   0.499957 0.085117 0.499984 0.813778
C81   C     C_R   0.999957 0.414883 0.499984 0.813808
C82   C     C_R   0.999957 0.585117 0.499984 0.813623
Cu9   Cu    Cu3+1 0.458020 0.000000 0.458050 0.979609
Cu10  Cu    Cu3+1 0.958020 0.500000 0.458050 0.979620
Cu11  Cu    Cu3+1 0.541920 0.000000 0.541950 0.981257
Cu12  Cu    Cu3+1 0.041920 0.500000 0.541950 0.981256
O45   O     O_R   0.465290 0.000000 0.527290 -0.555953
O46   O     O_R   0.965290 0.500000 0.527290 -0.555956
O47   O     O_R   0.536150 0.000000 0.598150 -0.557980
O48   O     O_R   0.036150 0.500000 0.598150 -0.557985
C83   C     C_R   0.500745 1.000000 0.585871 0.813252
C84   C     C_R   0.000745 0.500000 0.585871 0.813245
C85   C     C_1   0.995608 0.500000 0.132252 -0.179931
C86   C     C_1   0.495608 1.000000 0.132252 -0.179931
C87   C     C_1   0.996250 0.500000 0.175212 0.024317
C88   C     C_1   0.496251 1.000000 0.175212 0.024313
C89   C     C_1   0.997005 0.500000 0.226124 0.022863
C90   C     C_1   0.497006 1.000000 0.226124 0.022853
C91   C     C_1   0.497621 1.000000 0.269057 0.019668
C92   C     C_1   0.997621 0.500000 0.269057 0.019682
C93   C     C_1   0.498297 1.000000 0.319892 0.015735
C94   C     C_1   0.998297 0.500000 0.319892 0.015750
C95   C     C_1   0.498770 1.000000 0.362684 -0.187526
C96   C     C_1   0.998770 0.500000 0.362684 -0.187512
C97   C     C_1   0.994240 0.500000 0.857742 -0.197858
C98   C     C_1   0.494240 1.000000 0.857742 -0.197828
C99   C     C_1   0.995396 0.500000 0.816578 0.008993
C100  C     C_1   0.495396 1.000000 0.816578 0.009023
C101  C     C_1   0.996921 0.500000 0.767938 0.011259
C102  C     C_1   0.496920 1.000000 0.767938 0.011283
C103  C     C_1   0.498205 1.000000 0.726906 0.011535
C104  C     C_1   0.998205 0.500000 0.726907 0.011514
C105  C     C_1   0.499598 1.000000 0.678130 0.010713
C106  C     C_1   0.999598 0.500000 0.678130 0.010697
C107  C     C_1   0.500468 1.000000 0.636671 -0.190932
C108  C     C_1   0.000468 0.500000 0.636671 -0.190945
C109  C     C_3   0.281089 0.581540 0.242131 -0.349421
C110  C     C_3   0.246668 0.614543 0.190102 -0.765837
H1    H     H_    0.229533 0.600206 0.143054 0.240875
H2    H     H_    0.222650 0.622575 0.192952 0.285562
H3    H     H_    0.262634 0.646644 0.195420 0.239755
H4    H     H_    0.300508 0.598718 0.288434 0.231824
H5    H     H_    0.303564 0.572395 0.236643 0.193434
C111  C     C_3   0.281063 0.420663 0.237877 -0.349223
C112  C     C_3   0.246631 0.388632 0.184133 -0.765847
H6    H     H_    0.222617 0.379198 0.186534 0.285548
H7    H     H_    0.229492 0.404522 0.137882 0.240864
H8    H     H_    0.262588 0.357135 0.187765 0.239840
H9    H     H_    0.303537 0.431262 0.232904 0.193611
H10   H     H_    0.300480 0.402097 0.283237 0.231812
C113  C     C_3   0.781026 0.076831 0.233598 -0.348961
C114  C     C_3   0.746579 0.107766 0.178143 -0.766057
H11   H     H_    0.729413 0.090310 0.132796 0.240854
H12   H     H_    0.722591 0.118642 0.180036 0.285540
H13   H     H_    0.762526 0.138534 0.180040 0.239876
H14   H     H_    0.800451 0.096779 0.277908 0.231786
H15   H     H_    0.803490 0.064757 0.229219 0.193761
C115  C     C_3   0.781116 0.916426 0.246662 -0.349661
C116  C     C_3   0.746708 0.882501 0.196482 -0.765627
H16   H     H_    0.722718 0.875917 0.199776 0.285595
H17   H     H_    0.729539 0.895192 0.148684 0.240905
H18   H     H_    0.762690 0.849882 0.203552 0.239698
H19   H     H_    0.803576 0.924045 0.240691 0.193276
H20   H     H_    0.800555 0.900744 0.293871 0.231854
N1    N     N_R   0.217904 0.575777 0.267583 0.156782
O49   O     O_R   0.246086 0.603198 0.314143 -0.311419
O50   O     O_R   0.176583 0.583677 0.231127 -0.334054
N2    N     N_R   0.217884 0.421773 0.263517 0.156785
O51   O     O_R   0.246058 0.393425 0.308607 -0.311401
O52   O     O_R   0.176560 0.413628 0.226635 -0.333631
N3    N     N_R   0.717864 0.080543 0.259201 0.156773
O53   O     O_R   0.746033 0.109773 0.302709 -0.311497
O54   O     O_R   0.676539 0.088909 0.221880 -0.333286
N4    N     N_R   0.717938 0.926987 0.271689 0.156790
O55   O     O_R   0.746130 0.900608 0.319717 -0.311350
O56   O     O_R   0.676619 0.919363 0.235671 -0.334426
C117  C     C_3   0.211617 0.502369 0.122461 -0.355239
C118  C     C_3   0.245038 0.503367 0.117721 -0.818557
H21   H     H_    0.265838 0.533995 0.141035 0.253535
H22   H     H_    0.265819 0.472641 0.139398 0.253564
H23   H     H_    0.227874 0.504248 0.067301 0.241498
H24   H     H_    0.190396 0.472157 0.097013 0.198316
H25   H     H_    0.190408 0.532765 0.098616 0.198448
C119  C     C_3   0.711600 0.992734 0.122731 -0.355213
C120  C     C_3   0.745012 0.989671 0.118083 -0.818573
H26   H     H_    0.765775 0.020409 0.138061 0.253570
H27   H     H_    0.765829 0.959234 0.143073 0.253528
H28   H     H_    0.727839 0.986974 0.067757 0.241505
H29   H     H_    0.690404 0.962234 0.100564 0.198608
H30   H     H_    0.690364 0.022665 0.095636 0.198153
N5    N     N_R   0.276292 0.497620 0.367810 0.183522
O57   O     O_R   0.248100 0.496760 0.372432 -0.262648
O58   O     O_R   0.317618 0.497368 0.418650 -0.314276
N6    N     N_R   0.776307 0.007314 0.367572 0.183522
O59   O     O_R   0.748120 0.009950 0.372110 -0.262626
O60   O     O_R   0.817634 0.008091 0.418378 -0.314322

loop_
_geom_bond_atom_site_label_1
_geom_bond_atom_site_label_2
_geom_bond_distance
_ccdc_geom_bond_type
C38   C42   1.476137 S    
C10   N2    1.458229 S    
N3    O53   1.300228 A    
C53   C79   1.502101 S    
C70   C86   1.501600 S    
Cu5   Cu6   2.498743 S    
C11   C22   1.527023 S    
C54   C80   1.502101 S    
C109  C110  1.525574 S    
O10   C6    1.227611 A    
C10   C25   1.533458 S    
C19   C31   1.171979 T    
N5    O57   1.300205 A    
O32   C76   1.277701 A    
C52   C56   1.245333 T    
C13   C109  1.532704 S    
C101  C104  1.245688 T    
C28   C119  1.533805 S    
C3    C35   1.502087 S    
C120  H28   1.110131 S    
O7    C3    1.262333 A    
N3    O54   1.300147 A    
O12   Cu4   1.890449 S    
C117  H25   1.109450 S    
Cu3   O15   1.893873 S    
C84   C108  1.502687 S    
C16   C115  1.532702 S    
C12   C16   1.540468 S    
O25   C73   1.262628 A    
C103  C105  1.476729 S    
C64   C66   1.524337 S    
O29   C75   1.277702 A    
O22   Cu6   1.892180 S    
O47   C83   1.286038 A    
O19   C70   1.261748 A    
C118  H23   1.110133 S    
C58   C60   1.275256 T    
C110  H1    1.107413 S    
C25   C31   1.410618 S    
O21   C71   1.227516 A    
Cu5   O29   1.892145 S    
C14   C111  1.532705 S    
O22   C71   1.227501 A    
C9    C13   1.540454 S    
C114  H11   1.107412 S    
O38   C80   1.284277 A    
Cu7   O31   1.892145 S    
O34   C78   1.283243 A    
O28   C74   1.262629 A    
N1    O50   1.300150 A    
O33   C77   1.283243 A    
C119  H29   1.109447 S    
C74   C98   1.502695 S    
C24   C30   1.410937 S    
C61   C63   1.275287 T    
O45   C83   1.282836 A    
C98   C100  1.245690 T    
O18   Cu6   1.833259 S    
O43   Cu12  1.835638 S    
Cu2   O14   1.890450 S    
N2    O51   1.300227 A    
C112  H7    1.107411 S    
C11   C26   1.533468 S    
C50   C54   1.245333 T    
O8    Cu4   1.832033 S    
C109  H4    1.110802 S    
C99   C101  1.476723 S    
C10   C21   1.527027 S    
C69   C85   1.501598 S    
O31   C76   1.277702 A    
O13   C7    1.276750 A    
O8    C4    1.262331 A    
O4    C4    1.262187 A    
C8    C58   1.552645 S    
C120  H27   1.107378 S    
C11   N3    1.458231 S    
Cu10  O46   1.835907 S    
C9    C21   1.527036 S    
C22   N6    1.457508 S    
O40   Cu10  1.835276 S    
C94   C96   1.245048 T    
C97   C99   1.245693 T    
O48   C84   1.286038 A    
C106  C108  1.245694 T    
C21   C23   1.528359 S    
C105  C107  1.245697 T    
O44   C82   1.284276 A    
C22   C24   1.528357 S    
C15   C28   1.554996 S    
O42   C80   1.284276 A    
O16   C8    1.278823 A    
C85   C87   1.245038 T    
O36   C78   1.284836 A    
C86   C88   1.245035 T    
C25   C27   1.551989 S    
Cu5   O25   1.833750 S    
C111  H9    1.109620 S    
C43   C47   1.245321 T    
O1    Cu1   1.833782 S    
C10   C14   1.540438 S    
C66   C68   1.275255 T    
C116  H16   1.109357 S    
C13   C23   1.546870 S    
O10   Cu2   1.893867 S    
C42   C46   1.245318 T    
O1    C1    1.262188 A    
C119  C120  1.525238 S    
C60   C62   1.524340 S    
Cu12  O48   1.832415 S    
C89   C92   1.245028 T    
O19   Cu7   1.833259 S    
Cu8   O32   1.892147 S    
C56   C82   1.502101 S    
N4    O55   1.300227 A    
C23   C29   1.410935 S    
O9    Cu1   1.893867 S    
O26   C73   1.262631 A    
C7    C57   1.552645 S    
C120  H26   1.107380 S    
C20   C32   1.171982 T    
O6    Cu3   1.832033 S    
O37   C79   1.284280 A    
C36   C40   1.245327 T    
O37   Cu9   1.835278 S    
O35   Cu11  1.835651 S    
C68   C76   1.552649 S    
Cu1   O13   1.890450 S    
C113  C114  1.525573 S    
C116  H17   1.107413 S    
O27   C74   1.262631 A    
O5    C1    1.262331 A    
O23   Cu7   1.892182 S    
C17   C29   1.171880 T    
O20   Cu8   1.833259 S    
C19   C71   1.378126 S    
C48   C52   1.476143 S    
C112  H8    1.110179 S    
O20   C70   1.261745 A    
C117  C118  1.525238 S    
C109  H5    1.109622 S    
C57   C59   1.275256 T    
O5    Cu3   1.832030 S    
O3    Cu2   1.833782 S    
C5    C17   1.378162 S    
C49   C53   1.245333 T    
C15   C24   1.546859 S    
C83   C107  1.502684 S    
C93   C95   1.245045 T    
C21   N5    1.457505 S    
O35   C77   1.284836 A    
C115  H19   1.109618 S    
C112  H6    1.109359 S    
O42   Cu11  1.835638 S    
O43   C81   1.284275 A    
C113  H15   1.109617 S    
O39   Cu10  1.835278 S    
N2    O52   1.300150 A    
C111  C112  1.525578 S    
C63   C65   1.524337 S    
C92   C94   1.475677 S    
N6    O59   1.300203 A    
C62   C64   1.275287 T    
C27   C117  1.533794 S    
C13   C27   1.555010 S    
O14   C8    1.276750 A    
C11   C15   1.540427 S    
C39   C43   1.476134 S    
C16   C24   1.546876 S    
C1    C33   1.502090 S    
Cu2   Cu4   2.499246 S    
C12   N4    1.458218 S    
O2    C2    1.262185 A    
C44   C48   1.245321 T    
Cu8   O28   1.833750 S    
O23   C72   1.227497 A    
O34   Cu10  1.832412 S    
C35   C39   1.245327 T    
O18   C69   1.261747 A    
C59   C61   1.524340 S    
C102  C103  1.245688 T    
C34   C38   1.245327 T    
O39   C81   1.284280 A    
Cu9   Cu11  2.579856 S    
Cu11  O47   1.832415 S    
C12   C26   1.533439 S    
C77   C95   1.501607 S    
O38   Cu9   1.835276 S    
O17   Cu5   1.833259 S    
O2    Cu1   1.833785 S    
C67   C75   1.552649 S    
C14   C23   1.546870 S    
O46   C84   1.282836 A    
C88   C90   1.475672 S    
C78   C96   1.501607 S    
C33   C37   1.245324 T    
C20   C72   1.378130 S    
C55   C81   1.502101 S    
N5    O58   1.300149 A    
O33   Cu9   1.832412 S    
C37   C41   1.476137 S    
C18   C30   1.171878 T    
C115  H20   1.110802 S    
O15   C7    1.278823 A    
O7    Cu4   1.832030 S    
C87   C89   1.475674 S    
Cu9   O45   1.835907 S    
N6    O60   1.300148 A    
C117  H24   1.109451 S    
C114  H13   1.110177 S    
O9    C5    1.227608 A    
C40   C44   1.476134 S    
C118  H22   1.107378 S    
C104  C106  1.476732 S    
C6    C18   1.378162 S    
C116  H18   1.110178 S    
C113  H14   1.110803 S    
C26   C32   1.410628 S    
C51   C55   1.245333 T    
C46   C50   1.476143 S    
C110  H2    1.109359 S    
Cu6   O30   1.892147 S    
C45   C49   1.476143 S    
C4    C36   1.502087 S    
C114  H12   1.109358 S    
C16   C28   1.555014 S    
C47   C51   1.476143 S    
C91   C93   1.475677 S    
O17   C69   1.261745 A    
N1    O49   1.300229 A    
C2    C34   1.502087 S    
O24   C72   1.227521 A    
O41   C79   1.284275 A    
C115  C116  1.525568 S    
C119  H30   1.109452 S    
O3    C3    1.262185 A    
O6    C2    1.262334 A    
C111  H10   1.110801 S    
O4    Cu2   1.833785 S    
C26   C28   1.551998 S    
C41   C45   1.245318 T    
C65   C67   1.275255 T    
O11   Cu3   1.890449 S    
C9    N1    1.458226 S    
O36   Cu12  1.835651 S    
O40   C82   1.284277 A    
O12   C6    1.227972 A    
C118  H21   1.107383 S    
Cu4   O16   1.893873 S    
Cu6   O26   1.833750 S    
Cu10  Cu12  2.579856 S    
Cu7   Cu8   2.498743 S    
C12   C22   1.527046 S    
C90   C91   1.245034 T    
Cu7   O27   1.833750 S    
C14   C27   1.555006 S    
O41   Cu11  1.835638 S    
C73   C97   1.502695 S    
O11   C5    1.227974 A    
N4    O56   1.300150 A    
C15   C113  1.532700 S    
O30   C75   1.277701 A    
O24   Cu8   1.892180 S    
C9    C25   1.533448 S    
O21   Cu5   1.892182 S    
C100  C102  1.476729 S    
Cu1   Cu3   2.499246 S    
C110  H3    1.110179 S    
O44   Cu12  1.835638 S    
