data_mof_unit_31070.cif
_audit_creation_date              2012-10-26T19:21:54-0400
_audit_creation_method            fapswitch 2.2
_symmetry_space_group_name_H-M    P1
_symmetry_Int_Tables_number       1
_space_group_crystal_system       triclinic
_cell_length_a                    23.529167
_cell_length_b                    11.058786
_cell_length_c                    9.868327
_cell_angle_alpha                 111.775458
_cell_angle_beta                  98.642436
_cell_angle_gamma                 90.845331
_cell_volume                      2350.51792711

loop_
_atom_site_label
_atom_site_type_symbol
_atom_type_description
_atom_site_fract_x
_atom_site_fract_y
_atom_site_fract_z
_atom_type_partial_charge
C1    C     C_R   0.495739 0.253723 0.439761 0.545993
C2    C     C_R   0.712104 0.575335 0.619417 0.255628
C3    C     C_R   0.245124 0.462135 0.607223 0.328695
C4    C     C_R   0.771269 0.563861 0.615492 0.328199
C5    C     C_R   0.208676 0.485275 0.493885 0.196524
C6    C     C_R   0.789715 0.486744 0.483033 0.193387
C7    C     C_2   0.493454 0.113141 0.404222 0.237725
C8    C     C_2   0.505940 0.886962 0.596406 0.227503
C9    C     C_2   0.504419 0.069848 0.514905 -0.125395
C10   C     C_2   0.503824 0.930860 0.486396 -0.122694
C11   C     C_2   0.502834 0.514230 0.082338 0.119597
C12   C     C_R   0.504106 0.746263 0.560346 0.540112
C13   C     C_2   0.499118 0.481934 0.916727 0.131629
C14   C     C_R   0.390993 0.497767 0.500160 0.544572
C15   C     C_R   0.608996 0.500855 0.499260 0.563676
C16   C     C_R   0.880549 0.596376 0.490895 0.452642
C17   C     C_R   0.116606 0.369421 0.464904 0.450992
C18   C     C_R   0.876458 0.370912 0.457051 0.388768
C19   C     C_R   0.121096 0.597439 0.511015 0.387726
C20   C     C_R   0.936035 0.368274 0.457469 -0.018499
C21   C     C_R   0.061343 0.598931 0.506270 -0.013387
C22   C     C_R   0.968546 0.483910 0.479421 -0.089608
C23   C     C_R   0.232181 0.511628 0.384779 -0.125234
C24   C     C_R   0.028836 0.483035 0.483196 -0.089787
C25   C     C_R   0.940830 0.600200 0.497275 0.035497
C26   C     C_R   0.056521 0.366447 0.463492 0.032404
C27   C     C_R   0.963653 0.253074 0.438705 -0.103657
C28   C     C_R   0.033760 0.714079 0.524908 -0.099157
C29   C     C_R   0.023405 0.251394 0.443792 0.261149
C30   C     C_R   0.974255 0.716511 0.523033 0.266742
C31   C     C_3   0.598363 0.705764 0.946498 0.013684
C32   C     C_3   0.396441 0.307893 0.062312 -0.031744
C33   C     C_3   0.055555 0.113966 0.556024 -0.066868
C34   C     C_R   0.749075 0.414817 0.358429 -0.122065
C35   C     C_3   0.957041 0.911033 0.692106 -0.083719
C36   C     C_3   0.345333 0.292766 0.655086 -0.096362
C37   C     C_3   0.693555 0.785791 0.734200 -0.099312
C38   C     C_3   0.222207 0.550550 0.836861 -0.102657
C39   C     C_3   0.823623 0.561591 0.826329 -0.091173
C40   C     C_3   0.459843 0.983021 0.791690 -0.092346
C41   C     C_3   0.424273 0.999116 0.208950 -0.116078
C42   C     C_R   0.291469 0.516065 0.388141 -0.222918
C43   C     C_R   0.690379 0.419705 0.364938 -0.206400
C44   C     C_R   0.328408 0.492062 0.499486 -0.039057
C45   C     C_R   0.671295 0.498639 0.495382 -0.029675
C46   C     C_R   0.304812 0.459787 0.606446 0.255546
Cu1   Cu    Cu3+1 0.509980 0.521810 0.644910 1.007753
Cu2   Cu    Cu3+1 0.490020 0.478190 0.355090 0.969531
H1    H     H_    0.939081 0.163144 0.420346 0.185398
H2    H     H_    0.529166 0.600576 0.159359 0.136721
H3    H     H_    0.598039 0.735382 0.851161 0.197589
H4    H     H_    0.625909 0.622905 0.937452 0.142318
H5    H     H_    0.617933 0.790048 0.047140 0.119655
H6    H     H_    0.371830 0.395836 0.076247 0.135314
H7    H     H_    0.396925 0.277877 0.157522 0.158144
H8    H     H_    0.373250 0.226557 0.963776 0.075717
H9    H     H_    0.013173 0.097262 0.585645 0.111092
H10   H     H_    0.081742 0.196681 0.648181 0.134526
H11   H     H_    0.079074 0.025039 0.541455 0.165167
H12   H     H_    0.058229 0.803570 0.541534 0.159861
H13   H     H_    0.003463 0.941334 0.737909 0.085516
H14   H     H_    0.938298 0.860722 0.756157 0.156655
H15   H     H_    0.934320 0.001016 0.706272 0.154682
H16   H     H_    0.375559 0.267920 0.736653 0.133160
H17   H     H_    0.363781 0.261380 0.550852 0.088220
H18   H     H_    0.303209 0.237147 0.636614 0.155894
H19   H     H_    0.683080 0.857938 0.838527 0.135942
H20   H     H_    0.659527 0.784560 0.642088 0.111238
H21   H     H_    0.736202 0.820134 0.720124 0.177059
H22   H     H_    0.266867 0.595097 0.887039 0.139315
H23   H     H_    0.204298 0.529690 0.297555 0.150218
H24   H     H_    0.195198 0.621633 0.806949 0.134085
H25   H     H_    0.203393 0.528024 0.922142 0.136095
H26   H     H_    0.842700 0.469549 0.765422 0.128319
H27   H     H_    0.784512 0.539616 0.866668 0.145146
H28   H     H_    0.855897 0.619117 0.924750 0.153222
H29   H     H_    0.442093 0.887619 0.787419 0.136574
H30   H     H_    0.428349 0.023098 0.726310 0.086879
H31   H     H_    0.466001 0.051881 0.908824 0.197651
H32   H     H_    0.401450 0.088902 0.220750 0.093539
H33   H     H_    0.405650 0.945352 0.269572 0.105899
H34   H     H_    0.763065 0.355104 0.256295 0.155953
H35   H     H_    0.416644 0.935217 0.089780 0.149442
H36   H     H_    0.308470 0.539049 0.303689 0.141333
H37   H     H_    0.659792 0.361345 0.267778 0.160721
H38   H     H_    0.499817 0.862611 0.372328 0.167467
H39   H     H_    0.512675 0.138389 0.629287 0.165941
H40   H     H_    0.474959 0.392639 0.839439 0.143389
N1    N     N_R   0.850160 0.483990 0.474903 -0.390658
N2    N     N_R   0.147397 0.483961 0.490256 -0.389658
N3    N     N_2   0.475010 0.445410 0.137370 -0.063542
N4    N     N_2   0.524990 0.554590 0.862630 -0.079241
O1    O     O_R   0.505330 0.332340 0.577400 -0.561807
O2    O     O_2   0.144210 0.259088 0.439880 -0.422698
O3    O     O_2   0.845125 0.261892 0.441316 -0.501059
O4    O     O_2   0.152883 0.708886 0.537356 -0.516502
O5    O     O_3   0.541863 0.676789 0.960665 -0.506489
O6    O     O_3   0.452744 0.326807 0.038763 -0.515723
O7    O     O_3   0.048545 0.134886 0.422132 -0.511653
O8    O     O_3   0.948951 0.832164 0.539911 -0.519486
O9    O     O_3   0.339776 0.428575 0.712653 -0.546936
O10   O     O_3   0.694736 0.662081 0.745076 -0.581112
O11   O     O_3   0.222032 0.433492 0.713559 -0.535004
O12   O     O_R   0.494670 0.667660 0.422600 -0.554591
O13   O     O_3   0.811218 0.636328 0.738340 -0.537043
O14   O     O_3   0.513597 0.972688 0.743074 -0.563526
O15   O     O_3   0.484189 0.027728 0.257395 -0.546184
O16   O     O_R   0.488470 0.295500 0.332650 -0.450106
O17   O     O_R   0.511530 0.704500 0.667350 -0.462130
O18   O     O_R   0.426310 0.518390 0.622390 -0.453170
O19   O     O_R   0.573690 0.481610 0.377610 -0.510537
O20   O     O_R   0.409450 0.481550 0.377650 -0.539144
O21   O     O_R   0.590550 0.518450 0.622350 -0.478652
O22   O     O_2   0.852181 0.703615 0.500408 -0.422294

loop_
_geom_bond_atom_site_label_1
_geom_bond_atom_site_label_2
_ccdc_geom_bond_type
C38   H22   S    
C33   H10   S    
C37   H21   S    
C27   C29   A    
Cu1   N4    S    
C31   H4    S    
C41   H32   S    
C14   O20   A    
C23   C42   A    
C17   C26   A    
C22   C24   A    
C14   C44   S    
C19   C21   A    
C24   C26   A    
C12   O12   A    
C37   O10   S    
C36   H18   S    
C2    O10   S    
C41   H35   S    
C37   H20   S    
C30   O8    S    
C25   C30   A    
Cu1   O21   S    
C39   H26   S    
Cu2   N3    S    
C15   O21   A    
C39   H27   S    
C9    C10   S    
C32   H7    S    
C5    N2    S    
C16   N1    A    
C33   H11   S    
C7    O15   S    
C18   O3    S    
C42   C44   A    
C32   H6    S    
C12   O17   A    
C44   C46   A    
N4    O5    S    
C17   N2    A    
C7    C9    D    
C28   H12   S    
C2    C45   A    
C46   O9    S    
C38   H24   S    
C29   O7    S    
C43   H37   S    
C15   O19   A    
C42   H36   S    
C4    C6    A    
C36   H17   S    
Cu1   O17   S    
C22   C25   A    
C6    C34   A    
C8    O14   S    
C36   O9    S    
C33   O7    S    
C2    C4    A    
C38   O11   S    
C23   H23   S    
Cu1   Cu2   S    
C5    C23   A    
C8    C12   S    
C41   H33   S    
Cu1   O1    S    
C40   H31   S    
C35   H13   S    
C39   H28   S    
C31   H5    S    
C43   C45   A    
C1    O1    A    
Cu2   O20   S    
C21   C28   A    
C20   C22   A    
C13   N4    D    
C40   H30   S    
C15   C45   S    
C35   O8    S    
Cu1   O18   S    
C40   O14   S    
C3    O11   S    
C16   C25   A    
C39   O13   S    
C10   H38   S    
C33   H9    S    
C41   O15   S    
C1    C7    S    
C18   N1    A    
C34   C43   A    
C31   H3    S    
C3    C5    A    
C16   O22   S    
C20   C27   A    
C6    N1    S    
C4    O13   S    
C3    C46   A    
C28   C30   A    
C19   N2    A    
C9    H39   S    
C11   C13   S    
Cu2   O16   S    
C14   O18   A    
C37   H19   S    
C13   H40   S    
C32   O6    S    
C35   H14   S    
C18   C20   A    
C31   O5    S    
N3    O6    S    
C1    O16   A    
C11   N3    D    
Cu2   O19   S    
C26   C29   A    
C8    C10   D    
C21   C24   A    
C11   H2    S    
C40   H29   S    
C35   H15   S    
C17   O2    S    
C34   H34   S    
C36   H16   S    
C32   H8    S    
C19   O4    S    
C27   H1    S    
C38   H25   S    
Cu2   O12   S    
