data_mof_unit_8057.cif
_audit_creation_date              2012-12-11T14:01:32-0500
_audit_creation_method            fapswitch 2.2
_symmetry_space_group_name_H-M    P1
_symmetry_Int_Tables_number       1
_space_group_crystal_system       triclinic
_cell_length_a                    19.039698
_cell_length_b                    10.960314
_cell_length_c                    18.751207
_cell_angle_alpha                 90.204503
_cell_angle_beta                  89.912666
_cell_angle_gamma                 89.942652
_cell_volume                      3912.99046107

loop_
_atom_site_label
_atom_site_type_symbol
_atom_type_description
_atom_site_fract_x
_atom_site_fract_y
_atom_site_fract_z
_atom_type_partial_charge
C1    C     C_R   0.272530 0.042187 0.853647 0.556257
C2    C     C_R   0.727441 0.041868 0.146308 0.558864
C3    C     C_R   0.772530 0.542187 0.853647 0.556257
C4    C     C_R   0.227441 0.541868 0.146308 0.558864
C5    C     C_R   0.484555 0.053047 0.073257 -0.079082
C6    C     C_R   0.512986 0.055206 0.927545 -0.077528
C7    C     C_R   0.984555 0.553047 0.073256 -0.079082
C8    C     C_R   0.012986 0.555206 0.927545 -0.077529
C9    C     C_R   0.989290 0.663652 0.037076 -0.122264
C10   C     C_R   0.005500 0.664799 0.964771 -0.121172
C11   C     C_R   0.489291 0.163652 0.037076 -0.122264
C12   C     C_R   0.505501 0.164799 0.964771 -0.121172
C13   C     C_2   0.247917 0.578140 0.919713 -0.114862
C14   C     C_2   0.752115 0.577894 0.080076 -0.110292
C15   C     C_2   0.747918 0.078140 0.919713 -0.114862
C16   C     C_2   0.252115 0.077895 0.080076 -0.110292
C17   C     C_2   0.249699 0.584518 0.076475 -0.098564
C18   C     C_2   0.750282 0.585208 0.923552 -0.112881
C19   C     C_2   0.749699 0.084519 0.076475 -0.098564
C20   C     C_2   0.250282 0.085209 0.923552 -0.112880
C21   C     C_2   0.292379 0.515371 0.035950 -0.166938
C22   C     C_2   0.707098 0.516729 0.963539 -0.175388
C23   C     C_2   0.792379 0.015371 0.035950 -0.166937
C24   C     C_2   0.207098 0.016729 0.963538 -0.175387
C25   C     C_2   0.301805 0.540190 0.959965 -0.166512
C26   C     C_2   0.698152 0.540484 0.039723 -0.163267
C27   C     C_2   0.801805 0.040191 0.959965 -0.166512
C28   C     C_2   0.198152 0.040484 0.039723 -0.163267
C29   C     C_2   0.485715 0.828793 0.571272 -0.101143
C30   C     C_2   0.487141 0.840214 0.415255 -0.110957
C31   C     C_2   0.985715 0.328793 0.571272 -0.101143
C32   C     C_2   0.987141 0.340214 0.415255 -0.110957
C33   C     C_2   0.466948 0.742555 0.451783 -0.163393
C34   C     C_2   0.452500 0.749935 0.527526 -0.150099
C35   C     C_2   0.966948 0.242555 0.451783 -0.163393
C36   C     C_2   0.952500 0.249936 0.527526 -0.150099
C37   C     C_2   0.246810 0.565843 0.582871 -0.110211
C38   C     C_2   0.753457 0.566017 0.416808 -0.105839
C39   C     C_2   0.746810 0.065843 0.582871 -0.110212
C40   C     C_2   0.253457 0.066017 0.416808 -0.105839
C41   C     C_2   0.237915 0.570416 0.427744 -0.087978
C42   C     C_2   0.762132 0.569219 0.572115 -0.090815
C43   C     C_2   0.737915 0.070416 0.427744 -0.087979
C44   C     C_2   0.262132 0.069219 0.572115 -0.090815
C45   C     C_R   0.472634 0.822129 0.852761 0.552742
C46   C     C_R   0.527842 0.821773 0.146852 0.555410
C47   C     C_R   0.972634 0.322129 0.852761 0.552739
C48   C     C_R   0.027842 0.321773 0.146852 0.555409
C49   C     C_2   0.182488 0.559032 0.471912 -0.148115
C50   C     C_2   0.817672 0.558966 0.527909 -0.148008
C51   C     C_2   0.682488 0.059031 0.471912 -0.148115
C52   C     C_2   0.317672 0.058966 0.527909 -0.148008
C53   C     C_2   0.187137 0.583684 0.547569 -0.165390
C54   C     C_2   0.812996 0.584133 0.452353 -0.163835
C55   C     C_2   0.687137 0.083684 0.547569 -0.165390
C56   C     C_2   0.312996 0.084133 0.452353 -0.163835
C57   C     C_R   0.260733 0.635760 0.851172 0.551361
C58   C     C_R   0.739313 0.635517 0.148834 0.548769
C59   C     C_R   0.760733 0.135760 0.851173 0.551361
C60   C     C_R   0.239313 0.135517 0.148834 0.548769
C61   C     C_R   0.273962 0.042310 0.646298 0.550842
C62   C     C_R   0.726161 0.042939 0.353565 0.552236
C63   C     C_R   0.773962 0.542310 0.646298 0.550843
C64   C     C_R   0.226161 0.542939 0.353565 0.552236
C65   C     C_R   0.467980 0.823165 0.646095 0.544561
C66   C     C_R   0.527524 0.824801 0.350552 0.551800
C67   C     C_R   0.967980 0.323165 0.646095 0.544561
C68   C     C_R   0.027524 0.324801 0.350552 0.551800
C69   C     C_R   0.260106 0.634056 0.647345 0.550889
C70   C     C_R   0.739971 0.634177 0.352559 0.555335
C71   C     C_R   0.760106 0.134056 0.647345 0.550889
C72   C     C_R   0.239970 0.134177 0.352559 0.555335
C73   C     C_R   0.498291 0.828296 0.074153 0.011236
C74   C     C_R   0.504512 0.829772 0.924445 -0.011301
C75   C     C_R   0.998292 0.328296 0.074152 0.011236
C76   C     C_R   0.004513 0.329772 0.924445 -0.011305
C77   C     C_R   0.496071 0.941022 0.037362 -0.011725
C78   C     C_R   0.504358 0.941924 0.962382 -0.010462
C79   C     C_R   0.996072 0.441022 0.037362 -0.011725
C80   C     C_R   0.004358 0.441924 0.962382 -0.010461
C81   C     C_R   0.510807 0.718837 0.962014 0.092798
C82   C     C_R   0.497039 0.717880 0.035227 0.104347
C83   C     C_R   0.010809 0.218838 0.962013 0.092797
C84   C     C_R   0.997041 0.217880 0.035226 0.104350
Cr1   Cr    Cr6+3 0.230530 0.836340 0.748870 1.021071
Cr2   Cr    Cr6+3 0.769470 0.836340 0.251130 1.023339
Cr3   Cr    Cr6+3 0.730530 0.336340 0.748870 1.021071
Cr4   Cr    Cr6+3 0.269470 0.336340 0.251130 1.023339
Cr5   Cr    Cr6+3 0.387420 0.989430 0.750820 1.016623
Cr6   Cr    Cr6+3 0.612580 0.989430 0.249180 1.014987
Cr7   Cr    Cr6+3 0.887420 0.489430 0.750820 1.016623
Cr8   Cr    Cr6+3 0.112580 0.489430 0.249180 1.014987
Cr9   Cr    Cr6+3 0.385640 0.677860 0.749230 1.034976
Cr10  Cr    Cr6+3 0.614360 0.677860 0.250770 1.030062
Cr11  Cr    Cr6+3 0.885640 0.177860 0.749230 1.034976
Cr12  Cr    Cr6+3 0.114360 0.177860 0.250770 1.030061
H1    H     H_    0.130315 0.539042 0.451431 0.150811
H2    H     H_    0.869949 0.539865 0.548359 0.155799
H3    H     H_    0.630315 0.039041 0.451431 0.150811
H4    H     H_    0.369949 0.039866 0.548359 0.155799
H5    H     H_    0.142243 0.627901 0.572546 0.153645
H6    H     H_    0.857744 0.628867 0.427707 0.152478
H7    H     H_    0.642243 0.127901 0.572546 0.153645
H8    H     H_    0.357744 0.128867 0.427707 0.152478
H9    H     H_    0.290679 0.589903 0.446434 0.086612
H10   H     H_    0.709268 0.587779 0.553455 0.094823
H11   H     H_    0.790679 0.089903 0.446434 0.086612
H12   H     H_    0.209268 0.087779 0.553455 0.094823
H13   H     H_    0.289986 0.514756 0.559253 0.104301
H14   H     H_    0.710470 0.514404 0.440050 0.111027
H15   H     H_    0.789986 0.014756 0.559253 0.104302
H16   H     H_    0.210470 0.014404 0.440050 0.111027
H17   H     H_    0.470098 0.056047 0.129037 0.128779
H18   H     H_    0.527283 0.060044 0.871781 0.128633
H19   H     H_    0.970097 0.556046 0.129037 0.128779
H20   H     H_    0.027282 0.560045 0.871781 0.128633
H21   H     H_    0.981159 0.748749 0.065418 0.107408
H22   H     H_    0.011449 0.750835 0.937233 0.109576
H23   H     H_    0.481160 0.248749 0.065418 0.107407
H24   H     H_    0.511451 0.250835 0.937233 0.109574
H25   H     H_    0.320284 0.437828 0.058161 0.153687
H26   H     H_    0.678535 0.440222 0.940765 0.153625
H27   H     H_    0.820285 0.937829 0.058161 0.153687
H28   H     H_    0.178535 0.940222 0.940765 0.153624
H29   H     H_    0.354319 0.530815 0.937870 0.166755
H30   H     H_    0.645911 0.530581 0.061994 0.145616
H31   H     H_    0.854319 0.030815 0.937870 0.166756
H32   H     H_    0.145911 0.030581 0.061994 0.145615
H33   H     H_    0.223290 0.663649 0.054209 0.111875
H34   H     H_    0.777162 0.663608 0.946327 0.113704
H35   H     H_    0.723290 0.163649 0.054209 0.111875
H36   H     H_    0.277162 0.163608 0.946327 0.113704
H37   H     H_    0.195150 0.583370 0.941791 0.112277
H38   H     H_    0.804829 0.583259 0.057920 0.114574
H39   H     H_    0.695150 0.083370 0.941791 0.112276
H40   H     H_    0.304829 0.083259 0.057920 0.114573
H41   H     H_    0.466989 0.652204 0.427717 0.154326
H42   H     H_    0.417274 0.680793 0.548614 0.154465
H43   H     H_    0.966989 0.152204 0.427717 0.154326
H44   H     H_    0.917274 0.180792 0.548614 0.154465
H45   H     H_    0.482985 0.931271 0.438069 0.095190
H46   H     H_    0.520905 0.899281 0.552011 0.083795
H47   H     H_    0.982985 0.431271 0.438069 0.095190
H48   H     H_    0.020905 0.399280 0.552011 0.083795
O1    O     O_R   0.215090 0.709860 0.828130 -0.523959
O2    O     O_R   0.784910 0.709860 0.171870 -0.523876
O3    O     O_R   0.715090 0.209860 0.828130 -0.523959
O4    O     O_R   0.284910 0.209860 0.171870 -0.523876
O5    O     O_R   0.445660 0.919250 0.676780 -0.506780
O6    O     O_R   0.554340 0.919250 0.323220 -0.510134
O7    O     O_R   0.945660 0.419250 0.676780 -0.506780
O8    O     O_R   0.054340 0.419250 0.323220 -0.510134
O9    O     O_R   0.456260 0.718170 0.670000 -0.513372
O10   O     O_R   0.543740 0.718170 0.330000 -0.509990
O11   O     O_R   0.956260 0.218170 0.670000 -0.513373
O12   O     O_R   0.043740 0.218170 0.330000 -0.509990
O13   O     O_R   0.320940 0.626760 0.674370 -0.508449
O14   O     O_R   0.679060 0.626760 0.325630 -0.499055
O15   O     O_R   0.820940 0.126760 0.674370 -0.508449
O16   O     O_R   0.179060 0.126760 0.325630 -0.499055
O17   O     O_3   0.334530 0.834540 0.749640 -0.250428
O18   O     O_3   0.665470 0.834540 0.250360 -0.249217
O19   O     O_3   0.834530 0.334540 0.749640 -0.250428
O20   O     O_3   0.165470 0.334540 0.250360 -0.249217
O21   O     O_R   0.236990 0.958390 0.823710 -0.499064
O22   O     O_R   0.763010 0.958390 0.176290 -0.495277
O23   O     O_R   0.736990 0.458390 0.823710 -0.499064
O24   O     O_R   0.263010 0.458390 0.176290 -0.495277
O25   O     O_R   0.332380 0.074750 0.830850 -0.507690
O26   O     O_R   0.667620 0.074750 0.169150 -0.511049
O27   O     O_R   0.832380 0.574750 0.830850 -0.507690
O28   O     O_R   0.167620 0.574750 0.169150 -0.511049
O29   O     O_R   0.445800 0.917770 0.825070 -0.513269
O30   O     O_R   0.554200 0.917770 0.174930 -0.516527
O31   O     O_R   0.945800 0.417770 0.825070 -0.513268
O32   O     O_R   0.054200 0.417770 0.174930 -0.516527
O33   O     O_R   0.456410 0.716580 0.829970 -0.469546
O34   O     O_R   0.543590 0.716580 0.170030 -0.481825
O35   O     O_R   0.956410 0.216580 0.829970 -0.469549
O36   O     O_R   0.043590 0.216580 0.170030 -0.481826
O37   O     O_R   0.321080 0.625290 0.822650 -0.491101
O38   O     O_R   0.678920 0.625290 0.177350 -0.498100
O39   O     O_R   0.821080 0.125290 0.822650 -0.491101
O40   O     O_R   0.178920 0.125290 0.177350 -0.498100
O41   O     O_R   0.214930 0.711450 0.668160 -0.512007
O42   O     O_R   0.785070 0.711450 0.331840 -0.514401
O43   O     O_R   0.714930 0.211450 0.668160 -0.512007
O44   O     O_R   0.285070 0.211450 0.331840 -0.514401
O45   O     O_R   0.236850 0.959870 0.675420 -0.493168
O46   O     O_R   0.763150 0.959870 0.324580 -0.493635
O47   O     O_R   0.736850 0.459870 0.675420 -0.493168
O48   O     O_R   0.263150 0.459870 0.324580 -0.493635
O49   O     O_R   0.332230 0.076350 0.670880 -0.516195
O50   O     O_R   0.667770 0.076350 0.329120 -0.515575
O51   O     O_R   0.832230 0.576350 0.670880 -0.516195
O52   O     O_R   0.167770 0.576350 0.329120 -0.515575
N1    N     N_3   0.527422 0.607557 0.924003 -0.598825
H49   H     H_    0.576131 0.620393 0.899340 0.230813
H50   H     H_    0.533937 0.532897 0.957561 0.207007
N2    N     N_3   0.479644 0.605628 0.070682 -0.600685
H51   H     H_    0.523655 0.548860 0.072358 0.223330
H52   H     H_    0.439717 0.561783 0.042383 0.227788
N3    N     N_3   0.027424 0.107557 0.924003 -0.598824
H53   H     H_    0.076128 0.120399 0.899332 0.230814
H54   H     H_    0.033950 0.032903 0.957562 0.207006
N4    N     N_3   0.979645 0.105628 0.070681 -0.600684
H55   H     H_    0.023656 0.048860 0.072358 0.223330
H56   H     H_    0.939719 0.061782 0.042381 0.227792

loop_
_geom_bond_atom_site_label_1
_geom_bond_atom_site_label_2
_ccdc_geom_bond_type
C16   C28   D    
C69   O41   A    
Cr3   O19   S    
N3    H53   S    
C38   C70   S    
C60   O40   A    
C37   C69   S    
Cr1   O17   S    
C46   O34   A    
C19   C23   D    
C35   C36   S    
Cr2   O22   S    
Cr5   O29   S    
Cr6   O6    S    
C11   H23   S    
Cr10  O38   S    
C57   O37   A    
C81   C82   A    
C3    O23   A    
C40   H16   S    
C77   C78   A    
Cr8   O32   S    
C31   C67   S    
N3    H54   S    
C50   C54   S    
C30   H45   S    
C41   H9    S    
Cr6   O18   S    
Cr11  O15   S    
C7    C79   A    
Cr1   O1    S    
C47   C76   S    
C66   O6    A    
C45   O29   A    
C31   C36   D    
C16   C60   S    
N4    H56   S    
C75   C84   A    
C6    C78   A    
C15   H39   S    
Cr1   O45   S    
C55   H7    S    
C24   H28   S    
C9    H21   S    
C3    C18   S    
C67   O11   A    
C26   H30   S    
C7    H19   S    
C31   H48   S    
N1    H50   S    
C25   H29   S    
C6    H18   S    
C32   H47   S    
C65   O9    A    
C35   H43   S    
C12   H24   S    
C27   H31   S    
C39   C55   D    
C20   C24   D    
C53   H5    S    
N2    H51   S    
C40   C56   D    
Cr6   O50   S    
Cr8   O8    S    
C69   O13   A    
C46   O30   A    
Cr2   O18   S    
Cr9   O17   S    
C38   H14   S    
C4    O28   A    
C9    C10   A    
Cr10  O18   S    
C37   H13   S    
Cr5   O17   S    
C45   O33   A    
C32   C68   S    
C37   C53   D    
Cr8   O20   S    
Cr5   O5    S    
C28   H32   S    
Cr10  O14   S    
Cr10  O34   S    
C61   O45   A    
C48   C75   S    
Cr7   O19   S    
Cr9   O37   S    
Cr12  O40   S    
Cr2   O2    S    
C76   C83   A    
C41   C49   D    
C64   O48   A    
C22   H26   S    
C44   H12   S    
C19   H35   S    
C14   C58   S    
Cr3   O23   S    
Cr2   O46   S    
C50   H2    S    
C67   O7    A    
C32   C35   D    
C76   C80   A    
C56   H8    S    
C83   N3    S    
C21   C25   S    
C33   H41   S    
C66   O10   A    
Cr9   O33   S    
N4    H55   S    
Cr3   O43   S    
C14   H38   S    
C51   C55   S    
Cr4   O24   S    
Cr4   O20   S    
C17   H33   S    
C29   C34   D    
C52   H4    S    
C14   C26   D    
Cr12  O20   S    
C45   C74   S    
C70   O14   A    
C20   H36   S    
C47   O35   A    
C84   N4    S    
C82   N2    S    
C68   O8    A    
Cr11  O19   S    
C10   H22   S    
C51   H3    S    
Cr7   O51   S    
C57   O1    A    
C15   C27   D    
C83   C84   A    
C38   C54   D    
C1    O21   A    
Cr10  O10   S    
Cr5   O49   S    
Cr6   O26   S    
C33   C34   S    
Cr4   O4    S    
Cr7   O31   S    
C43   H11   S    
C62   O46   A    
Cr12  O36   S    
Cr9   O13   S    
C36   H44   S    
C30   C66   S    
C22   C26   S    
Cr3   O3    S    
C42   C50   D    
C29   C65   S    
C4    C17   S    
Cr11  O35   S    
Cr12  O16   S    
C2    O26   A    
Cr2   O42   S    
C23   C27   S    
C3    O27   A    
C72   O44   A    
C63   O51   A    
C18   H34   S    
C62   O50   A    
C74   C81   A    
C5    C77   A    
C16   H40   S    
C6    C12   A    
C61   O49   A    
C73   C82   A    
C48   O36   A    
Cr3   O47   S    
Cr4   O48   S    
C2    O22   A    
C1    C20   S    
C15   C59   S    
C40   C72   S    
Cr11  O39   S    
C5    H17   S    
C2    C19   S    
C18   C22   D    
C4    O24   A    
C13   H37   S    
C54   H6    S    
C8    C10   A    
C24   C28   S    
C71   O43   A    
C68   O12   A    
C44   C52   D    
C23   H27   S    
C11   C12   A    
C58   O2    A    
C5    C11   A    
C44   C61   S    
C71   O15   A    
Cr6   O30   S    
C72   O16   A    
Cr7   O27   S    
C58   O38   A    
Cr1   O21   S    
Cr7   O7    S    
Cr9   O9    S    
C70   O42   A    
Cr5   O25   S    
Cr1   O41   S    
C81   N1    S    
C39   H15   S    
C43   C51   D    
Cr12  O12   S    
C13   C25   D    
Cr8   O28   S    
Cr8   O52   S    
C29   H46   S    
C64   O52   A    
C1    O25   A    
C34   H42   S    
C30   C33   D    
Cr11  O11   S    
C65   O5    A    
N1    H49   S    
C17   C21   D    
C49   C53   S    
C8    H20   S    
C49   H1    S    
C79   C80   A    
C42   H10   S    
C7    C9    A    
Cr4   O44   S    
C13   C57   S    
C73   C77   A    
N2    H52   S    
C74   C78   A    
C8    C80   A    
C39   C71   S    
C59   O39   A    
C21   H25   S    
C60   O4    A    
C41   C64   S    
C63   O47   A    
C75   C79   A    
C42   C63   S    
C46   C73   S    
C47   O31   A    
C52   C56   S    
C43   C62   S    
C48   O32   A    
C59   O3    A    
