data_mof_unit_47742.cif
_audit_creation_date              2012-12-10T18:52:16-0500
_audit_creation_method            fapswitch 2.2
_symmetry_space_group_name_H-M    P1
_symmetry_Int_Tables_number       1
_space_group_crystal_system       triclinic
_cell_length_a                    15.685558
_cell_length_b                    10.695398
_cell_length_c                    9.928071
_cell_angle_alpha                 90.567603
_cell_angle_beta                  90.521641
_cell_angle_gamma                 93.214141
_cell_volume                      1662.78637009

loop_
_atom_site_label
_atom_site_type_symbol
_atom_type_description
_atom_site_fract_x
_atom_site_fract_y
_atom_site_fract_z
_atom_type_partial_charge
C1    C     C_R   0.501525 0.260249 0.499673 0.815661
C2    C     C_R   0.437498 0.430500 0.068350 0.285561
C3    C     C_R   0.338047 0.499254 0.499429 0.877549
C4    C     C_R   0.661843 0.498391 0.500744 0.877959
C5    C     C_3   0.968311 0.379857 0.541547 0.578188
C6    C     C_3   0.030732 0.600240 0.461620 0.586984
C7    C     C_3   0.023234 0.399594 0.414806 -0.317209
C8    C     C_3   0.975967 0.580528 0.588305 -0.321920
C9    C     C_1   0.248983 0.495707 0.498356 -0.140025
C10   C     C_1   0.750583 0.494103 0.503000 -0.209156
C11   C     C_3   0.028531 0.467437 0.627856 -0.322297
C12   C     C_R   0.501463 0.739909 0.500507 0.838466
C13   C     C_3   0.970639 0.512704 0.375336 -0.321034
C14   C     C_3   0.082521 0.489349 0.500347 0.069156
C15   C     C_3   0.916662 0.490838 0.502812 0.078405
C16   C     C_1   0.173515 0.492321 0.498682 0.013760
C17   C     C_1   0.825830 0.491592 0.503820 -0.000693
C18   C     C_R   0.522798 0.064601 0.381270 -0.208670
C19   C     C_R   0.489593 0.936198 0.621257 -0.172701
C20   C     C_3   0.990108 0.180634 0.615142 0.097689
C21   C     C_3   0.945891 0.055798 0.652764 -0.822865
C22   C     C_3   0.008227 0.799056 0.387422 0.099031
C23   C     C_R   0.522662 0.936513 0.381622 -0.179031
C24   C     C_3   0.051982 0.924148 0.349672 -0.819130
C25   C     C_3   0.679095 0.708659 0.121118 0.157634
C26   C     C_3   0.735345 0.733738 0.245084 -0.893497
C27   C     C_3   0.338117 0.272202 0.859299 0.178464
C28   C     C_3   0.299066 0.224723 0.726018 -0.874098
C29   C     C_3   0.658880 0.689888 0.799601 0.179564
C30   C     C_3   0.719927 0.805533 0.819685 -0.987734
C31   C     C_3   0.372081 0.268955 0.194409 0.184292
C32   C     C_3   0.297154 0.174257 0.167013 -0.980679
C33   C     C_R   0.489659 0.064058 0.620789 -0.202249
C34   C     C_R   0.504721 0.872663 0.501219 -0.023734
C35   C     C_R   0.504552 0.127852 0.500226 -0.003243
C36   C     C_R   0.554971 0.580525 0.077629 0.395854
C37   C     C_R   0.437613 0.432613 0.923364 0.384987
C38   C     C_R   0.553603 0.585021 0.931587 0.268813
H1    H     H_    0.044728 0.325490 0.345948 0.156580
H2    H     H_    0.093028 0.912211 0.260405 0.262620
H3    H     H_    0.003241 0.992082 0.325279 0.206246
H4    H     H_    0.092130 0.961768 0.435140 0.253444
H5    H     H_    0.944774 0.532391 0.273744 0.154204
H6    H     H_    0.054349 0.447702 0.729456 0.161311
H7    H     H_    0.537258 0.113565 0.288614 0.146697
H8    H     H_    0.476377 0.887510 0.714628 0.190348
H9    H     H_    0.536310 0.887950 0.288684 0.196533
H10   H     H_    0.476926 0.112300 0.714193 0.158461
H11   H     H_    0.675666 0.799461 0.069752 0.200931
H12   H     H_    0.954486 0.654653 0.657162 0.154817
H13   H     H_    0.709551 0.637221 0.058114 0.117001
H14   H     H_    0.752819 0.643951 0.288723 0.255696
H15   H     H_    0.795198 0.786763 0.216178 0.201685
H16   H     H_    0.701803 0.789068 0.321430 0.263319
H17   H     H_    0.285245 0.266026 0.931650 0.200631
H18   H     H_    0.390594 0.211597 0.889023 0.092299
H19   H     H_    0.345684 0.235618 0.643551 0.257995
H20   H     H_    0.278601 0.124034 0.734380 0.209429
H21   H     H_    0.242413 0.277985 0.700372 0.245729
H22   H     H_    0.642257 0.696418 0.692433 0.210161
H23   H     H_    0.029727 0.215511 0.702715 0.138042
H24   H     H_    0.693454 0.603587 0.819644 0.120975
H25   H     H_    0.767726 0.790503 0.899959 0.229036
H26   H     H_    0.756852 0.824117 0.726187 0.231553
H27   H     H_    0.683988 0.889581 0.842959 0.286104
H28   H     H_    0.366745 0.286203 0.303339 0.205467
H29   H     H_    0.432703 0.224437 0.170005 0.108690
H30   H     H_    0.309005 0.115657 0.077125 0.232698
H31   H     H_    0.289849 0.108851 0.253031 0.238750
H32   H     H_    0.236627 0.222403 0.155206 0.279025
H33   H     H_    0.032205 0.164461 0.527766 0.133197
H34   H     H_    0.905550 0.018604 0.567316 0.253171
H35   H     H_    0.994356 0.987383 0.676938 0.208410
H36   H     H_    0.904963 0.067938 0.742133 0.260556
H37   H     H_    0.965872 0.815020 0.474539 0.132552
H38   H     H_    0.968904 0.763691 0.299735 0.136601
N1    N     N_R   0.499980 0.499970 0.857200 -0.188041
N2    N     N_R   0.500020 0.500030 0.142800 -0.187842
O1    O     O_R   0.499990 0.316750 0.614620 -0.612315
O2    O     O_3   0.070910 0.714648 0.420405 -0.599742
O3    O     O_3   0.595704 0.671707 0.160147 -0.563341
O4    O     O_3   0.364650 0.399338 0.848301 -0.542096
O5    O     O_3   0.582638 0.698385 0.874279 -0.597723
O6    O     O_3   0.362311 0.384785 0.129102 -0.576340
O7    O     O_R   0.500010 0.683250 0.385380 -0.560410
O8    O     O_R   0.500000 0.316780 0.385290 -0.668639
O9    O     O_R   0.500000 0.683220 0.614710 -0.606160
O10   O     O_R   0.376780 0.499970 0.614640 -0.537633
O11   O     O_R   0.623220 0.500030 0.385360 -0.573314
O12   O     O_R   0.376780 0.500000 0.385310 -0.583633
O13   O     O_R   0.623220 0.500000 0.614690 -0.656084
O14   O     O_3   0.927759 0.265700 0.582684 -0.602837
Zn1   Zn    Zn3+2 0.500000 0.499980 0.653120 0.993612
Zn2   Zn    Zn3+2 0.500000 0.500020 0.346880 1.003523

loop_
_geom_bond_atom_site_label_1
_geom_bond_atom_site_label_2
_ccdc_geom_bond_type
C31   H28   S    
C18   H7    S    
C30   H26   S    
C38   O5    S    
C24   H4    S    
C2    O6    S    
C22   H38   S    
C19   H8    S    
C28   H19   S    
C31   H29   S    
C20   O14   S    
C12   O7    A    
C3    O12   A    
C3    C9    S    
C9    C16   T    
O1    Zn1   S    
C11   C14   S    
C27   H17   S    
C6    C14   S    
C10   C17   T    
C29   O5    S    
C21   H35   S    
C20   H23   S    
O11   Zn2   S    
O8    Zn2   S    
C33   C35   A    
O10   Zn1   S    
C7    C14   S    
C20   H33   S    
C18   C35   A    
C32   H30   S    
C4    O13   A    
C30   H25   S    
C25   O3    S    
C24   H3    S    
C22   H37   S    
C26   H16   S    
O12   Zn2   S    
C23   H9    S    
C21   H34   S    
C18   C23   A    
C30   H27   S    
C19   C33   A    
C5    C7    S    
C27   H18   S    
C6    C8    S    
C25   C26   S    
C37   N1    A    
C21   H36   S    
C31   O6    S    
C25   H13   S    
C29   C30   S    
C2    N2    A    
C26   H14   S    
O13   Zn1   S    
O7    Zn2   S    
C6    O2    S    
C31   C32   S    
C29   H22   S    
C36   O3    S    
C23   C34   A    
C11   H6    S    
C8    C15   S    
C13   C15   S    
C1    O1    A    
C14   C16   S    
C37   O4    S    
C12   C34   S    
C26   H15   S    
C8    H12   S    
C13   H5    S    
C1    C35   S    
C4    O11   A    
C28   H21   S    
C1    O8    A    
C15   C17   S    
C29   H24   S    
C12   O9    A    
C3    O10   A    
C27   O4    S    
C19   C34   A    
C32   H32   S    
C5    C11   S    
C32   H31   S    
C38   N1    A    
C28   H20   S    
C36   C38   A    
C22   O2    S    
C36   N2    A    
C6    C13   S    
C2    C37   A    
N2    Zn2   S    
C8    C11   S    
O9    Zn1   S    
N1    Zn1   S    
C24   H2    S    
C22   C24   S    
C25   H11   S    
C5    C15   S    
C5    O14   S    
C7    C13   S    
C20   C21   S    
C27   C28   S    
C33   H10   S    
C7    H1    S    
C4    C10   S    
