data_mof_unit_26404.cif
_audit_creation_date              2012-12-10T17:03:56-0500
_audit_creation_method            fapswitch 2.2
_symmetry_space_group_name_H-M    P1
_symmetry_Int_Tables_number       1
_space_group_crystal_system       triclinic
_cell_length_a                    9.821851
_cell_length_b                    11.086583
_cell_length_c                    15.565679
_cell_angle_alpha                 94.717379
_cell_angle_beta                  79.331498
_cell_angle_gamma                 112.212368
_cell_volume                      1541.91060012

loop_
_atom_site_label
_atom_site_type_symbol
_atom_type_description
_atom_site_fract_x
_atom_site_fract_y
_atom_site_fract_z
_atom_type_partial_charge
C1    C     C_R   0.556007 0.745483 0.508355 0.724370
C2    C     C_R   0.444016 0.254617 0.491339 0.728662
C3    C     C_R   0.374567 0.295074 0.052143 0.457455
C4    C     C_R   0.698998 0.504089 0.907777 0.479739
C5    C     C_R   0.262126 0.254990 0.000193 0.428978
C6    C     C_R   0.804006 0.549873 0.964733 0.461301
C7    C     C_2   0.582143 0.884307 0.522742 0.233248
C8    C     C_2   0.417713 0.116119 0.475546 0.235602
C9    C     C_2   0.504370 0.936135 0.484193 0.343566
C10   C     C_2   0.491684 0.062262 0.515438 0.351789
C11   C     C_2   0.923098 0.490856 0.492655 0.132493
C12   C     C_2   0.078131 0.511146 0.506116 0.145269
C13   C     C_R   0.409656 0.479871 0.663318 0.874705
C14   C     C_R   0.590153 0.517215 0.335966 0.854361
C15   C     C_R   0.351243 0.437866 0.755139 -0.332910
C16   C     C_R   0.648224 0.530630 0.240075 -0.339836
C17   C     C_R   0.179636 0.275755 0.861291 0.367478
C18   C     C_R   0.852810 0.612908 0.117071 0.387153
C19   C     C_R   0.214962 0.332939 0.778518 0.213383
C20   C     C_R   0.800545 0.601145 0.207763 0.246419
C21   C     C_R   0.447532 0.488120 0.816400 0.460843
C22   C     C_R   0.548914 0.476228 0.179942 0.459981
C23   C     C_R   0.428357 0.415736 0.891377 -0.130709
C24   C     C_R   0.603816 0.471581 0.089210 -0.108879
C25   C     C_R   0.287448 0.314895 0.918375 -0.248618
C26   C     C_R   0.755736 0.545560 0.056800 -0.266391
C27   C     C_R   0.544322 0.445455 0.942005 -0.157564
C28   C     C_R   0.506056 0.404998 0.029153 -0.149926
Cu1   Cu    Cu3+1 0.362980 0.479380 0.485080 1.092055
Cu2   Cu    Cu3+1 0.637020 0.520620 0.514920 1.092366
H1    H     H_    0.128673 0.582289 0.554172 0.154313
H2    H     H_    0.874191 0.422448 0.442854 0.156126
N1    N     N_2   0.842890 0.551600 0.537350 -0.016168
N2    N     N_2   0.157110 0.448400 0.462650 -0.008079
O1    O     O_R   0.426810 0.668300 0.492040 -0.579873
O2    O     O_R   0.573190 0.331700 0.507960 -0.586232
O3    O     O_R   0.658240 0.703130 0.517240 -0.519299
O4    O     O_R   0.341760 0.296870 0.482760 -0.511513
O5    O     O_R   0.319390 0.472820 0.610170 -0.553947
O6    O     O_R   0.680610 0.527180 0.389830 -0.553368
O7    O     O_R   0.550820 0.507640 0.635370 -0.515841
O8    O     O_R   0.449180 0.492360 0.364630 -0.515717
O9    O     O_3   0.131967 0.151319 0.028333 -0.490481
C29   C     C_3   0.042733 0.195999 0.094991 -0.115126
H3    H     H_    0.021241 0.279190 0.072811 0.110813
H4    H     H_    0.093531 0.223833 0.155335 0.199640
H5    H     H_    0.933241 0.115560 0.112039 0.188470
O10   O     O_3   0.953065 0.604160 0.928102 -0.484727
C30   C     C_3   0.015853 0.507794 0.922665 -0.177410
H6    H     H_    0.969658 0.430506 0.874374 0.174483
H7    H     H_    0.999826 0.463857 0.987365 0.138325
H8    H     H_    0.137742 0.554004 0.899796 0.178084
O11   O     O_3   0.396627 0.432415 0.209965 -0.521071
C31   C     C_3   0.344692 0.531622 0.198219 -0.174067
H9    H     H_    0.360634 0.554449 0.127950 0.127173
H10   H     H_    0.399817 0.621439 0.235568 0.151561
H11   H     H_    0.223261 0.497140 0.223478 0.219035
O12   O     O_3   0.562402 0.608095 0.801114 -0.501865
C32   C     C_3   0.517424 0.703446 0.849955 -0.270867
H12   H     H_    0.494125 0.684811 0.921394 0.166659
H13   H     H_    0.418255 0.709629 0.828508 0.140994
H14   H     H_    0.609729 0.799554 0.838543 0.205690
Cl1   Cl    Cl    0.927052 0.687763 0.279605 -0.515483
Cl2   Cl    Cl    0.087865 0.267847 0.703910 -0.526048
Cl3   Cl    Cl    0.001512 0.150489 0.887280 -0.531554
Cl4   Cl    Cl    0.038350 0.722177 0.082526 -0.501041
O13   O     O_3   0.358845 0.218459 0.121998 -0.531209
C33   C     C_3   0.441532 0.137939 0.095147 -0.239893
H15   H     H_    0.563337 0.196304 0.081652 0.137180
H16   H     H_    0.405168 0.077276 0.036860 0.186408
H17   H     H_    0.421990 0.070359 0.148639 0.174842
O14   O     O_3   0.753708 0.511182 0.818768 -0.482014
C34   C     C_3   0.728446 0.384785 0.782792 -0.137973
H18   H     H_    0.619182 0.344926 0.760261 0.150461
H19   H     H_    0.734504 0.315364 0.828562 0.105903
H20   H     H_    0.815349 0.391926 0.724553 0.230429
O15   O     O_3   0.561475 0.127233 0.584881 -0.550603
C35   C     C_3   0.454113 0.099677 0.662079 -0.258207
H21   H     H_    0.512915 0.125114 0.719128 0.172161
H22   H     H_    0.381844 0.994284 0.667775 0.165616
H23   H     H_    0.384206 0.159433 0.666044 0.168889
O16   O     O_3   0.426650 0.867324 0.418473 -0.534257
C36   C     C_3   0.527220 0.886998 0.338643 -0.254745
H24   H     H_    0.595451 0.992108 0.326511 0.141385
H25   H     H_    0.462114 0.850485 0.284556 0.187439
H26   H     H_    0.601225 0.831371 0.336415 0.150527
O17   O     O_3   0.314051 0.039852 0.423837 -0.523532
C37   C     C_3   0.339759 0.098028 0.342012 -0.095413
H27   H     H_    0.460682 0.143685 0.314577 0.066913
H28   H     H_    0.285488 0.170197 0.346265 0.232868
H29   H     H_    0.287292 0.020705 0.295391 0.211609
O18   O     O_3   0.687113 0.962240 0.573167 -0.518614
C38   C     C_3   0.661403 0.906839 0.656020 -0.111034
H30   H     H_    0.716344 0.835333 0.653151 0.230382
H31   H     H_    0.540466 0.860961 0.683369 0.070991
H32   H     H_    0.712521 0.985609 0.702219 0.210394
Cl5   Cl    Cl    0.083852 0.327735 0.387322 -0.508577
Cl6   Cl    Cl    0.911041 0.664416 0.618009 -0.426301

loop_
_geom_bond_atom_site_label_1
_geom_bond_atom_site_label_2
_ccdc_geom_bond_type
O17   C37   S    
C38   H30   S    
Cu1   O8    S    
C34   H18   S    
C18   C26   A    
C13   O7    A    
O15   C35   S    
C15   C19   A    
C6    O10   S    
C22   C24   A    
C3    C28   A    
C24   C26   A    
C35   H22   S    
N2    Cl5   S    
N1    Cl6   S    
C33   H15   S    
C30   H7    S    
Cu1   O4    S    
Cu2   O7    S    
C23   C27   A    
C9    C10   S    
C29   H5    S    
C1    O3    A    
C9    O16   S    
C14   O8    A    
C5    O9    S    
C32   H12   S    
C38   H31   S    
C34   H19   S    
C10   O15   S    
C29   H4    S    
C22   O11   S    
C31   H10   S    
C32   H13   S    
O13   C33   S    
C11   N1    D    
C4    C6    A    
C35   H21   S    
O12   C32   S    
O11   C31   S    
Cu1   N2    S    
Cu2   O3    S    
O9    C29   S    
Cu1   Cu2   S    
C2    O4    A    
C36   H24   S    
C37   H29   S    
C19   Cl2   S    
C16   C20   A    
C30   H8    S    
Cu1   O5    S    
Cu2   O6    S    
C5    C25   A    
C33   H16   S    
O10   C30   S    
C36   H25   S    
C37   H28   S    
C11   H2    S    
O16   C36   S    
C38   H32   S    
C21   C23   A    
C12   H1    S    
C34   H20   S    
C14   C16   S    
C12   N2    D    
C4    O14   S    
C4    C27   A    
C29   H3    S    
C1    O1    A    
C2    O2    A    
C7    C9    D    
C31   H9    S    
C32   H14   S    
C16   C22   A    
Cu2   N1    S    
C1    C7    S    
C3    O13   S    
C24   C28   A    
O14   C34   S    
C3    C5    A    
C11   C12   S    
C18   Cl4   S    
Cu1   O1    S    
C17   Cl3   S    
Cu2   O2    S    
C8    O17   S    
C17   C25   A    
C20   Cl1   S    
C13   C15   S    
C21   O12   S    
C35   H23   S    
C6    C26   A    
C33   H17   S    
C7    O18   S    
O18   C38   S    
C17   C19   A    
C18   C20   A    
C23   C25   A    
C13   O5    A    
C14   O6    A    
C15   C21   A    
C36   H26   S    
C37   H27   S    
C8    C10   D    
C30   H6    S    
C2    C8    S    
C27   C28   A    
C31   H11   S    
