data_mof_unit_29240.cif
_audit_creation_date              2012-12-10T19:47:59-0500
_audit_creation_method            fapswitch 2.2
_symmetry_space_group_name_H-M    P1
_symmetry_Int_Tables_number       1
_space_group_crystal_system       triclinic
_cell_length_a                    15.000433
_cell_length_b                    14.232573
_cell_length_c                    10.643026
_cell_angle_alpha                 91.139851
_cell_angle_beta                  90.075592
_cell_angle_gamma                 89.919265
_cell_volume                      2271.77647319

loop_
_atom_site_label
_atom_site_type_symbol
_atom_type_description
_atom_site_fract_x
_atom_site_fract_y
_atom_site_fract_z
_atom_type_partial_charge
C1    C     C_R   0.327894 0.500050 0.500441 0.860734
C2    C     C_R   0.672140 0.499956 0.500472 0.860449
C3    C     C_R   0.048200 0.500350 0.508536 0.107855
C4    C     C_R   0.951951 0.499698 0.508507 0.104624
C5    C     C_R   0.431134 0.104798 0.442249 -0.092844
C6    C     C_R   0.579723 0.894846 0.508444 -0.177705
C7    C     C_R   0.568192 0.106421 0.559705 -0.187934
C8    C     C_R   0.419959 0.894694 0.491842 -0.184620
C9    C     C_R   0.432763 0.203737 0.442415 0.113330
C10   C     C_R   0.578303 0.795892 0.508772 0.091159
C11   C     C_R   0.566836 0.205339 0.558616 0.069632
C12   C     C_R   0.421599 0.795698 0.491049 0.033715
C13   C     C_R   0.499695 0.053582 0.500913 0.180852
C14   C     C_R   0.499774 0.946814 0.500632 0.122466
C15   C     C_R   0.512832 0.498711 0.260492 0.882088
C16   C     C_R   0.488242 0.501289 0.740008 0.881420
C17   C     C_R   0.577653 0.660150 0.116299 -0.290054
C18   C     C_R   0.427056 0.339072 0.885172 -0.313289
C19   C     C_R   0.480128 0.678041 0.897108 -0.279859
C20   C     C_R   0.526033 0.322028 0.103352 -0.311972
C21   C     C_R   0.570423 0.748755 0.062660 0.283613
C22   C     C_R   0.436894 0.250289 0.937327 0.335217
C23   C     C_R   0.516771 0.758350 0.954217 0.345869
C24   C     C_R   0.491840 0.241163 0.044650 0.308547
C25   C     C_R   0.496773 0.587905 0.943608 0.020958
C26   C     C_R   0.507732 0.411953 0.057240 0.038028
C27   C     C_R   0.534946 0.581009 0.062276 0.024966
C28   C     C_R   0.469228 0.418672 0.938791 0.030351
C29   C     C_R   0.475126 0.504498 0.876082 -0.159795
C30   C     C_R   0.528176 0.495401 0.125000 -0.160406
C31   C     C_R   0.093466 0.578052 0.461651 -0.160458
C32   C     C_R   0.906539 0.419690 0.464749 -0.162135
C33   C     C_R   0.905348 0.579635 0.550013 -0.160072
C34   C     C_R   0.094949 0.422754 0.553403 -0.164798
C35   C     C_R   0.185465 0.578202 0.459657 -0.177662
C36   C     C_R   0.814516 0.419591 0.462569 -0.191296
C37   C     C_R   0.813360 0.579944 0.546548 -0.163638
C38   C     C_R   0.186955 0.422423 0.550107 -0.192619
C39   C     C_R   0.232140 0.500165 0.503194 -0.028744
C40   C     C_R   0.767962 0.499892 0.502896 -0.030701
H1    H     H_    0.617102 0.652536 0.200709 0.208699
H2    H     H_    0.386229 0.346446 0.802090 0.198769
H3    H     H_    0.435555 0.686482 0.818354 0.218937
H4    H     H_    0.570090 0.314420 0.182877 0.207220
H5    H     H_    0.057666 0.637768 0.425044 0.144981
H6    H     H_    0.942238 0.358061 0.430721 0.142839
H7    H     H_    0.940100 0.641359 0.585522 0.144720
H8    H     H_    0.060306 0.362922 0.591359 0.142535
H9    H     H_    0.219946 0.638388 0.422380 0.152054
H10   H     H_    0.779933 0.357518 0.427815 0.158261
H11   H     H_    0.777876 0.642079 0.579317 0.158006
H12   H     H_    0.222654 0.362168 0.585433 0.166780
H13   H     H_    0.377237 0.069151 0.393617 0.140803
H14   H     H_    0.643602 0.929876 0.512454 0.155612
H15   H     H_    0.622020 0.072197 0.608641 0.128022
H16   H     H_    0.355996 0.929623 0.487908 0.149538
H17   H     H_    0.380149 0.241597 0.395609 0.123169
H18   H     H_    0.640552 0.758029 0.515188 0.140452
H19   H     H_    0.619481 0.244515 0.605231 0.127824
H20   H     H_    0.359437 0.757680 0.484401 0.134228
N1    N     N_R   0.500000 0.252470 0.500000 -0.110086
N2    N     N_R   0.500000 0.747530 0.500000 -0.112629
O1    O     O_R   0.369060 0.579480 0.500010 -0.634537
O2    O     O_R   0.630940 0.420520 0.499990 -0.632408
O3    O     O_R   0.630940 0.579480 0.499990 -0.634765
O4    O     O_R   0.369060 0.420520 0.500010 -0.627467
O5    O     O_R   0.499990 0.579480 0.316780 -0.612929
O6    O     O_R   0.500010 0.420520 0.683220 -0.608906
O7    O     O_R   0.500010 0.579480 0.683220 -0.613828
O8    O     O_R   0.499990 0.420520 0.316780 -0.618196
Zn1   Zn    Zn3+2 0.500000 0.606140 0.500000 0.961767
Zn2   Zn    Zn3+2 0.500000 0.393860 0.500000 0.966964
S1    S     S_3+6 0.522011 0.132067 0.107927 0.112154
O9    O     O_2   0.439723 0.081018 0.148225 -0.205932
O10   O     O_2   0.570244 0.074843 0.009435 -0.162545
O11   O     O_3   0.589239 0.146112 0.233617 -0.561875
H21   H     H_    0.649514 0.156279 0.198551 0.359898
S2    S     S_3+6 0.492171 0.867487 0.886651 0.115006
O12   O     O_2   0.429133 0.854906 0.777775 -0.331455
O13   O     O_2   0.448460 0.929697 0.983654 -0.127641
O14   O     O_3   0.586992 0.916586 0.835670 -0.486202
H22   H     H_    0.568736 0.958742 0.767563 0.382746
S3    S     S_3+6 0.382841 0.154413 0.860853 0.087239
O15   O     O_2   0.451564 0.088718 0.806694 -0.217538
O16   O     O_2   0.326004 0.102282 0.952274 -0.218799
O17   O     O_3   0.317921 0.191548 0.742634 -0.578470
H23   H     H_    0.265413 0.220776 0.784156 0.345477
S4    S     S_3+6 0.623975 0.844503 0.140665 0.102797
O18   O     O_2   0.684328 0.810050 0.242823 -0.339345
O19   O     O_2   0.678955 0.898660 0.049350 -0.158316
O20   O     O_3   0.547102 0.916115 0.205607 -0.420099
H24   H     H_    0.499640 0.873829 0.235600 0.331199

loop_
_geom_bond_atom_site_label_1
_geom_bond_atom_site_label_2
_ccdc_geom_bond_type
S1    O9    D    
C19   C23   A    
C7    H15   S    
C2    O3    A    
C8    H16   S    
O14   H22   S    
C7    C11   A    
C9    N1    A    
C32   C36   A    
C5    H13   S    
C28   C29   A    
C10   H18   S    
C37   C40   A    
C18   H2    S    
C38   C39   A    
C37   H11   S    
S2    O13   D    
C24   S1    S    
O5    Zn1   S    
C38   H12   S    
O7    Zn1   S    
O4    Zn2   S    
C20   C24   A    
C2    O2    A    
C35   H9    S    
C16   O6    A    
C5    C13   A    
O6    Zn2   S    
C21   S4    S    
C34   C38   A    
C13   C14   S    
C27   C30   A    
S1    O10   D    
C10   N2    A    
C6    H14   S    
C11   H19   S    
C1    O1    A    
C20   H4    S    
C19   H3    S    
C25   C29   A    
C17   C27   A    
C36   C40   A    
C18   C28   A    
O11   H21   S    
O20   H24   S    
O17   H23   S    
C3    C34   A    
C16   C29   S    
O3    Zn1   S    
C33   C37   A    
C35   C39   A    
C5    C9    A    
C6    C14   A    
C12   N2    A    
S3    O15   D    
S4    O20   S    
C8    C12   A    
C15   O5    A    
C1    O4    A    
C3    C31   A    
C4    C32   A    
N1    Zn2   S    
S3    O16   D    
S4    O19   D    
C26   C30   A    
C21   C23   A    
C33   H7    S    
S1    O11   S    
C22   C24   A    
C34   H8    S    
C3    C4    S    
C36   H10   S    
C15   C30   S    
C15   O8    A    
C4    C33   A    
C8    C14   A    
C18   C22   A    
C32   H6    S    
C16   O7    A    
O1    Zn1   S    
C11   N1    A    
C6    C10   A    
C25   C27   A    
C26   C28   A    
C22   S3    S    
S2    O12   D    
S2    O14   S    
C20   C26   A    
C31   C35   A    
N2    Zn1   S    
C9    H17   S    
O2    Zn2   S    
C23   S2    S    
C19   C25   A    
C17   H1    S    
C1    C39   S    
C12   H20   S    
C2    C40   S    
C7    C13   A    
S3    O17   S    
S4    O18   D    
C31   H5    S    
O8    Zn2   S    
C17   C21   A    
