data_mof_unit_20358.cif
_audit_creation_date              2012-12-10T19:15:17-0500
_audit_creation_method            fapswitch 2.2
_symmetry_space_group_name_H-M    P1
_symmetry_Int_Tables_number       1
_space_group_crystal_system       triclinic
_cell_length_a                    10.854518
_cell_length_b                    9.823204
_cell_length_c                    22.770035
_cell_angle_alpha                 90.532792
_cell_angle_beta                  91.969966
_cell_angle_gamma                 88.877345
_cell_volume                      2425.88997025

loop_
_atom_site_label
_atom_site_type_symbol
_atom_type_description
_atom_site_fract_x
_atom_site_fract_y
_atom_site_fract_z
_atom_type_partial_charge
C1    C     C_R   0.258768 0.501346 0.499573 0.834899
C2    C     C_R   0.239454 0.302174 0.962007 -0.137794
C3    C     C_R   0.246125 0.295542 0.023072 -0.158375
C4    C     C_R   0.285001 0.408361 0.056526 -0.015245
C5    C     C_R   0.310505 0.531347 0.028223 -0.016038
C6    C     C_R   0.346255 0.645777 0.061668 -0.027083
C7    C     C_R   0.369069 0.768537 0.033604 -0.195896
C8    C     C_R   0.365509 0.776489 0.972382 -0.021901
C9    C     C_R   0.303778 0.400185 0.117588 0.506567
C10   C     C_R   0.363083 0.633056 0.122579 0.516684
C11   C     C_R   0.487301 0.426523 0.226830 -0.086145
C12   C     C_R   0.496178 0.499343 0.388871 0.860700
C13   C     C_R   0.527232 0.426330 0.285709 -0.217811
C14   C     C_R   0.458894 0.498339 0.327120 -0.012994
C15   C     C_R   0.347141 0.563004 0.310324 -0.181015
C16   C     C_R   0.307306 0.563068 0.251748 -0.081990
C17   C     C_R   0.378242 0.496765 0.209747 0.300438
C18   C     C_R   0.319319 0.609439 0.742838 -0.050256
C19   C     C_R   0.367939 0.604795 0.687263 -0.216857
C20   C     C_R   0.461725 0.510132 0.673437 -0.130877
C21   C     C_R   0.513526 0.426358 0.718151 -0.063591
C22   C     C_R   0.464236 0.432293 0.774182 -0.054996
C23   C     C_R   0.743097 0.499302 0.501292 0.837985
C24   C     C_R   0.367005 0.522753 0.786495 0.251278
C25   C     C_3   0.074272 0.649663 0.518120 -0.217146
C26   C     C_3   0.083206 0.395590 0.547623 -0.242182
C27   C     C_3   0.930614 0.653168 0.511635 -0.033050
C28   C     C_3   0.939744 0.402506 0.552953 -0.054994
C29   C     C_3   0.069309 0.462254 0.441099 -0.426708
C30   C     C_3   0.124009 0.503677 0.502842 -0.063492
C31   C     C_3   0.881662 0.500364 0.503208 -0.043743
C32   C     C_3   0.928280 0.446284 0.443082 -0.423924
C33   C     C_3   0.384302 0.082504 0.469953 -0.120647
C34   C     C_3   0.394407 0.920346 0.461772 -0.116167
C35   C     C_3   0.604917 0.076294 0.466871 -0.270023
C36   C     C_3   0.615391 0.917579 0.476154 -0.240754
C37   C     C_3   0.502506 0.084414 0.559601 -0.121923
C38   C     C_3   0.483544 0.924458 0.559172 -0.156762
C39   C     C_R   0.496988 0.501560 0.611495 0.832366
C40   C     C_R   0.350558 0.653313 0.876287 0.514754
C41   C     C_R   0.282934 0.423144 0.872301 0.523215
C42   C     C_R   0.273269 0.421041 0.933286 -0.017224
C43   C     C_R   0.305616 0.537881 0.966362 -0.027016
C44   C     C_R   0.338628 0.658708 0.937826 -0.058197
H1    H     H_    0.212524 0.212061 0.937384 0.199949
H2    H     H_    0.329775 0.673440 0.654298 0.185296
H3    H     H_    0.504706 0.371060 0.809465 0.180947
H4    H     H_    0.111607 0.719631 0.484896 0.178792
H5    H     H_    0.110889 0.296404 0.526807 0.175557
H6    H     H_    0.090700 0.540820 0.408224 0.178841
H7    H     H_    0.111450 0.364629 0.425705 0.194141
H8    H     H_    0.882458 0.501488 0.405642 0.182813
H9    H     H_    0.904742 0.337519 0.436216 0.187036
H10   H     H_    0.224168 0.200660 0.043825 0.191730
H11   H     H_    0.305452 0.103616 0.499024 0.123752
H12   H     H_    0.306894 0.876457 0.476134 0.151166
H13   H     H_    0.594241 0.097931 0.419070 0.164071
H14   H     H_    0.637976 0.866305 0.434143 0.187594
H15   H     H_    0.425697 0.132818 0.583943 0.151962
H16   H     H_    0.387324 0.908102 0.572002 0.179366
H17   H     H_    0.691625 0.124842 0.480811 0.186564
H18   H     H_    0.693631 0.895038 0.507407 0.175770
H19   H     H_    0.393327 0.858188 0.059339 0.196127
H20   H     H_    0.542366 0.375268 0.194263 0.145400
H21   H     H_    0.611937 0.372966 0.298741 0.141668
H22   H     H_    0.290714 0.613252 0.342692 0.135925
H23   H     H_    0.222711 0.616594 0.238739 0.145326
H24   H     H_    0.245845 0.681736 0.752214 0.171690
N1    N     N_R   0.327031 0.535423 0.845654 -0.355465
N2    N     N_R   0.345275 0.510614 0.148822 -0.360377
N3    N     N_3   0.499750 0.138610 0.498760 -0.089756
N4    N     N_3   0.499750 0.861390 0.498760 -0.089650
O1    O     O_R   0.314910 0.616040 0.499990 -0.619309
O2    O     O_R   0.314910 0.383960 0.499990 -0.637212
O3    O     O_R   0.500080 0.616070 0.416130 -0.608519
O4    O     O_R   0.500080 0.383930 0.416130 -0.606123
O5    O     O_R   0.685320 0.616040 0.499970 -0.619109
O6    O     O_R   0.685320 0.383960 0.499970 -0.627429
O7    O     O_R   0.500150 0.616010 0.583820 -0.601558
O8    O     O_R   0.500150 0.383990 0.583820 -0.628190
O9    O     O_2   0.391397 0.761955 0.847436 -0.529278
O10   O     O_2   0.253032 0.312131 0.839864 -0.509458
O11   O     O_2   0.282884 0.282652 0.145462 -0.541671
O12   O     O_2   0.400772 0.740883 0.155215 -0.538014
Zn1   Zn    Zn3+2 0.500150 0.654960 0.499970 0.954089
Zn2   Zn    Zn3+2 0.500150 0.345040 0.499970 0.937640
C45   C     C_2   0.626343 0.344882 0.708969 0.461286
H25   H     H_    0.679058 0.363387 0.670716 0.074929
O13   O     O_2   0.663020 0.259298 0.744362 -0.518229
C46   C     C_2   0.124048 0.702893 0.577195 0.390381
H26   H     H_    0.102699 0.652818 0.617670 0.073358
O14   O     O_2   0.181629 0.808228 0.579988 -0.595839
C47   C     C_2   0.156451 0.389780 0.605638 0.412772
H27   H     H_    0.228982 0.460603 0.615156 0.043335
O15   O     O_2   0.138424 0.300081 0.640930 -0.504028
C48   C     C_1   0.877062 0.726501 0.562181 0.166593
N5    N     N_1   0.839675 0.785650 0.602077 -0.150310
C49   C     C_1   0.903217 0.449199 0.611940 0.173862
N6    N     N_1   0.877123 0.486853 0.658272 -0.170982
C50   C     C_1   0.896216 0.737594 0.459485 0.163501
N7    N     N_1   0.871392 0.802966 0.418579 -0.229089
C51   C     C_1   0.902201 0.259287 0.545610 0.243035
N8    N     N_1   0.882127 0.144926 0.538876 -0.202701
C52   C     C_1   0.347449 0.154464 0.415186 0.240327
N9    N     N_1   0.316787 0.208812 0.372066 -0.189758
C53   C     C_1   0.403356 0.880542 0.399104 0.197281
N10   N     N_1   0.410761 0.853089 0.349815 -0.170377
C54   C     C_1   0.616214 0.122955 0.592657 0.239881
N11   N     N_1   0.705005 0.146323 0.619912 -0.155008
C55   C     C_1   0.556970 0.860680 0.607685 0.279712
N12   N     N_1   0.611196 0.814914 0.647737 -0.137778
C56   C     C_1   0.392261 0.907004 0.947400 0.286526
N13   N     N_1   0.413853 0.011642 0.927612 -0.140848

loop_
_geom_bond_atom_site_label_1
_geom_bond_atom_site_label_2
_ccdc_geom_bond_type
C33   H11   S    
C45   H25   S    
C21   C45   S    
C34   H12   S    
C47   H27   S    
O4    Zn2   S    
C33   C52   S    
C41   C42   A    
C19   C20   A    
N4    Zn1   S    
C19   H2    S    
C7    C8    A    
C13   H21   S    
C25   C46   S    
C37   C38   S    
C18   C24   A    
C1    O2    A    
C1    C30   S    
C29   C32   S    
C36   H14   S    
C8    C56   S    
C5    C6    A    
C3    H10   S    
C53   N10   T    
C18   H24   S    
C15   C16   A    
C54   N11   T    
C18   C19   A    
C55   N12   T    
C32   H8    S    
O8    Zn2   S    
O3    Zn1   S    
C35   C36   S    
C16   C17   A    
C38   C55   S    
O6    Zn2   S    
C26   C47   S    
C22   H3    S    
C5    C43   A    
C35   N3    S    
C17   N2    S    
C47   O15   D    
C21   C22   A    
C27   C48   S    
C36   H18   S    
C52   N9    T    
C24   N1    S    
C29   H6    S    
C2    H1    S    
C38   N4    S    
C27   C50   S    
C40   N1    A    
C27   C31   S    
C34   C53   S    
C9    N2    A    
C37   C54   S    
C11   H20   S    
C26   H5    S    
C20   C39   S    
C15   H22   S    
O2    Zn2   S    
C23   C31   S    
C43   C44   A    
C29   C30   S    
N3    Zn2   S    
C46   O14   D    
C31   C32   S    
O1    Zn1   S    
C48   N5    T    
C33   C34   S    
C35   H17   S    
C16   H23   S    
C23   O5    A    
C25   H4    S    
C7    H19   S    
C37   H15   S    
C9    O11   S    
C38   H16   S    
C10   N2    A    
C12   C14   S    
C26   C30   S    
C37   N3    S    
C22   C24   A    
C42   C43   A    
C3    C4    A    
C34   N4    S    
C32   H9    S    
O7    Zn1   S    
C41   N1    A    
C29   H7    S    
C28   C49   S    
C25   C30   S    
C11   C17   A    
C40   O9    S    
C28   C31   S    
C8    C44   A    
C4    C5    A    
C6    C10   A    
C6    C7    A    
C25   C27   S    
C26   C28   S    
C35   H13   S    
C1    O1    A    
C39   O8    A    
C12   O4    A    
C2    C3    A    
C11   C13   A    
C46   H26   S    
C2    C42   A    
C41   O10   S    
C10   O12   S    
C50   N7    T    
C56   N13   T    
C23   O6    A    
C51   N8    T    
C33   N3    S    
O5    Zn1   S    
C28   C51   S    
C40   C44   A    
C20   C21   A    
C49   N6    T    
C12   O3    A    
C45   O13   D    
C14   C15   A    
C4    C9    A    
C13   C14   A    
C36   N4    S    
C39   O7    A    
