data_mof_unit_40146.cif
_audit_creation_date              2012-12-10T18:18:27-0500
_audit_creation_method            fapswitch 2.2
_symmetry_space_group_name_H-M    P1
_symmetry_Int_Tables_number       1
_space_group_crystal_system       triclinic
_cell_length_a                    14.219843
_cell_length_b                    14.924228
_cell_length_c                    15.436964
_cell_angle_alpha                 86.508932
_cell_angle_beta                  68.029056
_cell_angle_gamma                 87.026938
_cell_volume                      3030.97391877

loop_
_atom_site_label
_atom_site_type_symbol
_atom_type_description
_atom_site_fract_x
_atom_site_fract_y
_atom_site_fract_z
_atom_type_partial_charge
Br1   Br    Br    0.158721 0.529430 0.147179 -0.446070
Br2   Br    Br    0.603267 0.747946 0.303105 -0.407252
Br3   Br    Br    0.642449 0.263910 0.313253 -0.510674
Br4   Br    Br    0.340450 0.745971 0.679693 -0.501071
Br5   Br    Br    0.599173 0.103187 0.211472 -0.405742
Br6   Br    Br    0.420411 0.881485 0.786966 -0.369598
Br7   Br    Br    0.733288 0.920008 0.231222 -0.389467
Br8   Br    Br    0.311586 0.080805 0.786098 -0.377943
Br9   Br    Br    0.822053 0.593274 0.865546 -0.478332
Br10  Br    Br    0.253074 0.691815 0.465027 -0.318257
Br11  Br    Br    0.713512 0.324346 0.588061 -0.286992
Br12  Br    Br    0.170062 0.712260 0.297799 -0.359673
Br13  Br    Br    0.819840 0.321948 0.736257 -0.457722
Br14  Br    Br    0.432402 0.639848 0.241301 -0.282341
Br15  Br    Br    0.561888 0.408847 0.798721 -0.409173
Br16  Br    Br    0.437210 0.251914 0.698675 -0.331142
C1    C     C_R   0.498194 0.672706 0.499847 0.986363
C2    C     C_R   0.496723 0.768456 0.498187 -0.170182
C3    C     C_R   0.554017 0.190608 0.417536 0.203183
C4    C     C_R   0.446542 0.810628 0.581659 0.205960
C5    C     C_R   0.551193 0.097210 0.415954 -0.047593
C6    C     C_R   0.461556 0.901773 0.585884 -0.045859
C7    C     C_R   0.508511 0.046648 0.502281 -0.065360
C8    C     C_R   0.510301 0.952324 0.501333 -0.062921
C9    C     C_R   0.460850 0.090111 0.588773 -0.060498
C10   C     C_R   0.562637 0.908399 0.416209 -0.059347
C11   C     C_R   0.593590 0.052090 0.331602 0.284368
C12   C     C_R   0.501828 0.327414 0.500872 0.995964
C13   C     C_R   0.426267 0.944334 0.671413 0.275846
C14   C     C_R   0.614804 0.960628 0.334278 0.292704
C15   C     C_R   0.413937 0.037259 0.672391 0.264502
C16   C     C_R   0.436240 0.500588 0.676168 0.972728
C17   C     C_R   0.563035 0.502687 0.323951 0.968306
C18   C     C_R   0.186680 0.430523 0.543516 0.501434
C19   C     C_R   0.817555 0.562198 0.445064 0.479736
C20   C     C_R   0.211402 0.572284 0.461030 0.357235
C21   C     C_R   0.781866 0.435785 0.552763 0.309087
C22   C     C_R   0.117153 0.568018 0.448755 -0.109725
C23   C     C_R   0.372881 0.525580 0.103374 0.470732
C24   C     C_R   0.878057 0.439908 0.561831 -0.123909
C25   C     C_R   0.049430 0.501930 0.501362 -0.013690
C26   C     C_R   0.947676 0.502584 0.503968 -0.002976
C27   C     C_R   0.082503 0.436569 0.553733 -0.125631
C28   C     C_R   0.915967 0.566220 0.448808 -0.124768
C29   C     C_R   0.083492 0.631931 0.393396 0.370617
C30   C     C_R   0.909236 0.383771 0.625235 0.335451
C31   C     C_R   0.983745 0.632193 0.397173 -0.201635
C32   C     C_R   0.010362 0.380798 0.618076 -0.197123
C33   C     C_R   0.395720 0.513790 0.777052 -0.140765
C34   C     C_R   0.608840 0.575833 0.895926 0.478745
C35   C     C_R   0.599148 0.511150 0.221864 -0.216552
C36   C     C_R   0.260123 0.562515 0.918936 0.571304
C37   C     C_R   0.726333 0.487857 0.067380 0.552831
C38   C     C_R   0.295386 0.544346 0.823500 -0.267346
C39   C     C_R   0.695029 0.478349 0.164913 -0.343559
C40   C     C_R   0.461239 0.505645 0.825593 0.207474
C41   C     C_R   0.532339 0.547773 0.180576 0.354253
C42   C     C_R   0.433671 0.544135 0.911866 -0.040226
C43   C     C_R   0.553731 0.535754 0.086311 -0.077665
C44   C     C_R   0.328883 0.553695 0.966246 -0.145726
C45   C     C_R   0.298398 0.543208 0.064434 0.248425
C46   C     C_R   0.656414 0.523555 0.027153 -0.141853
C47   C     C_R   0.506897 0.553693 0.951420 -0.044591
C48   C     C_R   0.477110 0.540978 0.048596 -0.114948
C49   C     C_3   0.223141 0.278701 0.540762 0.035706
C50   C     C_3   0.205444 0.198803 0.611097 -0.313083
C51   C     C_3   0.221569 0.109815 0.562895 -0.878520
C52   C     C_3   0.838302 0.595863 0.291490 0.101831
C53   C     C_3   0.872104 0.679332 0.225579 -0.350306
C54   C     C_3   0.869750 0.665418 0.129258 -0.760044
C55   C     C_3   0.136838 0.673553 0.939185 0.086081
C56   C     C_R   0.685079 0.555257 0.933062 0.211168
C57   C     C_3   0.158977 0.741401 0.999272 -0.362305
C58   C     C_3   0.129219 0.836903 0.976062 -0.769718
C59   C     C_3   0.823528 0.379222 0.971229 0.124621
C60   C     C_3   0.821235 0.297947 0.037587 -0.409496
C61   C     C_3   0.831022 0.210002 0.988980 -0.732614
C62   C     C_3   0.360280 0.393306 0.187287 0.118742
C63   C     C_3   0.310498 0.348142 0.284339 -0.353429
C64   C     C_3   0.327143 0.246299 0.280616 -0.874687
C65   C     C_3   0.680078 0.609959 0.735517 0.134448
C66   C     C_3   0.720221 0.689618 0.666128 -0.357712
C67   C     C_R   0.465164 0.184170 0.587670 0.218588
C68   C     C_3   0.808135 0.733648 0.679116 -0.666749
C69   C     C_R   0.555594 0.814811 0.415886 0.252954
C70   C     C_R   0.506481 0.231841 0.502049 -0.200806
H1    H     H_    0.960024 0.684651 0.357968 0.192554
H2    H     H_    0.211215 0.053189 0.615399 0.290618
H3    H     H_    0.299497 0.104307 0.509196 0.259334
H4    H     H_    0.783562 0.560436 0.272292 0.197229
H5    H     H_    0.905570 0.549085 0.278795 0.141828
H6    H     H_    0.822406 0.738128 0.256054 0.300312
H7    H     H_    0.950766 0.695274 0.216233 0.216324
H8    H     H_    0.918447 0.606248 0.097585 0.288109
H9    H     H_    0.898193 0.725940 0.083039 0.264522
H10   H     H_    0.790884 0.655108 0.134837 0.290534
H11   H     H_    0.054846 0.678710 0.951071 0.192298
H12   H     H_    0.031344 0.337337 0.667018 0.193408
H13   H     H_    0.177557 0.691216 0.863572 0.176682
H14   H     H_    0.115816 0.724349 0.074405 0.263457
H15   H     H_    0.241222 0.738332 0.986903 0.257731
H16   H     H_    0.172283 0.855787 0.901351 0.300194
H17   H     H_    0.146899 0.884435 0.020065 0.290307
H18   H     H_    0.046624 0.842489 0.990254 0.254876
H19   H     H_    0.894679 0.374797 0.908442 0.212814
H20   H     H_    0.759948 0.376986 0.945762 0.166556
H21   H     H_    0.884536 0.301204 0.062903 0.261509
H22   H     H_    0.748476 0.299035 0.098814 0.265788
H23   H     H_    0.746432 0.447100 0.195541 0.202444
H24   H     H_    0.767251 0.204777 0.964691 0.290004
H25   H     H_    0.828916 0.152527 0.038795 0.297734
H26   H     H_    0.904044 0.206194 0.928137 0.258352
H27   H     H_    0.443190 0.376622 0.160884 0.149721
H28   H     H_    0.326898 0.365740 0.139883 0.163103
H29   H     H_    0.343202 0.373781 0.332770 0.237671
H30   H     H_    0.227691 0.364697 0.311685 0.240133
H31   H     H_    0.299909 0.219773 0.228766 0.288860
H32   H     H_    0.284395 0.213821 0.349861 0.248560
H33   H     H_    0.408990 0.228429 0.261155 0.303465
H34   H     H_    0.243368 0.551406 0.786950 0.202257
H35   H     H_    0.628809 0.575795 0.710712 0.161901
H36   H     H_    0.743213 0.561853 0.733282 0.170537
H37   H     H_    0.746599 0.666291 0.593894 0.183849
H38   H     H_    0.657746 0.740338 0.674106 0.260920
H39   H     H_    0.872735 0.684635 0.667564 0.259089
H40   H     H_    0.783682 0.759467 0.750441 0.308913
H41   H     H_    0.834103 0.790872 0.627365 0.240432
H42   H     H_    0.298435 0.269440 0.484235 0.179712
H43   H     H_    0.165424 0.277544 0.507942 0.129037
H44   H     H_    0.258233 0.201098 0.648369 0.275350
H45   H     H_    0.126900 0.202800 0.663842 0.233143
H46   H     H_    0.165793 0.104696 0.528872 0.277000
N1    N     N_R   0.249980 0.499930 0.499960 -0.177136
N2    N     N_R   0.750020 0.500070 0.500040 -0.184658
O1    O     O_R   0.419720 0.632140 0.499980 -0.542236
O2    O     O_3   0.789319 0.621351 0.385670 -0.605134
O3    O     O_3   0.158529 0.584631 0.965463 -0.596021
O4    O     O_3   0.824452 0.460411 0.013891 -0.601990
O5    O     O_3   0.343058 0.487265 0.193218 -0.591422
O6    O     O_3   0.624335 0.642245 0.825171 -0.583425
O7    O     O_R   0.580280 0.367860 0.500020 -0.538598
O8    O     O_R   0.580270 0.632160 0.499970 -0.598272
O9    O     O_R   0.419730 0.367840 0.500030 -0.613536
O10   O     O_R   0.373870 0.499980 0.632250 -0.584577
O11   O     O_R   0.626130 0.500020 0.367750 -0.606310
O12   O     O_R   0.534420 0.500000 0.632240 -0.607237
O13   O     O_R   0.465580 0.500000 0.367760 -0.593503
O14   O     O_3   0.221514 0.359187 0.586186 -0.591881
Zn1   Zn    Zn3+2 0.392800 0.499980 0.500010 1.065681
Zn2   Zn    Zn3+2 0.607200 0.500020 0.499990 1.045056

loop_
_geom_bond_atom_site_label_1
_geom_bond_atom_site_label_2
_ccdc_geom_bond_type
C9    C15   A    
C57   H14   S    
C6    C13   A    
C38   H34   S    
C65   O6    S    
C25   C26   A    
C51   H46   S    
Br9   C56   S    
C3    C70   A    
C62   O5    S    
C65   C66   S    
C55   O3    S    
C24   C30   A    
C23   C48   A    
C55   H11   S    
C51   H2    S    
C3    C5    A    
C8    C10   A    
C21   C24   A    
C53   H7    S    
Br13  C30   S    
C34   O6    S    
C41   C43   A    
C16   O12   A    
C42   C44   A    
C33   C38   A    
N2    Zn2   S    
C51   H3    S    
C52   H5    S    
Br2   C69   S    
Br11  C21   S    
C57   C58   S    
C29   C31   A    
C61   H25   S    
C34   C56   A    
C22   C29   A    
C36   C44   A    
O12   Zn2   S    
C18   O14   S    
C52   C53   S    
C1    O1    A    
C52   H4    S    
C7    C8    A    
Br3   C3    S    
C35   C41   A    
C53   H6    S    
C17   O13   A    
C27   C32   A    
C2    C4    A    
O11   Zn2   S    
C28   C31   A    
C58   H16   S    
C68   H41   S    
C57   H15   S    
C50   C51   S    
C5    C11   A    
C64   H33   S    
C60   H22   S    
Br7   C14   S    
Br5   C11   S    
C63   H30   S    
C39   H23   S    
C11   C14   A    
C34   C47   A    
C25   C27   A    
C62   H28   S    
C26   C28   A    
C19   N2    A    
C66   H38   S    
C36   C38   A    
O7    Zn2   S    
C36   O3    S    
C30   C32   A    
C37   C39   A    
C68   H40   S    
C23   C45   A    
C64   H32   S    
C2    C69   A    
C37   O4    S    
C49   H42   S    
C52   O2    S    
N1    Zn1   S    
C60   C61   S    
C22   C25   A    
C63   H29   S    
C55   C57   S    
C62   C63   S    
C18   N1    A    
O1    Zn1   S    
C55   H13   S    
Br16  C67   S    
C63   C64   S    
C65   H35   S    
C44   C45   A    
C31   H1    S    
C61   H26   S    
C54   H10   S    
C59   C60   S    
O10   Zn1   S    
C20   N1    A    
C37   C46   A    
Br6   C13   S    
C1    C2    S    
C43   C48   A    
C46   C56   A    
C12   O9    A    
C49   O14   S    
C19   C28   A    
C17   O11   A    
C4    C6    A    
C59   H19   S    
C60   H21   S    
C66   C68   S    
C5    C7    A    
C12   C70   S    
C6    C8    A    
C62   H27   S    
C17   C35   S    
C66   H37   S    
C58   H18   S    
C50   H45   S    
C68   H39   S    
Br14  C41   S    
C64   H31   S    
C43   C46   A    
O13   Zn1   S    
Br8   C15   S    
C18   C27   A    
C42   C47   A    
Br12  C29   S    
C59   O4    S    
Br1   C45   S    
C19   O2    S    
C49   H43   S    
C10   C14   A    
C54   H8    S    
C33   C40   A    
C32   H12   S    
C65   H36   S    
Br15  C40   S    
O8    Zn2   S    
C20   C22   A    
C54   H9    S    
C13   C15   A    
C10   C69   A    
C24   C26   A    
C40   C42   A    
C35   C39   A    
C7    C9    A    
C53   C54   S    
C16   C33   S    
C16   O10   A    
C47   C48   A    
Br4   C4    S    
O9    Zn1   S    
C67   C70   A    
C59   H20   S    
C49   C50   S    
C9    C67   A    
C21   N2    A    
C1    O8    A    
Br10  C20   S    
C12   O7    A    
C61   H24   S    
C23   O5    S    
C58   H17   S    
C50   H44   S    
