data_mof_unit_17035.cif
_audit_creation_date              2012-12-11T15:52:31-0500
_audit_creation_method            fapswitch 2.2
_symmetry_space_group_name_H-M    P1
_symmetry_Int_Tables_number       1
_space_group_crystal_system       triclinic
_cell_length_a                    6.925933
_cell_length_b                    14.547083
_cell_length_c                    16.02079
_cell_angle_alpha                 90.282483
_cell_angle_beta                  90.225114
_cell_angle_gamma                 89.844149
_cell_volume                      1614.090629

loop_
_atom_site_label
_atom_site_type_symbol
_atom_type_description
_atom_site_fract_x
_atom_site_fract_y
_atom_site_fract_z
_atom_type_partial_charge
O1    O     O_R   0.494400 0.415640 0.412830 -0.547557
O2    O     O_R   0.823920 0.405510 0.586560 -0.525144
O3    O     O_R   0.994250 0.584360 0.587170 -0.542779
C1    C     C_R   0.655631 0.381921 0.614433 0.686483
O4    O     O_R   0.824110 0.404610 0.413450 -0.543056
O5    O     O_R   0.994440 0.583460 0.412820 -0.512200
C2    C     C_R   0.654981 0.381993 0.384506 0.691735
O6    O     O_R   0.494210 0.416540 0.587180 -0.536959
O7    O     O_3   0.660810 0.558680 0.500000 -0.362645
V1    V     V_3+5 0.935650 0.489110 0.500000 1.468776
O8    O     O_R   0.324150 0.594490 0.413440 -0.544365
C3    C     C_R   0.154539 0.615487 0.383392 0.701042
O9    O     O_R   0.323970 0.595390 0.586550 -0.546530
C4    C     C_R   0.154798 0.617682 0.615631 0.652116
V2    V     V_3+5 0.435660 0.510890 0.500000 1.424629
O10   O     O_3   0.160630 0.441320 0.500000 -0.362667
C5    C     C_3   0.929188 0.705196 0.712625 -0.305762
H1    H     H_    0.844544 0.731087 0.658353 0.140959
H2    H     H_    0.861467 0.639659 0.732758 0.131948
C6    C     C_3   0.916671 0.775898 0.784662 -0.317210
H3    H     H_    0.843268 0.743831 0.838882 0.134592
H4    H     H_    0.826383 0.835250 0.764445 0.138199
H5    H     H_    0.152424 0.808033 0.604625 0.133983
H6    H     H_    0.133481 0.913323 0.711793 0.136246
C7    C     C_3   0.230510 0.781141 0.660250 -0.319832
C8    C     C_3   0.254181 0.653119 0.764612 -0.323239
C9    C     C_3   0.142718 0.687625 0.686467 0.110743
H7    H     H_    0.408521 0.640982 0.748761 0.135257
H8    H     H_    0.193473 0.586289 0.785305 0.123016
C10   C     C_3   0.121010 0.809670 0.810848 0.111408
C11   C     C_3   0.217711 0.852341 0.732739 -0.312673
C12   C     C_3   0.241413 0.724240 0.837164 -0.319678
H9    H     H_    0.174507 0.691481 0.892566 0.119877
H10   H     H_    0.389811 0.745609 0.855609 0.140532
H11   H     H_    0.384330 0.771661 0.642217 0.141071
H12   H     H_    0.365555 0.876637 0.748821 0.139605
C13   C     C_R   0.959948 0.760181 0.202658 -0.237092
H13   H     H_    0.824955 0.769220 0.169241 0.138405
C14   C     C_R   0.969224 0.693970 0.266047 0.428438
C15   C     C_R   0.141855 0.682087 0.312889 -0.152719
C16   C     C_R   0.304461 0.734338 0.290806 -0.209638
H14   H     H_    0.439443 0.726584 0.324399 0.186299
C17   C     C_R   0.295411 0.797827 0.225468 -0.153743
H15   H     H_    0.423764 0.836703 0.210538 0.138675
C18   C     C_R   0.122405 0.812135 0.181104 -0.111035
C19   C     C_R   0.788374 0.241319 0.690709 0.012133
C20   C     C_R   0.774307 0.177889 0.756171 -0.190871
H16   H     H_    0.882868 0.124396 0.762041 0.119276
C21   C     C_R   0.620481 0.181415 0.812848 -0.066660
C22   C     C_R   0.478484 0.249473 0.802917 -0.144379
H17   H     H_    0.358088 0.253758 0.845717 0.120419
C23   C     C_R   0.492874 0.314272 0.738899 -0.135666
H18   H     H_    0.383165 0.367240 0.734347 0.144662
C24   C     C_R   0.647307 0.311761 0.681988 -0.129333
C25   C     C_R   0.812318 0.274696 0.281043 -0.149394
H19   H     H_    0.953212 0.293380 0.305113 0.115484
C26   C     C_R   0.801319 0.210901 0.215424 -0.148891
H20   H     H_    0.934278 0.182206 0.191177 0.119285
C27   C     C_R   0.621545 0.184356 0.181829 -0.048694
C28   C     C_R   0.453128 0.223721 0.215559 -0.155015
H21   H     H_    0.312235 0.205181 0.191398 0.116344
C29   C     C_R   0.464137 0.287503 0.281192 -0.151945
H22   H     H_    0.331230 0.316355 0.305345 0.116207
C30   C     C_R   0.643861 0.313679 0.315043 -0.042984
O11   O     O_R   0.771300 0.080930 0.910090 -0.538579
O12   O     O_R   0.441270 0.092800 0.083770 -0.544003
O13   O     O_R   0.271080 0.913920 0.084380 -0.540533
C31   C     C_R   0.610386 0.115420 0.112804 0.687933
O14   O     O_R   0.441580 0.091910 0.910670 -0.541871
O15   O     O_R   0.271390 0.913020 0.910040 -0.540347
C32   C     C_R   0.610096 0.113892 0.881761 0.694768
O16   O     O_R   0.770990 0.081830 0.084440 -0.539775
O17   O     O_3   0.604750 0.938760 0.997250 -0.370873
V3    V     V_3+5 0.329850 0.008280 0.997210 1.396650
O18   O     O_R   0.941680 0.901940 0.910610 -0.545749
C33   C     C_R   0.110464 0.879643 0.881610 0.653019
O19   O     O_R   0.941370 0.902830 0.083720 -0.543113
C34   C     C_R   0.110858 0.880741 0.112701 0.712390
V4    V     V_3+5 0.829860 0.986420 0.997150 1.392515
O20   O     O_3   0.104830 0.056030 0.997180 -0.367214
O21   O     O_3   0.805308 0.643412 0.282800 -0.551602
C35   C     C_3   0.796193 0.567685 0.227142 0.097889
H23   H     H_    0.878022 0.508948 0.254066 0.117643
H24   H     H_    0.855565 0.582684 0.163934 0.093856
C36   C     C_3   0.586463 0.539497 0.215310 -0.731475
H25   H     H_    0.505661 0.594955 0.182889 0.215786
H26   H     H_    0.578615 0.475718 0.177080 0.176043
H27   H     H_    0.518156 0.526791 0.276604 0.230752
C37   C     C_2   0.946620 0.228149 0.630499 0.740037
O22   O     O_2   0.937781 0.165554 0.579461 -0.565193
O23   O     O_R   0.108434 0.285091 0.633891 -0.655534
H28   H     H_    0.208231 0.268229 0.590248 0.299091

loop_
_geom_bond_atom_site_label_1
_geom_bond_atom_site_label_2
_ccdc_geom_bond_type
C7    C11   S    
O12   C31   A    
C25   H19   S    
C8    C12   S    
O11   V4    S    
C16   H14   S    
C1    O6    A    
O21   C35   S    
C20   C21   A    
C19   C37   S    
C6    C10   S    
O19   C34   A    
C8    C9    S    
C13   H13   S    
O16   V4    S    
O5    C3    A    
C10   C11   S    
C26   C27   A    
V2    O10   S    
O12   V3    S    
C5    C6    S    
C28   C29   A    
O17   V3    S    
O14   C32   A    
C29   C30   A    
O8    V2    S    
O15   V3    S    
C22   C23   A    
C18   C34   S    
O1    V2    S    
C4    C9    S    
C37   O23   S    
O7    V1    S    
C36   H26   S    
C27   C28   A    
V3    O20   S    
O9    C4    A    
C16   C17   A    
O13   C34   A    
C23   C24   A    
C22   H17   S    
O19   V4    S    
C5    C9    S    
C14   O21   S    
O23   H28   S    
O4    C2    A    
C36   H25   S    
C28   H21   S    
C12   H10   S    
C3    C15   S    
O2    C1    A    
O18   C33   A    
C29   H22   S    
C27   C31   S    
C10   C33   S    
C20   H16   S    
C31   O16   A    
C25   C30   A    
C19   C24   A    
C5    H1    S    
O17   V4    S    
O14   V3    S    
O13   V3    S    
C17   C18   A    
O3    C4    A    
C7    H11   S    
C15   C16   A    
C6    H4    S    
C21   C22   A    
O6    V2    S    
C35   H24   S    
O9    V2    S    
C17   H15   S    
O15   C33   A    
C13   C18   A    
O2    V1    S    
C14   C15   A    
C23   H18   S    
C36   H27   S    
C19   C20   A    
C1    C24   S    
O1    C2    A    
O5    V1    S    
O8    C3    A    
C7    C9    S    
C35   C36   S    
C8    H7    S    
C12   H9    S    
C25   C26   A    
O7    V2    S    
H6    C11   S    
O4    V1    S    
C13   C14   A    
O3    V1    S    
O11   C32   A    
C10   C12   S    
C26   H20   S    
C5    H2    S    
H5    C7    S    
C2    C30   S    
V4    O20   S    
C6    H3    S    
C8    H8    S    
C35   H23   S    
C21   C32   S    
C11   H12   S    
V1    O10   S    
C37   O22   D    
O18   V4    S    
