data_mof_unit_45738.cif
_audit_creation_date              2012-12-10T18:39:03-0500
_audit_creation_method            fapswitch 2.2
_symmetry_space_group_name_H-M    P1
_symmetry_Int_Tables_number       1
_space_group_crystal_system       triclinic
_cell_length_a                    10.949017
_cell_length_b                    11.558341
_cell_length_c                    10.683619
_cell_angle_alpha                 89.599675
_cell_angle_beta                  89.566935
_cell_angle_gamma                 90.187147
_cell_volume                      1351.95932621

loop_
_atom_site_label
_atom_site_type_symbol
_atom_type_description
_atom_site_fract_x
_atom_site_fract_y
_atom_site_fract_z
_atom_type_partial_charge
C1    C     C_R   0.499798 0.280954 0.500357 0.869269
C2    C     C_R   0.496241 0.718957 0.499803 0.965959
C3    C     C_1   0.497537 0.160949 0.500926 -0.171256
C4    C     C_3   0.076635 0.569651 0.629176 0.302866
C5    C     C_3   0.071999 0.371287 0.501235 0.313845
C6    C     C_3   0.930329 0.591701 0.621163 0.237395
C7    C     C_3   0.924408 0.381465 0.500292 0.256322
C8    C     C_1   0.495531 0.059084 0.500581 0.017776
C9    C     C_3   0.075079 0.574431 0.357911 0.393634
C10   C     C_3   0.923893 0.592550 0.360872 0.429542
C11   C     C_3   0.162331 0.679796 0.655415 -0.708743
C12   C     C_3   0.120581 0.504916 0.495709 -0.287290
C13   C     C_3   0.129069 0.291514 0.395614 -0.750681
C14   C     C_3   0.906403 0.723349 0.620932 -0.745688
C15   C     C_3   0.871785 0.306944 0.392130 -0.738703
C16   C     C_3   0.101653 0.503137 0.757783 -0.726364
C17   C     C_3   0.125027 0.294532 0.614080 -0.812702
C18   C     C_3   0.857240 0.566489 0.749730 -0.707877
C19   C     C_3   0.866920 0.311135 0.613458 -0.786038
C20   C     C_3   0.878878 0.521557 0.494410 -0.305519
C21   C     C_1   0.494328 0.838997 0.499452 -0.099585
C22   C     C_1   0.494120 0.940859 0.499812 0.022051
C23   C     C_R   0.256607 0.499961 0.499022 0.944262
C24   C     C_R   0.742164 0.516560 0.498837 0.998242
C25   C     C_1   0.499613 0.499711 0.069442 0.146909
C26   C     C_1   0.499745 0.499829 0.930485 0.019587
H1    H     H_    0.234983 0.663324 0.725786 0.229933
H2    H     H_    0.889896 0.212989 0.405050 0.225300
H3    H     H_    0.771421 0.312850 0.383134 0.257923
H4    H     H_    0.916513 0.324611 0.304269 0.295853
H5    H     H_    0.031208 0.442828 0.789940 0.221279
H6    H     H_    0.190751 0.459852 0.765999 0.255093
H7    H     H_    0.101755 0.563744 0.838406 0.258262
H8    H     H_    0.225486 0.303385 0.622474 0.237282
H9    H     H_    0.086742 0.297961 0.707643 0.226109
H10   H     H_    0.108925 0.200239 0.601485 0.228775
H11   H     H_    0.831739 0.478075 0.773700 0.238656
H12   H     H_    0.224045 0.701120 0.578211 0.253757
H13   H     H_    0.905547 0.601584 0.832186 0.251583
H14   H     H_    0.768550 0.613293 0.756144 0.242260
H15   H     H_    0.899663 0.332738 0.705671 0.220383
H16   H     H_    0.765866 0.311897 0.614807 0.248452
H17   H     H_    0.890540 0.217737 0.608428 0.233666
H18   H     H_    0.204608 0.883189 0.409278 0.381242
H19   H     H_    0.262602 0.386927 0.120602 0.359313
H20   H     H_    0.801090 0.857058 0.191093 0.375759
H21   H     H_    0.696775 0.646323 0.110292 0.354836
H22   H     H_    0.119452 0.756930 0.696960 0.232005
H23   H     H_    0.230472 0.292338 0.397106 0.248432
H24   H     H_    0.102153 0.302052 0.300684 0.287840
H25   H     H_    0.102030 0.199135 0.406697 0.216259
H26   H     H_    0.811783 0.744950 0.595094 0.267010
H27   H     H_    0.917541 0.764705 0.714206 0.214074
H28   H     H_    0.976348 0.767278 0.568866 0.317057
N1    N     N_1   0.500000 0.500010 0.180630 0.014504
N2    N     N_1   0.500000 0.500010 0.819370 -0.087618
O1    O     O_R   0.500000 0.334450 0.602530 -0.621012
O2    O     O_2   0.101918 0.774484 0.216403 -0.144819
O3    O     O_3   0.150265 0.820656 0.440975 -0.601090
O4    O     O_2   0.036851 0.416942 0.149609 -0.310043
O5    O     O_2   0.149688 0.588800 0.102993 -0.195712
O6    O     O_3   0.256941 0.422620 0.204519 -0.555450
O7    O     O_2   0.738423 0.754726 0.393031 -0.360857
O8    O     O_2   0.932462 0.851785 0.399593 -0.256968
O9    O     O_3   0.861129 0.793118 0.193500 -0.428351
O10   O     O_2   0.910710 0.595306 0.096049 -0.204324
O11   O     O_2   0.804344 0.429864 0.183938 -0.305488
O12   O     O_R   0.500000 0.334450 0.397470 -0.609419
O13   O     O_3   0.705600 0.622796 0.199149 -0.471125
O14   O     O_R   0.314800 0.499980 0.602530 -0.653910
O15   O     O_R   0.314800 0.499980 0.397470 -0.511643
O16   O     O_R   0.685200 0.499980 0.602530 -0.645145
O17   O     O_R   0.685200 0.499980 0.397470 -0.538158
O18   O     O_R   0.500000 0.665550 0.602530 -0.654793
O19   O     O_R   0.500000 0.665550 0.397470 -0.521678
O20   O     O_2   0.286156 0.697992 0.300233 -0.279404
S1    S     S_3+6 0.154259 0.717706 0.330916 0.081839
S2    S     S_3+6 0.127173 0.499858 0.204025 0.084831
S3    S     S_3+6 0.867248 0.750304 0.344954 0.095513
S4    S     S_3+6 0.840221 0.552491 0.208683 0.135571
Zn1   Zn    Zn3+2 0.500000 0.500000 0.636920 0.950415
Zn2   Zn    Zn3+2 0.500000 0.500000 0.363080 1.138730

loop_
_geom_bond_atom_site_label_1
_geom_bond_atom_site_label_2
_ccdc_geom_bond_type
O9    S3    S    
O3    S1    S    
N2    Zn1   S    
O7    S3    D    
C16   H5    S    
C12   C23   S    
O4    S2    D    
C18   H11   S    
C24   O17   A    
C5    C17   S    
H18   O3    S    
H19   O6    S    
C1    O12   A    
O14   Zn1   S    
C18   H14   S    
H21   O13   S    
O2    S1    D    
C13   H25   S    
C14   H26   S    
C20   C24   S    
C10   C20   S    
C8    C22   S    
C17   H10   S    
C4    C12   S    
C9    C10   S    
C5    C13   S    
O16   Zn1   S    
C2    O18   A    
C19   H16   S    
O15   Zn2   S    
C7    C15   S    
C21   C22   T    
N1    Zn2   S    
C23   O14   A    
C11   H22   S    
C19   H17   S    
C15   H3    S    
C6    C18   S    
C23   O15   A    
O20   S1    D    
C5    C12   S    
C4    C6    S    
C3    C8    T    
C5    C7    S    
C10   S4    S    
C25   C26   S    
C1    C3    S    
C4    C16   S    
C11   H12   S    
C18   H13   S    
C1    O1    A    
C16   H7    S    
C6    C14   S    
C11   H1    S    
O5    S2    D    
C2    C21   S    
C9    S1    S    
C4    C11   S    
H20   O9    S    
C13   H23   S    
C14   H28   S    
C7    C19   S    
O8    S3    D    
O1    Zn1   S    
C17   H8    S    
O18   Zn1   S    
O17   Zn2   S    
C6    C20   S    
C24   O16   A    
C15   H4    S    
O6    S2    S    
O11   S4    D    
C25   N1    T    
C26   N2    T    
C10   S3    S    
O19   Zn2   S    
C16   H6    S    
O10   S4    D    
O12   Zn2   S    
C15   H2    S    
C9    S2    S    
C9    C12   S    
C13   H24   S    
C14   H27   S    
C7    C20   S    
O13   S4    S    
C17   H9    S    
C2    O19   A    
C19   H15   S    
