data_mof_unit_19391.cif
_audit_creation_date              2012-10-26T19:19:38-0400
_audit_creation_method            fapswitch 2.2
_symmetry_space_group_name_H-M    P1
_symmetry_Int_Tables_number       1
_space_group_crystal_system       triclinic
_cell_length_a                    15.881881
_cell_length_b                    10.921337
_cell_length_c                    9.709396
_cell_angle_alpha                 90.00748
_cell_angle_beta                  89.405979
_cell_angle_gamma                 90.053711
_cell_volume                      1684.0168209

loop_
_atom_site_label
_atom_site_type_symbol
_atom_type_description
_atom_site_fract_x
_atom_site_fract_y
_atom_site_fract_z
_atom_type_partial_charge
C1    C     C_R   0.501246 0.265398 0.500017 0.553534
C2    C     C_2   0.494906 0.866676 0.502239 -0.119357
C3    C     C_2   0.499467 0.066994 0.386726 -0.165813
C4    C     C_R   0.340328 0.499881 0.500641 0.550320
C5    C     C_2   0.506007 0.133401 0.502151 -0.118522
C6    C     C_2   0.452158 0.428360 0.922532 -0.034326
C7    C     C_2   0.443737 0.443940 0.076585 -0.025903
C8    C     C_R   0.499102 0.734624 0.500089 0.553965
C9    C     C_R   0.659663 0.500026 0.499098 0.554814
C10   C     C_3   0.047204 0.426400 0.635535 -0.096818
C11   C     C_3   0.048982 0.418363 0.369609 -0.080015
C12   C     C_3   0.947914 0.422179 0.628537 -0.079579
C13   C     C_3   0.951049 0.427527 0.364117 -0.207464
C14   C     C_1   0.749146 0.498081 0.496514 -0.024008
C15   C     C_3   0.083145 0.487717 0.499845 0.055264
C16   C     C_R   0.905648 0.296608 0.649526 0.040666
C17   C     C_R   0.838577 0.286330 0.745049 -0.102968
C18   C     C_R   0.797207 0.174698 0.765539 -0.108600
C19   C     C_R   0.822279 0.071278 0.691528 -0.104490
C20   C     C_R   0.888548 0.079488 0.596559 -0.113220
C21   C     C_R   0.929726 0.191144 0.575072 -0.072024
C22   C     C_R   0.087838 0.308738 0.690775 0.027432
C23   C     C_3   0.916717 0.490303 0.496353 0.048722
C24   C     C_R   0.145011 0.234966 0.615269 -0.095753
C25   C     C_R   0.179237 0.129443 0.673891 -0.118456
C26   C     C_R   0.157540 0.095720 0.808196 -0.111519
C27   C     C_R   0.101765 0.167761 0.884706 -0.106611
C28   C     C_R   0.067583 0.273508 0.826969 -0.077329
C29   C     C_R   0.584116 0.505425 0.105135 0.198824
C30   C     C_R   0.625097 0.619333 0.100753 -0.077915
C31   C     C_R   0.711104 0.626118 0.069207 -0.132712
C32   C     C_R   0.757176 0.519091 0.045281 -0.114973
C33   C     C_R   0.717236 0.405148 0.052469 -0.129987
C34   C     C_3   0.951944 0.622824 0.498056 -0.245506
C35   C     C_R   0.631059 0.398024 0.082115 -0.051945
C36   C     C_R   0.092646 0.453725 0.233874 0.033033
C37   C     C_R   0.156414 0.377261 0.179883 -0.098714
C38   C     C_R   0.197899 0.406889 0.056633 -0.100293
C39   C     C_R   0.176131 0.512658 0.984812 -0.103054
C40   C     C_R   0.113047 0.589336 0.036483 -0.128690
C41   C     C_R   0.071723 0.560702 0.160280 -0.098695
C42   C     C_3   0.049336 0.621487 0.498453 -0.235354
C43   C     C_1   0.824573 0.495249 0.494755 -0.063919
C44   C     C_1   0.175415 0.493341 0.501315 -0.066762
C45   C     C_1   0.250840 0.497165 0.501676 -0.035515
C46   C     C_2   0.503372 0.932981 0.386821 -0.163550
Cu1   Cu    Cu3+1 0.500020 0.500020 0.638630 0.932388
Cu2   Cu    Cu3+1 0.499980 0.499980 0.361370 0.938622
H1    H     H_    0.062429 0.493639 0.718286 0.100023
H2    H     H_    0.387539 0.407318 0.125698 0.126966
H3    H     H_    0.062156 0.320053 0.384257 0.089069
H4    H     H_    0.922878 0.335193 0.351496 0.106320
H5    H     H_    0.929574 0.479503 0.272690 0.113824
H6    H     H_    0.071743 0.672055 0.590722 0.104813
H7    H     H_    0.074589 0.672987 0.408612 0.127082
H8    H     H_    0.928226 0.672484 0.590775 0.110300
H9    H     H_    0.817344 0.365519 0.802500 0.102071
H10   H     H_    0.745433 0.168473 0.838560 0.101906
H11   H     H_    0.790295 0.984818 0.707629 0.103148
H12   H     H_    0.926049 0.479852 0.716783 0.084958
H13   H     H_    0.908124 0.999133 0.539371 0.096260
H14   H     H_    0.981021 0.193328 0.501903 0.097167
H15   H     H_    0.164453 0.256761 0.511625 0.095661
H16   H     H_    0.222891 0.073706 0.614883 0.104762
H17   H     H_    0.184187 0.013954 0.853122 0.101722
H18   H     H_    0.085252 0.142102 0.989227 0.099894
H19   H     H_    0.024767 0.328405 0.888767 0.105999
H20   H     H_    0.590349 0.702442 0.122704 0.100991
H21   H     H_    0.742285 0.714227 0.065282 0.099869
H22   H     H_    0.823970 0.524342 0.022625 0.096339
H23   H     H_    0.929736 0.674383 0.406466 0.113242
H24   H     H_    0.753300 0.322206 0.037103 0.095550
H25   H     H_    0.601209 0.309136 0.090778 0.096747
H26   H     H_    0.174525 0.294637 0.233594 0.083284
H27   H     H_    0.246472 0.347076 0.016079 0.099334
H28   H     H_    0.207838 0.534823 0.888757 0.117267
H29   H     H_    0.096003 0.671137 0.980389 0.095967
H30   H     H_    0.023025 0.621985 0.196864 0.090538
H31   H     H_    0.512066 0.888181 0.287778 0.141823
H32   H     H_    0.482848 0.907802 0.601857 0.097105
H33   H     H_    0.492193 0.111685 0.287591 0.141704
H34   H     H_    0.516928 0.092394 0.601787 0.098584
H35   H     H_    0.414962 0.357828 0.873251 0.133825
H36   H     H_    0.520873 0.577978 0.890768 0.220982
N1    N     N_2   0.499090 0.498660 0.846910 -0.343990
N2    N     N_2   0.499070 0.498630 0.153040 -0.261413
O1    O     O_R   0.500010 0.321960 0.617040 -0.496177
O2    O     O_R   0.499990 0.321920 0.382900 -0.504582
O3    O     O_R   0.379450 0.500030 0.617120 -0.494130
O4    O     O_R   0.379420 0.499980 0.382980 -0.494332
O5    O     O_R   0.500010 0.678080 0.617100 -0.503889
O6    O     O_R   0.499990 0.678040 0.382960 -0.497874
O7    O     O_R   0.620580 0.500020 0.617020 -0.485134
O8    O     O_R   0.620550 0.499970 0.382880 -0.490799

loop_
_geom_bond_atom_site_label_1
_geom_bond_atom_site_label_2
_ccdc_geom_bond_type
C1    O1    A    
C37   H26   S    
C34   H8    S    
C16   C21   A    
C19   C20   A    
C34   C42   S    
C10   C22   S    
C12   C23   S    
C26   C27   A    
C37   C38   A    
C6    N1    D    
Cu2   O8    S    
C1    C5    S    
Cu1   N1    S    
C11   C36   S    
C15   C44   S    
C10   C15   S    
C30   C31   A    
C7    N2    D    
C23   C43   S    
C13   C23   S    
C18   C19   A    
C20   H13   S    
C33   H24   S    
C11   C15   S    
C18   H10   S    
C35   H25   S    
C46   H31   S    
C31   C32   A    
C16   C17   A    
C3    H33   S    
Cu2   O2    S    
C8    O6    A    
C4    O4    A    
C38   H27   S    
C1    O2    A    
C22   C28   A    
Cu1   O3    S    
C36   C41   A    
C13   H5    S    
C4    C45   S    
C12   C16   S    
C28   H19   S    
C2    H32   S    
C24   C25   A    
C15   C42   S    
C41   H30   S    
C32   H22   S    
C19   H11   S    
C25   C26   A    
C2    C46   D    
C25   H16   S    
Cu1   O1    S    
C9    C14   S    
C29   C30   A    
C42   H7    S    
C13   H4    S    
Cu1   Cu2   S    
C23   C34   S    
C17   C18   A    
Cu1   O7    S    
C8    O5    A    
C39   H28   S    
H36   N1    S    
C29   N2    S    
C10   C12   S    
C40   C41   A    
C24   H15   S    
Cu2   N2    S    
C9    O7    A    
C39   C40   A    
C44   C45   T    
C4    O3    A    
C36   C37   A    
C6    H35   S    
C26   H17   S    
Cu1   O5    S    
C2    C8    S    
C7    H2    S    
C3    C5    D    
C6    C7    S    
C29   C35   A    
C3    C46   S    
C32   C33   A    
C27   H18   S    
C42   H6    S    
C5    H34   S    
C11   C13   S    
C38   C39   A    
C9    O8    A    
C33   C35   A    
C22   C24   A    
C11   H3    S    
C12   H12   S    
C31   H21   S    
C20   C21   A    
Cu2   O6    S    
C27   C28   A    
C40   H29   S    
Cu2   O4    S    
C21   H14   S    
C10   H1    S    
C34   H23   S    
C30   H20   S    
C17   H9    S    
C14   C43   T    
