data_mof_unit_65594.cif
_audit_creation_date              2012-12-10T20:09:58-0500
_audit_creation_method            fapswitch 2.2
_symmetry_space_group_name_H-M    P1
_symmetry_Int_Tables_number       1
_space_group_crystal_system       triclinic
_cell_length_a                    38.76136
_cell_length_b                    32.08537
_cell_length_c                    21.697583
_cell_angle_alpha                 90.00024
_cell_angle_beta                  124.176908
_cell_angle_gamma                 90.023072
_cell_volume                      22324.6205998

loop_
_atom_site_label
_atom_site_type_symbol
_atom_type_description
_atom_site_fract_x
_atom_site_fract_y
_atom_site_fract_z
_atom_type_partial_charge
C1    C     C_R   0.919345 0.000001 0.419913 0.901720
C2    C     C_R   0.080655 0.000019 0.580087 0.901712
C3    C     C_R   0.419341 0.500004 0.419602 0.901015
C4    C     C_R   0.580683 0.500038 0.580466 0.901027
C5    C     C_R   0.999852 0.999794 0.813430 -0.206123
C6    C     C_R   0.000148 0.999796 0.186570 -0.206123
C7    C     C_R   0.499956 0.499968 0.813552 -0.196441
C8    C     C_R   0.499937 0.499953 0.186461 -0.197846
C9    C     C_R   0.973575 0.971921 0.755242 -0.051564
C10   C     C_R   0.026411 0.971936 0.244744 -0.051564
C11   C     C_R   0.474176 0.471512 0.756031 -0.054815
C12   C     C_R   0.526486 0.472251 0.244825 -0.055045
C13   C     C_R   0.972357 0.973278 0.689937 0.153020
C14   C     C_R   0.027630 0.973292 0.310048 0.153013
C15   C     C_R   0.472672 0.472852 0.690427 0.154550
C16   C     C_R   0.528031 0.473748 0.310454 0.154922
C17   C     C_R   0.000084 0.999875 0.686386 -0.197161
C18   C     C_R   0.999916 0.999875 0.313614 -0.197163
C19   C     C_R   0.499492 0.500252 0.685780 -0.199418
C20   C     C_R   0.500379 0.500278 0.314209 -0.198307
C21   C     C_R   0.028326 0.025687 0.746518 -0.036633
C22   C     C_R   0.971687 0.025675 0.253496 -0.036630
C23   C     C_R   0.526576 0.527353 0.744582 -0.039973
C24   C     C_R   0.472443 0.526484 0.254612 -0.040381
C25   C     C_R   0.907565 0.948038 0.739693 -0.118125
C26   C     C_R   0.092416 0.948084 0.260304 -0.118142
C27   C     C_R   0.408613 0.446812 0.741240 -0.116853
C28   C     C_R   0.592554 0.448486 0.260581 -0.117729
C29   C     C_R   0.883654 0.916837 0.743455 -0.238059
C30   C     C_R   0.116306 0.916902 0.256493 -0.238114
C31   C     C_R   0.385068 0.415309 0.745291 -0.237723
C32   C     C_R   0.616536 0.417329 0.256982 -0.240081
C33   C     C_R   0.899985 0.876566 0.767853 0.247320
C34   C     C_R   0.099943 0.876632 0.232013 0.247511
C35   C     C_R   0.401831 0.375200 0.769881 0.247480
C36   C     C_R   0.600247 0.377031 0.232571 0.247651
C37   C     C_R   0.941289 0.868218 0.790693 0.033270
C38   C     C_R   0.058631 0.868266 0.209149 0.033237
C39   C     C_R   0.443209 0.367336 0.792696 0.033420
C40   C     C_R   0.558929 0.368604 0.209602 0.033983
C41   C     C_R   0.965607 0.900065 0.789455 -0.281650
C42   C     C_R   0.034336 0.900095 0.210441 -0.281723
C43   C     C_R   0.467179 0.399503 0.791236 -0.282898
C44   C     C_R   0.534530 0.400414 0.210634 -0.282853
C45   C     C_R   0.000107 0.999983 0.620346 0.907882
C46   C     C_R   0.999893 0.999983 0.379654 0.907869
C47   C     C_R   0.499834 0.500033 0.620071 0.907663
C48   C     C_R   0.500095 0.500040 0.379899 0.908672
C49   C     C_R   0.948682 0.939823 0.762932 0.172761
C50   C     C_R   0.051289 0.939852 0.237036 0.172836
C51   C     C_R   0.449804 0.439088 0.764429 0.170363
C52   C     C_R   0.551401 0.440209 0.237121 0.172729
C53   C     C_R   0.727683 0.962908 0.232123 -0.318191
C54   C     C_R   0.272272 0.962957 0.767810 -0.318248
C55   C     C_R   0.227686 0.462880 0.228407 -0.318312
C56   C     C_R   0.772318 0.466719 0.744504 -0.319160
C57   C     C_R   0.706576 0.001007 0.209294 0.096413
C58   C     C_R   0.293425 0.001049 0.790706 0.096427
C59   C     C_R   0.206566 0.500985 0.207706 0.096795
C60   C     C_R   0.793427 0.501872 0.787657 0.097913
C61   C     C_R   0.728778 0.038825 0.230178 0.226422
C62   C     C_R   0.271270 0.038874 0.769890 0.226422
C63   C     C_R   0.228747 0.538826 0.229836 0.226107
C64   C     C_R   0.771231 0.537328 0.784745 0.226598
C65   C     C_R   0.772360 0.037798 0.273771 -0.284357
C66   C     C_R   0.227686 0.037858 0.726295 -0.284392
C67   C     C_R   0.272323 0.537819 0.272783 -0.285050
C68   C     C_R   0.727682 0.536594 0.739402 -0.299452
C69   C     C_R   0.793436 0.999696 0.296743 0.089628
C70   C     C_R   0.206564 0.999761 0.703255 0.089611
C71   C     C_R   0.293416 0.499710 0.293809 0.090647
C72   C     C_R   0.706552 0.501219 0.697242 0.087998
C73   C     C_R   0.771260 0.961887 0.275339 0.227795
C74   C     C_R   0.228693 0.961947 0.724592 0.227804
C75   C     C_R   0.271258 0.461887 0.270940 0.227960
C76   C     C_R   0.728722 0.466205 0.698374 0.236346
C77   C     C_1   0.662072 0.000667 0.163242 -0.010452
C78   C     C_1   0.337929 0.000696 0.836759 -0.010511
C79   C     C_1   0.162060 0.500655 0.162512 -0.010539
C80   C     C_1   0.837904 0.500887 0.835337 -0.009969
C81   C     C_1   0.837917 0.999906 0.341571 -0.016218
C82   C     C_1   0.162083 0.999977 0.658428 -0.016213
C83   C     C_1   0.337889 0.499933 0.339135 -0.013995
C84   C     C_1   0.662096 0.500645 0.655905 -0.014390
C85   C     C_1   0.875188 0.999982 0.377680 -0.187782
C86   C     C_1   0.124812 0.000039 0.622319 -0.187765
C87   C     C_1   0.375167 0.500000 0.376181 -0.188277
C88   C     C_1   0.624855 0.500218 0.621682 -0.188403
C89   C     C_R   0.085682 0.115033 0.728739 -0.251627
C90   C     C_R   0.914383 0.115001 0.271321 -0.251473
C91   C     C_R   0.581264 0.615899 0.717729 -0.245013
C92   C     C_R   0.416656 0.613813 0.281508 -0.245081
C93   C     C_1   0.624763 0.000347 0.125107 -0.180904
C94   C     C_1   0.375238 0.000362 0.874894 -0.180986
C95   C     C_1   0.124752 0.500341 0.124907 -0.180929
C96   C     C_1   0.875207 0.500320 0.874489 -0.180566
C97   C     C_R   0.999993 0.919373 0.999999 0.924161
C98   C     C_R   0.499994 0.419374 0.000035 0.924088
C99   C     C_R   0.999955 0.999745 0.879625 0.911292
C100  C     C_R   0.000045 0.999747 0.120374 0.911274
C101  C     C_R   0.499999 0.499980 0.879667 0.919747
C102  C     C_R   0.499982 0.499988 0.120357 0.919183
C103  C     C_R   0.000009 0.080668 0.000009 0.891187
C104  C     C_R   0.500009 0.580661 0.000019 0.896495
C105  C     C_R   0.500000 0.919551 0.999999 0.901177
C106  C     C_R   0.000001 0.419559 0.000001 0.900928
C107  C     C_R   0.580516 0.000052 0.080543 0.900209
C108  C     C_R   0.419484 0.000052 0.919457 0.900213
C109  C     C_R   0.080513 0.500052 0.080522 0.900191
C110  C     C_R   0.919472 0.499963 0.919410 0.898877
C111  C     C_R   0.500011 0.080538 0.000013 0.904148
C112  C     C_R   0.999988 0.580537 0.999982 0.903514
C113  C     C_R   0.462499 0.228260 0.973062 0.172158
C114  C     C_R   0.537683 0.228335 0.027949 0.172288
C115  C     C_R   0.962217 0.728290 0.971094 0.172902
C116  C     C_R   0.037629 0.728293 0.028129 0.172093
C117  C     C_R   0.500085 0.206597 0.000369 -0.076336
C118  C     C_R   0.999918 0.706589 0.999649 -0.076314
C119  C     C_R   0.037521 0.771977 0.027224 0.188564
C120  C     C_R   0.962387 0.771969 0.972297 0.188672
C121  C     C_R   0.537556 0.272021 0.027252 0.188746
C122  C     C_R   0.462625 0.271942 0.974115 0.188417
C123  C     C_R   0.054676 0.091633 0.726454 -0.128926
C124  C     C_R   0.945376 0.091613 0.273594 -0.128895
C125  C     C_R   0.550886 0.592483 0.717454 -0.117111
C126  C     C_R   0.447281 0.590958 0.281695 -0.117662
C127  C     C_R   0.999972 0.793598 0.999863 -0.050688
C128  C     C_R   0.500076 0.293605 0.000662 -0.050298
C129  C     C_1   0.500076 0.162002 0.000188 -0.033816
C130  C     C_1   0.999921 0.661997 0.999769 -0.033971
C131  C     C_1   0.999988 0.838110 0.999943 -0.034146
C132  C     C_1   0.500035 0.338115 0.000482 -0.033804
C133  C     C_1   0.999985 0.875314 0.999972 -0.195267
C134  C     C_1   0.499998 0.375317 0.000255 -0.195506
C135  C     C_1   0.500049 0.124726 0.000073 -0.186729
C136  C     C_1   0.999949 0.624722 0.999900 -0.187262
C137  C     C_R   0.512123 0.771712 0.958094 0.217571
C138  C     C_R   0.487921 0.771702 0.041942 0.217562
C139  C     C_R   0.013772 0.271762 0.960617 0.217085
C140  C     C_R   0.986334 0.271747 0.039509 0.217077
C141  C     C_R   0.500019 0.793317 0.000013 -0.003523
C142  C     C_R   0.000046 0.293356 0.000054 -0.003146
C143  C     C_R   0.987015 0.227966 0.039401 -0.210805
C144  C     C_R   0.013096 0.227980 0.960732 -0.210868
C145  C     C_R   0.488588 0.727919 0.041776 -0.211373
C146  C     C_R   0.511471 0.727927 0.958284 -0.211331
C147  C     C_R   0.000055 0.206605 0.000065 0.061143
C148  C     C_R   0.500034 0.706563 0.000037 0.061867
C149  C     C_1   0.500012 0.837999 0.000005 -0.073870
C150  C     C_1   0.000029 0.338026 0.000033 -0.073549
C151  C     C_R   0.061325 0.049507 0.746742 0.109295
C152  C     C_R   0.938703 0.049484 0.253285 0.109306
C153  C     C_R   0.559374 0.551616 0.744830 0.100381
C154  C     C_R   0.439243 0.550131 0.254120 0.099295
C155  C     C_1   0.000045 0.162172 0.000049 -0.036088
C156  C     C_1   0.500034 0.662142 0.000042 -0.034507
C157  C     C_1   0.000030 0.124882 0.000032 -0.194882
C158  C     C_1   0.500028 0.624863 0.000039 -0.196670
C159  C     C_1   0.500006 0.875312 0.000002 -0.180880
C160  C     C_1   0.000015 0.375332 0.000015 -0.180441
C161  C     C_R   0.099902 0.030764 0.770619 -0.063998
C162  C     C_R   0.900114 0.030725 0.229398 -0.063983
C163  C     C_R   0.599233 0.534345 0.774295 -0.065116
C164  C     C_R   0.399490 0.532393 0.224265 -0.064167
C165  C     C_R   0.132149 0.055030 0.776574 0.171367
C166  C     C_R   0.867882 0.054980 0.223455 0.171310
C167  C     C_R   0.630413 0.558409 0.776211 0.175373
C168  C     C_R   0.367986 0.555970 0.222176 0.172811
C169  C     C_R   0.124297 0.097071 0.753613 0.053489
C170  C     C_R   0.875757 0.097024 0.246438 0.053438
C171  C     C_R   0.620852 0.599141 0.746630 0.056945
C172  C     C_R   0.377202 0.596586 0.252297 0.055620
C173  C     C_R   0.026856 0.027123 0.809080 0.156820
C174  C     C_R   0.973159 0.027114 0.190936 0.156776
C175  C     C_R   0.525476 0.528599 0.807342 0.165838
C176  C     C_R   0.473538 0.527785 0.191838 0.167542
H1    H     H_    0.997335 0.893642 0.806848 0.146710
H2    H     H_    0.002601 0.893659 0.193024 0.146727
H3    H     H_    0.498955 0.393446 0.808570 0.146812
H4    H     H_    0.502799 0.393924 0.193182 0.146307
H5    H     H_    0.710261 0.933938 0.215359 0.154954
H6    H     H_    0.289658 0.933982 0.784521 0.154921
H7    H     H_    0.210270 0.433902 0.210632 0.154739
H8    H     H_    0.789758 0.439661 0.746801 0.154286
H9    H     H_    0.789810 0.066741 0.290096 0.173666
H10   H     H_    0.210272 0.066804 0.710022 0.173696
H11   H     H_    0.289755 0.566773 0.290381 0.174635
H12   H     H_    0.710302 0.563564 0.737496 0.189098
H13   H     H_    0.023027 0.209996 0.931154 0.157102
H14   H     H_    0.977084 0.209972 0.068977 0.157102
H15   H     H_    0.520191 0.709929 0.926885 0.156274
H16   H     H_    0.479870 0.709914 0.073180 0.156452
H17   H     H_    0.079630 0.147396 0.711566 0.150337
H18   H     H_    0.920454 0.147367 0.288509 0.150398
H19   H     H_    0.573832 0.647230 0.695229 0.147044
H20   H     H_    0.423794 0.645081 0.304330 0.146735
H21   H     H_    0.025249 0.106272 0.708388 0.143343
H22   H     H_    0.974811 0.106263 0.291667 0.143346
H23   H     H_    0.520447 0.606025 0.695029 0.138528
H24   H     H_    0.477595 0.604892 0.304299 0.139244
H25   H     H_    0.894097 0.978566 0.718660 0.136431
H26   H     H_    0.105905 0.978612 0.281390 0.136387
H27   H     H_    0.394788 0.477192 0.719955 0.137127
H28   H     H_    0.605995 0.479030 0.281667 0.136526
H29   H     H_    0.851989 0.923722 0.725682 0.136625
H30   H     H_    0.147977 0.923800 0.274285 0.136562
H31   H     H_    0.353339 0.421822 0.727522 0.136924
H32   H     H_    0.648223 0.424264 0.274909 0.136801
O1    O     O_R   0.939010 0.034440 0.439030 -0.614773
O2    O     O_R   0.060990 0.034440 0.560970 -0.614781
O3    O     O_R   0.439010 0.534440 0.439030 -0.614575
O4    O     O_R   0.560990 0.534440 0.560970 -0.614788
O5    O     O_R   0.561000 0.000050 0.112670 -0.616741
O6    O     O_R   0.439000 0.000050 0.887330 -0.616728
O7    O     O_R   0.061000 0.500050 0.112670 -0.616713
O8    O     O_R   0.939000 0.500050 0.887330 -0.616982
O9    O     O_R   0.561000 0.999980 0.009230 -0.613792
O10   O     O_R   0.439000 0.999980 0.990770 -0.613838
O11   O     O_R   0.061000 0.499980 0.009230 -0.613866
O12   O     O_R   0.939000 0.499980 0.990770 -0.612299
O13   O     O_R   0.500000 0.061030 0.051640 -0.615332
O14   O     O_R   0.500000 0.061030 0.948360 -0.615208
O15   O     O_R   0.000000 0.561030 0.051640 -0.614993
O16   O     O_R   1.000000 0.561030 0.948360 -0.615338
O17   O     O_R   0.939030 0.965580 0.439000 -0.617733
O18   O     O_R   0.060970 0.965580 0.561000 -0.617718
O19   O     O_R   0.439030 0.465580 0.439000 -0.618417
O20   O     O_R   0.560970 0.465580 0.561000 -0.616850
O21   O     O_R   1.000000 0.034440 0.591610 -0.625511
O22   O     O_R   1.000000 0.034440 0.408390 -0.625511
O23   O     O_R   0.500000 0.534440 0.591610 -0.625928
O24   O     O_R   0.500000 0.534440 0.408390 -0.626738
O25   O     O_R   0.000010 0.965580 0.591580 -0.611653
O26   O     O_R   0.999990 0.965580 0.408420 -0.611657
O27   O     O_R   0.500010 0.465580 0.591580 -0.612381
O28   O     O_R   0.499990 0.465580 0.408420 -0.612162
O29   O     O_R   0.034440 0.939000 0.034360 -0.616443
O30   O     O_R   0.965560 0.939000 0.965640 -0.616461
O31   O     O_R   0.534440 0.439000 0.034360 -0.615964
O32   O     O_R   0.465560 0.439000 0.965640 -0.616242
O33   O     O_R   0.034440 0.999990 0.942780 -0.613322
O34   O     O_R   0.965560 0.999990 0.057220 -0.613323
O35   O     O_R   0.534440 0.499990 0.942780 -0.632922
O36   O     O_R   0.465560 0.499990 0.057220 -0.632680
O37   O     O_R   0.965580 0.000000 0.873940 -0.626100
O38   O     O_R   0.034420 0.000000 0.126060 -0.626101
O39   O     O_R   0.465580 0.500000 0.873940 -0.623997
O40   O     O_R   0.534420 0.500000 0.126060 -0.623441
O41   O     O_R   0.034440 0.060970 0.034440 -0.622075
O42   O     O_R   0.965560 0.060970 0.965560 -0.621996
O43   O     O_R   0.534440 0.560970 0.034440 -0.616241
O44   O     O_R   0.465560 0.560970 0.965560 -0.616406
O45   O     O_R   0.500020 0.939060 0.051770 -0.615451
O46   O     O_R   0.499980 0.939060 0.948230 -0.615462
O47   O     O_R   0.000020 0.439060 0.051770 -0.615162
O48   O     O_R   0.999980 0.439060 0.948230 -0.615459
Zn1   Zn    Zn3+2 1.000000 0.045990 0.500000 0.960044
Zn2   Zn    Zn3+2 0.500000 0.545990 0.500000 0.955181
Zn3   Zn    Zn3+2 1.000000 0.954030 0.500000 0.948275
Zn4   Zn    Zn3+2 0.500000 0.454030 0.500000 0.946783
Zn5   Zn    Zn3+2 0.045990 0.999980 0.045940 0.943350
Zn6   Zn    Zn3+2 0.954010 0.999980 0.954060 0.943443
Zn7   Zn    Zn3+2 0.545990 0.499980 0.045940 0.950038
Zn8   Zn    Zn3+2 0.454010 0.499980 0.954060 0.949237
Zn9   Zn    Zn3+2 0.500010 0.000060 0.069050 0.967869
Zn10  Zn    Zn3+2 0.499990 0.000060 0.930950 0.968001
Zn11  Zn    Zn3+2 0.000010 0.500060 0.069050 0.969234
Zn12  Zn    Zn3+2 0.999990 0.500060 0.930950 0.968079
C177  C     C_1   0.155474 0.122038 0.754279 0.165585
N1    N     N_1   0.180503 0.142024 0.754820 -0.226296
C178  C     C_1   0.844595 0.121980 0.245784 0.165794
N2    N     N_1   0.819577 0.141957 0.245252 -0.226051
C179  C     C_1   0.651233 0.623951 0.744545 0.157217
N3    N     N_1   0.675612 0.643847 0.742891 -0.222686
C180  C     C_1   0.346601 0.620775 0.254682 0.165157
N4    N     N_1   0.322044 0.640172 0.256571 -0.228048
N5    N     N_2   0.874966 0.844918 0.770078 -0.322575
H33   H     H_    0.853837 0.856120 0.780676 0.222996
C181  C     C_3   0.855620 0.816842 0.707032 -0.791006
H34   H     H_    0.833241 0.834110 0.654946 0.238264
H35   H     H_    0.838466 0.792132 0.715158 0.241794
H36   H     H_    0.879463 0.801591 0.701519 0.253169
N6    N     N_2   0.124936 0.845005 0.229720 -0.322547
H37   H     H_    0.146075 0.856229 0.219147 0.222900
C182  C     C_3   0.144259 0.816906 0.292708 -0.791264
H38   H     H_    0.166667 0.834159 0.344828 0.238177
H39   H     H_    0.161385 0.792209 0.284521 0.241554
H40   H     H_    0.120404 0.801641 0.298198 0.253215
N7    N     N_2   0.377149 0.343213 0.772245 -0.322653
H41   H     H_    0.355939 0.354100 0.782884 0.222910
C183  C     C_3   0.358026 0.315118 0.709234 -0.791063
H42   H     H_    0.335465 0.332285 0.657140 0.238323
H43   H     H_    0.341117 0.290162 0.717439 0.241021
H44   H     H_    0.381986 0.300194 0.703681 0.253363
N8    N     N_2   0.625332 0.345421 0.230515 -0.322007
H45   H     H_    0.646436 0.356647 0.219860 0.223310
C184  C     C_3   0.644750 0.317495 0.293749 -0.792940
H46   H     H_    0.667104 0.334893 0.345715 0.237148
H47   H     H_    0.661945 0.292783 0.285763 0.242014
H48   H     H_    0.620946 0.302238 0.299389 0.253221
C185  C     C_1   0.958804 0.826977 0.813451 0.151475
N9    N     N_1   0.972767 0.793817 0.831067 -0.218595
C186  C     C_1   0.041083 0.827025 0.186294 0.151655
N10   N     N_1   0.027092 0.793866 0.168598 -0.218528
C187  C     C_1   0.461113 0.326246 0.815561 0.152621
N11   N     N_1   0.475362 0.293198 0.833255 -0.218422
C188  C     C_1   0.541512 0.327301 0.187014 0.151305
N12   N     N_1   0.527641 0.294086 0.169551 -0.218765
N13   N     N_2   0.792507 0.922930 0.297689 -0.303411
H49   H     H_    0.776392 0.899741 0.304303 0.223027
C189  C     C_3   0.807288 0.909174 0.252885 -0.760805
H50   H     H_    0.780524 0.903864 0.194422 0.234134
H51   H     H_    0.824721 0.879503 0.275713 0.240615
H52   H     H_    0.828664 0.932561 0.253733 0.250544
N14   N     N_2   0.207399 0.922996 0.702175 -0.303419
H53   H     H_    0.223484 0.899808 0.695514 0.222978
C190  C     C_3   0.192607 0.909228 0.746962 -0.760854
H54   H     H_    0.219367 0.903900 0.805412 0.234107
H55   H     H_    0.175134 0.879563 0.724081 0.240599
H56   H     H_    0.171263 0.932616 0.746166 0.250561
N15   N     N_2   0.292517 0.422932 0.291419 -0.303080
H57   H     H_    0.276409 0.399226 0.296859 0.223045
C191  C     C_3   0.307398 0.410539 0.246118 -0.762881
H58   H     H_    0.280691 0.406027 0.187339 0.234756
H59   H     H_    0.324755 0.380721 0.267435 0.240500
H60   H     H_    0.328874 0.434339 0.248373 0.248484
N16   N     N_2   0.707442 0.430044 0.655469 -0.300212
H61   H     H_    0.723860 0.402724 0.678253 0.223527
C192  C     C_3   0.691190 0.433584 0.577152 -0.773599
H62   H     H_    0.717193 0.437404 0.569843 0.234200
H63   H     H_    0.669619 0.460509 0.551567 0.248103
H64   H     H_    0.673556 0.404890 0.547588 0.240110
N17   N     N_2   0.707560 0.077758 0.206301 -0.301836
H65   H     H_    0.723775 0.100567 0.199101 0.236372
C193  C     C_3   0.692556 0.092468 0.250235 -0.781052
H66   H     H_    0.719228 0.098646 0.308431 0.237592
H67   H     H_    0.671401 0.069223 0.250474 0.252520
H68   H     H_    0.674841 0.121847 0.225863 0.236046
N18   N     N_2   0.292537 0.077800 0.793840 -0.301888
H69   H     H_    0.276349 0.100608 0.801078 0.236276
C194  C     C_3   0.307562 0.092521 0.749939 -0.781140
H70   H     H_    0.280900 0.098714 0.691752 0.237599
H71   H     H_    0.328690 0.069276 0.749661 0.252547
H72   H     H_    0.325314 0.121894 0.774365 0.236020
N19   N     N_2   0.207508 0.577786 0.207942 -0.302101
H73   H     H_    0.223545 0.601040 0.201263 0.235867
C195  C     C_3   0.192952 0.591361 0.253160 -0.780759
H74   H     H_    0.219862 0.596955 0.311390 0.237669
H75   H     H_    0.171971 0.567704 0.252952 0.252638
H76   H     H_    0.175177 0.620846 0.230246 0.236092
N20   N     N_2   0.792376 0.573051 0.829225 -0.301575
H77   H     H_    0.775699 0.589101 0.845522 0.234871
C196  C     C_3   0.808618 0.600535 0.798443 -0.776216
H78   H     H_    0.782623 0.614014 0.744956 0.240697
H79   H     H_    0.830193 0.583562 0.788923 0.249261
H80   H     H_    0.826212 0.626320 0.838199 0.236981
N21   N     N_2   0.924372 0.793759 0.945226 -0.280191
H81   H     H_    0.921028 0.821040 0.917301 0.244240
C197  C     C_3   0.914311 0.798828 0.999642 -0.734831
H82   H     H_    0.883234 0.813767 0.972909 0.231750
H83   H     H_    0.937922 0.818961 0.046184 0.235904
H84   H     H_    0.913167 0.768071 0.021954 0.255722
N22   N     N_2   0.075546 0.793780 0.054289 -0.280323
H85   H     H_    0.078976 0.820966 0.082514 0.244262
C198  C     C_3   0.085450 0.799107 0.999705 -0.734378
H86   H     H_    0.116544 0.814035 0.026416 0.231708
H87   H     H_    0.061821 0.819354 0.953457 0.235766
H88   H     H_    0.086475 0.768446 0.976989 0.255944
N23   N     N_2   0.424722 0.293699 0.948098 -0.280873
H89   H     H_    0.421052 0.320937 0.919844 0.243381
C199  C     C_3   0.415449 0.298883 0.003544 -0.733667
H90   H     H_    0.384373 0.313710 0.977582 0.231980
H91   H     H_    0.439254 0.319169 0.049525 0.235926
H92   H     H_    0.414722 0.268181 0.026468 0.255947
N24   N     N_2   0.575514 0.293865 0.053909 -0.281105
H93   H     H_    0.579134 0.320919 0.082589 0.243943
C200  C     C_3   0.585037 0.299489 0.998874 -0.730839
H94   H     H_    0.616212 0.314211 0.025418 0.232029
H95   H     H_    0.561430 0.320058 0.953256 0.235788
H96   H     H_    0.585674 0.268963 0.975361 0.256111
N25   N     N_2   0.424231 0.206561 0.944364 -0.283977
H97   H     H_    0.426861 0.178989 0.971094 0.231013
C201  C     C_3   0.398607 0.202620 0.864107 -0.735920
H98   H     H_    0.414514 0.182773 0.845293 0.232474
H99   H     H_    0.392075 0.233743 0.837280 0.263470
H100  H     H_    0.368410 0.187943 0.846272 0.227939
N26   N     N_2   0.575959 0.206708 0.056561 -0.283963
H101  H     H_    0.573346 0.179237 0.029587 0.231150
C202  C     C_3   0.601509 0.202543 0.136780 -0.735358
H102  H     H_    0.585544 0.182541 0.155302 0.232277
H103  H     H_    0.608036 0.233581 0.163915 0.263491
H104  H     H_    0.631712 0.187929 0.154571 0.227970
N27   N     N_2   0.923754 0.706643 0.940654 -0.285634
H105  H     H_    0.925913 0.678971 0.966763 0.229521
C203  C     C_3   0.899083 0.702965 0.860354 -0.736086
H106  H     H_    0.915565 0.683231 0.842566 0.233444
H107  H     H_    0.892962 0.734180 0.833963 0.264545
H108  H     H_    0.868650 0.688303 0.840946 0.226933
N28   N     N_2   0.075994 0.706631 0.057781 -0.284102
H109  H     H_    0.073617 0.679094 0.031153 0.231002
C204  C     C_3   0.101003 0.702613 0.138027 -0.735014
H110  H     H_    0.084642 0.682808 0.155994 0.232512
H111  H     H_    0.107425 0.733719 0.164902 0.263609
H112  H     H_    0.131277 0.687843 0.156673 0.227969
N29   N     N_2   0.524077 0.794546 0.915897 -0.292619
H113  H     H_    0.538773 0.822662 0.938277 0.236978
C205  C     C_3   0.539089 0.772668 0.876965 -0.800716
H114  H     H_    0.546241 0.795483 0.847120 0.242291
H115  H     H_    0.514712 0.751213 0.834720 0.246417
H116  H     H_    0.568043 0.755223 0.917173 0.238827
N30   N     N_2   0.475956 0.794527 0.084121 -0.292540
H117  H     H_    0.461246 0.822620 0.061719 0.236956
C206  C     C_3   0.460953 0.772635 0.123068 -0.800941
H118  H     H_    0.453792 0.795445 0.152898 0.242282
H119  H     H_    0.485338 0.751216 0.165327 0.246480
H120  H     H_    0.432006 0.755149 0.082872 0.238700
N31   N     N_2   0.027354 0.294611 0.920908 -0.292695
H121  H     H_    0.041846 0.322705 0.944066 0.236664
C207  C     C_3   0.043922 0.272753 0.884522 -0.800050
H122  H     H_    0.052165 0.295586 0.856288 0.242136
H123  H     H_    0.020076 0.251323 0.841241 0.246616
H124  H     H_    0.072517 0.255288 0.926194 0.238865
N32   N     N_2   0.972751 0.294582 0.079218 -0.292714
H125  H     H_    0.958209 0.322636 0.056006 0.237025
C208  C     C_3   0.956261 0.272704 0.115733 -0.798869
H126  H     H_    0.948038 0.295530 0.143994 0.242376
H127  H     H_    0.980149 0.251323 0.159007 0.246400
H128  H     H_    0.927668 0.255182 0.074140 0.239031
C209  C     C_1   0.106691 0.987117 0.791057 0.115274
N33   N     N_1   0.112056 0.952221 0.807311 -0.210699
C210  C     C_1   0.893300 0.987076 0.208938 0.115270
N34   N     N_1   0.887915 0.952177 0.192665 -0.210671
C211  C     C_1   0.608293 0.492391 0.803940 0.135935
N35   N     N_1   0.615464 0.458844 0.827586 -0.203571
C212  C     C_1   0.390911 0.490445 0.194610 0.128516
N36   N     N_1   0.384109 0.456896 0.170972 -0.209776
N37   N     N_2   0.172409 0.037635 0.805923 -0.307038
H129  H     H_    0.172427 0.006306 0.795578 0.235370
C213  C     C_3   0.203177 0.047752 0.883178 -0.777199
H130  H     H_    0.194107 0.033958 0.919126 0.236195
H131  H     H_    0.206444 0.082034 0.891506 0.249280
H132  H     H_    0.233905 0.034874 0.900082 0.244891
N38   N     N_2   0.827611 0.037569 0.194097 -0.307114
H133  H     H_    0.827574 0.006240 0.204425 0.235359
C214  C     C_3   0.796849 0.047673 0.116846 -0.776834
H134  H     H_    0.805911 0.033881 0.080892 0.236202
H135  H     H_    0.793602 0.081953 0.108537 0.249372
H136  H     H_    0.766114 0.034783 0.099935 0.244896
N39   N     N_2   0.671103 0.541849 0.806927 -0.318719
H137  H     H_    0.671965 0.510285 0.799015 0.240586
C215  C     C_3   0.701779 0.554368 0.882917 -0.785907
H138  H     H_    0.693420 0.541714 0.920588 0.245430
H139  H     H_    0.703940 0.588866 0.887692 0.249743
H140  H     H_    0.732831 0.542068 0.900591 0.241651
N40   N     N_2   0.327324 0.539056 0.190809 -0.308923
H141  H     H_    0.326572 0.507338 0.197426 0.233179
C216  C     C_3   0.296667 0.552139 0.115184 -0.765985
H142  H     H_    0.305131 0.540224 0.077233 0.239044
H143  H     H_    0.294388 0.586656 0.111402 0.248996
H144  H     H_    0.265643 0.539493 0.097031 0.242517
N41   N     N_2   0.051060 0.057592 0.865504 -0.301455
H145  H     H_    0.036389 0.072245 0.887117 0.218074
C217  C     C_3   0.094508 0.047522 0.920075 -0.698472
H146  H     H_    0.101365 0.048782 0.977113 0.232814
H147  H     H_    0.114497 0.070711 0.916299 0.232123
H148  H     H_    0.102588 0.015841 0.911269 0.241165
N42   N     N_2   0.948973 0.057573 0.134532 -0.301467
H149  H     H_    0.963652 0.072234 0.112929 0.218089
C218  C     C_3   0.905519 0.047489 0.079955 -0.698229
H150  H     H_    0.898662 0.048746 0.022918 0.232856
H151  H     H_    0.885545 0.070671 0.083747 0.232179
H152  H     H_    0.897419 0.015804 0.088741 0.241123
N43   N     N_2   0.550203 0.559024 0.863294 -0.299339
H153  H     H_    0.570947 0.547755 0.916223 0.253259
C219  C     C_3   0.527802 0.595901 0.860061 -0.768860
H154  H     H_    0.503767 0.587810 0.870736 0.227297
H155  H     H_    0.512493 0.610859 0.804478 0.238222
H156  H     H_    0.549923 0.618587 0.902885 0.236850
N44   N     N_2   0.447997 0.557543 0.135161 -0.298865
H157  H     H_    0.427306 0.545746 0.082610 0.253451
C220  C     C_3   0.469392 0.594991 0.137213 -0.766876
H158  H     H_    0.493498 0.587535 0.126422 0.226917
H159  H     H_    0.484451 0.610344 0.192444 0.237808
H160  H     H_    0.446632 0.617088 0.093923 0.236895
N45   N     N_2   0.941645 0.949480 0.626816 -0.299034
H161  H     H_    0.927072 0.964446 0.576048 0.218375
C221  C     C_3   0.951469 0.906080 0.625032 -0.685953
H162  H     H_    0.951377 0.899862 0.574570 0.235087
H163  H     H_    0.927410 0.886125 0.622831 0.234088
H164  H     H_    0.982604 0.897362 0.674800 0.234081
N46   N     N_2   0.058330 0.949507 0.373154 -0.299040
H165  H     H_    0.072908 0.964475 0.423934 0.218391
C222  C     C_3   0.048488 0.906099 0.374901 -0.686002
H166  H     H_    0.048569 0.899872 0.425350 0.235097
H167  H     H_    0.072544 0.886162 0.377101 0.234060
H168  H     H_    0.017353 0.897364 0.325118 0.234085
N47   N     N_2   0.442532 0.448217 0.628076 -0.298381
H169  H     H_    0.427525 0.462746 0.576871 0.219050
C223  C     C_3   0.453423 0.405055 0.627503 -0.686963
H170  H     H_    0.453372 0.398730 0.577111 0.234760
H171  H     H_    0.429923 0.384542 0.626059 0.234291
H172  H     H_    0.484813 0.397166 0.677400 0.233700
N48   N     N_2   0.559044 0.450269 0.373733 -0.300609
H173  H     H_    0.573538 0.465382 0.424374 0.215334
C224  C     C_3   0.549736 0.406754 0.376052 -0.692857
H174  H     H_    0.549915 0.400554 0.426606 0.236073
H175  H     H_    0.574032 0.387108 0.378494 0.233153
H176  H     H_    0.518701 0.397641 0.326407 0.235030

loop_
_geom_bond_atom_site_label_1
_geom_bond_atom_site_label_2
_ccdc_geom_bond_type
N21   H81   S    
C55   C59   A    
N30   C206  S    
C184  H47   S    
C208  H126  S    
C183  H42   S    
C105  O45   A    
C63   N19   S    
O25   Zn3   S    
N17   H65   S    
C39   C187  S    
C112  C136  S    
C26   C50   A    
C139  C142  A    
C144  H13   S    
C138  C145  A    
C1    O17   A    
C178  N2    T    
C29   C33   A    
C216  H142  S    
C16   N48   S    
C217  H146  S    
C9    C13   A    
C200  H96   S    
C204  H111  S    
C54   C74   A    
C11   C15   A    
C113  C122  A    
C12   C16   A    
C223  H171  S    
C70   C74   A    
C40   C188  S    
C147  C155  S    
N41   C217  S    
O48   Zn12  S    
C206  H119  S    
O33   Zn5   S    
C112  O16   A    
C41   C49   A    
C196  H79   S    
C67   H11   S    
C47   O27   A    
N48   C224  S    
C22   C152  S    
C165  C169  A    
O28   Zn4   S    
C27   C31   A    
C191  H58   S    
C137  C146  A    
C28   C32   A    
C207  H124  S    
O17   Zn3   S    
C121  C128  A    
C95   C109  S    
O7    Zn11  S    
C193  H67   S    
C62   C66   A    
C103  C157  S    
C167  C171  A    
C98   O31   A    
C6    C174  A    
C218  H150  S    
O29   Zn5   S    
C17   C21   A    
C190  H56   S    
C19   C23   A    
C15   N47   S    
C31   H31   S    
C219  H155  S    
C91   H19   S    
C114  N26   S    
O1    Zn1   S    
C186  N10   T    
C68   C72   A    
C115  C118  A    
C89   H17   S    
C221  H163  S    
C72   C84   S    
O38   Zn5   S    
C126  C154  A    
N42   C218  S    
C143  C147  A    
C218  H151  S    
C21   C173  A    
C23   C153  S    
N25   H97   S    
C92   C172  A    
C216  H144  S    
C102  O36   A    
C201  H98   S    
C24   C176  A    
C219  H154  S    
C145  C148  A    
C100  O34   A    
C2    O18   A    
C218  H152  S    
C126  H24   S    
N28   C204  S    
O46   Zn10  S    
C91   C125  A    
C53   C73   A    
C84   C88   T    
C140  C142  A    
C92   H20   S    
C138  C141  A    
N40   H141  S    
N24   H93   S    
C57   C61   A    
C78   C94   T    
C97   O29   A    
N27   H105  S    
C59   C63   A    
C91   C171  A    
C60   C64   A    
O45   Zn9   S    
C156  C158  T    
C89   C169  A    
C182  H39   S    
C66   H10   S    
N29   H113  S    
C66   C70   A    
C42   H2    S    
C116  C118  A    
C181  H35   S    
C199  H91   S    
C214  H134  S    
C70   C82   S    
C127  C131  S    
N38   C214  S    
O13   Zn9   S    
C193  H66   S    
C61   C65   A    
C98   O32   A    
C172  C180  S    
C132  C134  T    
N15   H57   S    
C197  H82   S    
N40   C216  S    
N47   C223  S    
C216  H143  S    
C161  C165  A    
O43   Zn7   S    
C120  N21   S    
C104  O44   A    
C161  C209  S    
C207  H122  S    
C140  C143  A    
C97   C133  S    
C111  C135  S    
C204  H110  S    
C120  C127  A    
N8    C184  S    
C209  N33   T    
O2    Zn1   S    
C153  C163  A    
C27   H27   S    
C64   C68   A    
C41   H1    S    
C183  H43   S    
C17   C45   S    
C25   H25   S    
C213  H131  S    
O14   Zn10  S    
C19   C47   S    
C205  H116  S    
N28   H109  S    
O5    Zn9   S    
C29   H29   S    
O42   Zn6   S    
C107  O9    A    
O27   Zn4   S    
C202  H104  S    
C32   H32   S    
C117  C129  S    
C215  H140  S    
C165  N37   S    
C44   C52   A    
N5    H33   S    
C192  H63   S    
O31   Zn7   S    
O35   Zn7   S    
O32   Zn8   S    
C144  C147  A    
C119  N22   S    
N31   C207  S    
C27   C51   A    
N7    H41   S    
C71   C83   S    
C194  H71   S    
C3    O3    A    
C224  H175  S    
C30   C34   A    
C1    O1    A    
C103  O41   A    
C106  O48   A    
C9    C49   S    
C10   C14   A    
C198  H88   S    
O11   Zn12  S    
N16   C192  S    
C151  C161  A    
C191  H59   S    
C111  O14   A    
C6    C100  S    
C214  H136  S    
C63   C67   A    
C5    C9    A    
N45   H161  S    
C171  C179  S    
C210  N34   T    
C107  O5    A    
O22   Zn1   S    
C8    C12   A    
C199  H92   S    
C220  H158  S    
O34   Zn6   S    
C208  H127  S    
O19   Zn4   S    
C42   C50   A    
C113  C117  A    
C166  C170  A    
C189  H51   S    
C145  H16   S    
C146  H15   S    
N19   C195  S    
C13   N45   S    
C204  H112  S    
N25   C201  S    
C60   C80   S    
C18   C22   A    
C5    C173  A    
C123  H21   S    
C104  C158  S    
N26   C202  S    
O16   Zn12  S    
N48   H173  S    
C8    C176  A    
C26   C30   A    
C4    C88   S    
N43   C219  S    
C13   C17   A    
C201  H100  S    
C195  H76   S    
C137  N29   S    
C35   N7    S    
O47   Zn11  S    
C75   N15   S    
O4    Zn2   S    
C184  H48   S    
C197  H84   S    
C21   C151  S    
C37   C41   A    
C200  H95   S    
C114  C117  A    
C100  O38   A    
O44   Zn8   S    
C215  H138  S    
C40   C44   A    
C113  N25   S    
C68   H12   S    
N39   H137  S    
C7    C101  S    
N6    H37   S    
C222  H166  S    
O12   Zn11  S    
C81   C85   T    
N23   C199  S    
C119  C127  A    
C58   C62   A    
C83   C87   T    
C206  H118  S    
C155  C157  T    
C116  N28   S    
N46   C222  S    
N44   H157  S    
C44   H4    S    
C196  H78   S    
N32   C208  S    
C15   C19   A    
C43   H3    S    
C38   C186  S    
C164  C212  S    
C150  C160  T    
C207  H123  S    
C45   O25   A    
C203  H108  S    
C23   C175  A    
C199  H90   S    
C124  H22   S    
C121  N24   S    
C220  H160  S    
C184  H46   S    
C190  H55   S    
C162  C166  A    
C114  C121  A    
C5    C99   S    
C64   N20   S    
C24   C154  S    
C217  H148  S    
N22   H85   S    
C69   C73   A    
O36   Zn8   S    
C99   O37   A    
C73   N13   S    
C72   C76   A    
C108  O10   A    
N37   C213  S    
C32   C36   A    
N14   H53   S    
N21   C197  S    
O24   Zn2   S    
C34   N6    S    
C25   C29   A    
C46   O22   A    
C105  O46   A    
C18   C46   S    
C12   C52   S    
C2    O2    A    
C146  C148  A    
N17   C193  S    
O26   Zn3   S    
C203  H107  S    
C123  C151  A    
O6    Zn10  S    
C188  N12   T    
C57   C77   S    
C74   N14   S    
C59   C79   S    
N8    H45   S    
C53   C57   A    
C109  O7    A    
N41   H145  S    
C96   C110  S    
C33   C37   A    
C56   C60   A    
C35   C39   A    
C213  H130  S    
C79   C95   T    
C182  H38   S    
C118  C130  S    
C176  N44   S    
N18   H69   S    
C90   H18   S    
C164  C168  A    
C223  H172  S    
O20   Zn4   S    
C20   C48   S    
C206  H120  S    
C112  O15   A    
C31   C35   A    
O30   Zn6   S    
C10   C50   S    
C3    O19   A    
C195  H74   S    
C196  H80   S    
C154  C164  A    
C137  C141  A    
C90   C124  A    
C185  N9    T    
C61   N17   S    
C92   C126  A    
C6    C10   A    
C193  H68   S    
C198  H86   S    
C203  H106  S    
N20   C196  S    
C56   H8    S    
C142  C150  S    
C140  N32   S    
C198  H87   S    
C181  H34   S    
N16   H61   S    
C82   C86   T    
C219  H156  S    
C175  N43   S    
C43   C51   A    
C105  C159  S    
C106  C160  S    
C77   C93   T    
C221  H164  S    
C67   C71   A    
C4    O20   A    
C122  C128  A    
C25   C49   A    
C69   C81   S    
C58   C78   S    
C174  N42   S    
O9    Zn10  S    
C168  C172  A    
O3    Zn2   S    
C187  N11   T    
C222  H168  S    
N30   H117  S    
C202  H103  S    
C55   H7    S    
N7    C183  S    
C148  C156  S    
C152  C162  A    
C215  H139  S    
O21   Zn1   S    
C189  H50   S    
C169  C177  S    
C56   C76   A    
N6    C182  S    
N37   H129  S    
C167  N39   S    
C192  H62   S    
C14   C18   A    
C110  O8    A    
C62   N18   S    
N31   H121  S    
C141  C149  S    
C33   N5    S    
N13   H49   S    
C65   C69   A    
C7    C11   A    
C97   O30   A    
N27   C203  S    
C94   C108  S    
C224  H174  S    
C109  O11   A    
C26   H26   S    
C38   C42   A    
C182  H40   S    
N29   C205  S    
C47   O23   A    
C37   C185  S    
C223  H170  S    
C30   H30   S    
O10   Zn9   S    
C177  N1    T    
N47   H169  S    
C111  O13   A    
C181  H36   S    
C214  H135  S    
C220  H159  S    
C36   N8    S    
O8    Zn12  S    
C20   C24   A    
N15   C191  S    
C7    C175  A    
C205  H114  S    
C54   H6    S    
C80   C96   T    
C110  O12   A    
O15   Zn11  S    
O39   Zn8   S    
C16   C20   A    
O40   Zn7   S    
C205  H115  S    
C124  C152  A    
C104  O43   A    
C129  C135  T    
N22   C198  S    
C45   O21   A    
O37   Zn6   S    
C128  C132  S    
C22   C174  A    
C125  C153  A    
N24   C200  S    
C1    C85   S    
O23   Zn2   S    
C65   H9    S    
N14   C190  S    
C3    C87   S    
C28   H28   S    
C36   C40   A    
C183  H44   S    
C102  O40   A    
C221  H162  S    
C213  H132  S    
N32   H125  S    
C39   C43   A    
C89   C123  A    
N39   C215  S    
N43   H153  S    
C166  N38   S    
C138  N30   S    
C99   O33   A    
C163  C167  A    
C201  H99   S    
C168  N40   S    
C53   H5    S    
C195  H75   S    
C139  C144  A    
N42   H149  S    
N46   H165  S    
C90   C170  A    
C46   O26   A    
C179  N3    T    
C197  H83   S    
C149  C159  T    
C200  H94   S    
C48   O28   A    
N18   C194  S    
C180  N4    T    
C211  N35   T    
N5    C181  S    
C192  H64   S    
C170  C178  S    
N23   H89   S    
C54   C58   A    
C194  H72   S    
C224  H176  S    
C34   C38   A    
C103  O42   A    
C106  O47   A    
C130  C136  T    
C115  N27   S    
C131  C133  T    
O18   Zn3   S    
C163  C211  S    
N44   C220  S    
C122  N23   S    
C98   C134  S    
C4    O4    A    
C116  C119  A    
C191  H60   S    
C222  H167  S    
C55   C75   A    
N38   H133  S    
N45   C221  S    
C93   C107  S    
C71   C75   A    
C28   C52   A    
N20   H77   S    
C202  H102  S    
N13   C189  S    
C14   N46   S    
C208  H128  S    
C143  H14   S    
C2    C86   S    
C190  H54   S    
C101  O35   A    
C108  O6    A    
C11   C51   S    
C212  N36   T    
C48   O24   A    
C173  N41   S    
C139  N31   S    
C125  H23   S    
C115  C120  A    
C189  H52   S    
C217  H147  S    
C194  H70   S    
C162  C210  S    
O41   Zn5   S    
N19   H73   S    
C8    C102  S    
N26   H101  S    
C76   N16   S    
C101  O39   A    
