data_mof_unit_28021.cif
_audit_creation_date              2012-12-10T19:25:48-0500
_audit_creation_method            fapswitch 2.2
_symmetry_space_group_name_H-M    P1
_symmetry_Int_Tables_number       1
_space_group_crystal_system       triclinic
_cell_length_a                    9.810664
_cell_length_b                    10.498863
_cell_length_c                    16.66783
_cell_angle_alpha                 89.575163
_cell_angle_beta                  84.205079
_cell_angle_gamma                 90.885321
_cell_volume                      1707.75328093

loop_
_atom_site_label
_atom_site_type_symbol
_atom_type_description
_atom_site_fract_x
_atom_site_fract_y
_atom_site_fract_z
_atom_type_partial_charge
C1    C     C_R   0.501260 0.742200 0.497198 0.849775
C2    C     C_R   0.499023 0.257957 0.500077 0.919719
C3    C     C_3   0.472576 0.962274 0.424086 0.576912
C4    C     C_3   0.526471 0.038600 0.568262 0.610752
C5    C     C_3   0.595677 0.047731 0.439801 -0.268689
C6    C     C_3   0.402969 0.954009 0.552938 -0.305862
C7    C     C_3   0.497475 0.123359 0.497932 -0.103701
C8    C     C_3   0.502491 0.877296 0.494677 -0.134563
C9    C     C_3   0.373675 0.040760 0.480811 -0.282964
C10   C     C_3   0.625946 0.961549 0.511436 -0.296641
C11   C     C_3   0.957556 0.611707 0.481596 0.335210
C12   C     C_3   0.042342 0.388375 0.518376 0.321994
C13   C     C_3   0.060657 0.531737 0.429771 0.309789
C14   C     C_3   0.939919 0.468529 0.570214 0.307190
C15   C     C_3   0.039999 0.580126 0.551904 0.320285
C16   C     C_3   0.960304 0.420025 0.447971 0.332631
C17   C     C_R   0.479686 0.504066 0.652726 0.926334
C18   C     C_R   0.520238 0.501254 0.346801 0.874830
C19   C     C_R   0.463024 0.538766 0.736675 -0.171750
C20   C     C_R   0.534291 0.512040 0.259382 -0.182604
C21   C     C_R   0.536794 0.644421 0.760641 -0.247835
C22   C     C_R   0.430429 0.460291 0.217411 -0.243010
C23   C     C_R   0.515468 0.686817 0.839207 -0.230925
C24   C     C_R   0.434457 0.478195 0.135022 -0.236924
C25   C     C_R   0.420701 0.623211 0.894252 -0.081038
C26   C     C_R   0.542495 0.547747 0.093618 -0.067565
C27   C     C_R   0.338417 0.522732 0.869558 0.424241
C28   C     C_R   0.651508 0.594545 0.133665 0.441492
C29   C     C_R   0.363524 0.477239 0.790537 0.403199
C30   C     C_R   0.644700 0.581185 0.217786 0.387317
C31   C     C_2   0.436310 0.635371 0.980320 0.446994
C32   C     C_2   0.540098 0.569890 0.007145 0.475114
H1    H     H_    0.611662 0.693406 0.718563 0.163885
H2    H     H_    0.344963 0.407392 0.248592 0.196988
H3    H     H_    0.352319 0.439165 0.103350 0.198336
H4    H     H_    0.579502 0.763227 0.858772 0.163509
H5    H     H_    0.672375 0.090060 0.393195 0.180841
H6    H     H_    0.325575 0.912104 0.599305 0.179251
H7    H     H_    0.272216 0.077149 0.468427 0.187019
H8    H     H_    0.727849 0.927397 0.524480 0.187895
N1    N     N_3   0.136700 0.499970 0.500060 -0.184687
N2    N     N_3   0.863300 0.500030 0.499940 -0.183964
O1    O     O_R   0.383390 0.686040 0.500000 -0.606318
O2    O     O_R   0.616610 0.313960 0.500000 -0.585387
O3    O     O_R   0.616650 0.686050 0.499970 -0.584729
O4    O     O_R   0.383350 0.313950 0.500030 -0.579945
O5    O     O_R   0.369590 0.500020 0.615820 -0.558571
O6    O     O_R   0.630410 0.499980 0.384180 -0.549601
O7    O     O_R   0.602840 0.500020 0.615790 -0.571727
O8    O     O_R   0.397160 0.499980 0.384210 -0.582156
Zn1   Zn    Zn3+2 0.344250 0.499990 0.500020 1.052592
Zn2   Zn    Zn3+2 0.655750 0.500010 0.499980 1.066701
O9    O     O_3   0.901427 0.728406 0.459647 -0.581209
C33   C     C_3   0.997520 0.828883 0.463636 -0.343552
H9    H     H_    0.980034 0.901115 0.417021 0.155532
H10   H     H_    0.105781 0.798724 0.452736 0.191348
H11   H     H_    0.981419 0.875681 0.523104 0.177048
O10   O     O_3   0.096959 0.270854 0.540129 -0.576363
C34   C     C_3   0.995101 0.173913 0.543364 -0.309962
H12   H     H_    0.989552 0.132307 0.482872 0.174370
H13   H     H_    0.891690 0.206251 0.567865 0.210739
H14   H     H_    0.024614 0.096616 0.583586 0.164446
O11   O     O_3   0.093675 0.667058 0.605323 -0.581342
C35   C     C_3   0.986980 0.717953 0.658111 -0.302615
H15   H     H_    0.967470 0.657293 0.712903 0.189912
H16   H     H_    0.889599 0.730729 0.630101 0.174897
H17   H     H_    0.020368 0.813226 0.677677 0.160999
O12   O     O_3   0.907166 0.333422 0.394177 -0.577068
C36   C     C_3   0.014910 0.278994 0.343839 -0.306191
H18   H     H_    0.107841 0.259992 0.374993 0.179431
H19   H     H_    0.043244 0.340429 0.290216 0.184055
H20   H     H_    0.978279 0.186292 0.321946 0.163955
O13   O     O_3   0.746893 0.635111 0.258345 -0.640431
C37   C     C_3   0.707879 0.758394 0.282854 -0.161008
H21   H     H_    0.624376 0.752563 0.332665 0.190115
H22   H     H_    0.677243 0.817407 0.232034 0.181231
H23   H     H_    0.796383 0.807097 0.306493 0.179358
O14   O     O_3   0.292554 0.371879 0.766173 -0.621363
C38   C     C_3   0.364859 0.261788 0.783756 -0.263524
H24   H     H_    0.363421 0.246965 0.849983 0.168872
H25   H     H_    0.472455 0.265834 0.755179 0.188894
H26   H     H_    0.313697 0.177958 0.758974 0.204491
O15   O     O_3   0.646351 0.526542 0.953135 -0.609635
C39   C     C_3   0.648406 0.392317 0.956274 -0.365521
H27   H     H_    0.679049 0.357491 0.014889 0.163089
H28   H     H_    0.725613 0.358848 0.908138 0.192452
H29   H     H_    0.547518 0.349879 0.944830 0.169069
O16   O     O_3   0.332413 0.682218 0.034833 -0.617724
C40   C     C_3   0.277162 0.793364 0.003882 -0.326428
H30   H     H_    0.207503 0.836606 0.052400 0.193480
H31   H     H_    0.215457 0.770908 0.953337 0.162613
H32   H     H_    0.358821 0.865204 0.984493 0.155706
O17   O     O_3   0.252298 0.455749 0.926383 -0.617370
C41   C     C_3   0.115253 0.480292 0.913648 -0.259452
H33   H     H_    0.088197 0.439860 0.855923 0.186904
H34   H     H_    0.093750 0.583972 0.915623 0.143864
H35   H     H_    0.047565 0.432874 0.962528 0.172825
O18   O     O_3   0.754061 0.668022 0.091999 -0.598203
C42   C     C_3   0.875925 0.597781 0.083260 -0.222823
H36   H     H_    0.860184 0.503484 0.055399 0.148363
H37   H     H_    0.919052 0.585046 0.141775 0.177447
H38   H     H_    0.953171 0.651899 0.042819 0.183845
O19   O     O_3   0.457796 0.926390 0.343882 -0.646339
C43   C     C_3   0.327749 0.871347 0.338188 -0.344128
H39   H     H_    0.244770 0.939282 0.356287 0.147306
H40   H     H_    0.314528 0.781336 0.373306 0.218188
H41   H     H_    0.319487 0.846724 0.274239 0.210514
O20   O     O_3   0.554077 0.090421 0.642825 -0.617835
C44   C     C_3   0.577334 0.990641 0.696455 -0.392179
H42   H     H_    0.668384 0.934620 0.673863 0.163241
H43   H     H_    0.485397 0.927370 0.708204 0.172642
H44   H     H_    0.598509 0.032476 0.754924 0.188458
O21   O     O_3   0.138670 0.562720 0.356206 -0.600565
C45   C     C_3   0.053734 0.609091 0.299999 -0.267451
H45   H     H_    0.025275 0.708950 0.313490 0.196875
H46   H     H_    0.961159 0.548022 0.297129 0.233439
H47   H     H_    0.112028 0.608792 0.239409 0.179393
O22   O     O_3   0.865688 0.437647 0.645023 -0.578873
C46   C     C_3   0.954627 0.392953 0.700033 -0.229855
H48   H     H_    0.055422 0.444076 0.695169 0.209746
H49   H     H_    0.970691 0.289311 0.692547 0.191344
H50   H     H_    0.905101 0.407368 0.762031 0.158872

loop_
_geom_bond_atom_site_label_1
_geom_bond_atom_site_label_2
_ccdc_geom_bond_type
C25   C31   S    
C26   C32   S    
O17   C41   S    
C5    H5    S    
C27   C29   A    
C1    C8    S    
O13   C37   S    
C2    C7    S    
C39   H29   S    
O1    Zn1   S    
C6    C9    S    
C43   H40   S    
C45   H45   S    
C20   C30   A    
O9    C33   S    
C2    O4    A    
C4    O20   S    
C37   H22   S    
O15   C39   S    
C19   C21   A    
C24   C26   A    
C44   H43   S    
C21   H1    S    
C28   O18   S    
C9    H7    S    
O20   C44   S    
C11   N2    S    
C10   H8    S    
C36   H19   S    
O22   C46   S    
C11   C15   S    
C1    O1    A    
C29   O14   S    
C12   C16   S    
C2    O2    A    
O12   C36   S    
C14   O22   S    
C37   H23   S    
C6    H6    S    
C16   O12   S    
C40   H31   S    
C11   O9    S    
C14   N2    S    
C12   O10   S    
O2    Zn2   S    
C34   H12   S    
C36   H18   S    
C4    C7    S    
C13   N1    S    
C43   H39   S    
C46   H49   S    
C22   H2    S    
C33   H10   S    
C34   H13   S    
C24   H3    S    
C37   H21   S    
C35   H17   S    
C39   H27   S    
C15   N1    S    
C4    C6    S    
C3    C8    S    
C44   H44   S    
C17   O7    A    
C5    C7    S    
C30   O13   S    
O14   C38   S    
C6    C8    S    
C41   H35   S    
O10   C34   S    
O4    Zn1   S    
C38   H24   S    
C35   H16   S    
C36   H20   S    
C12   N1    S    
C3    C9    S    
C45   H46   S    
C31   C32   D    
O7    Zn2   S    
O8    Zn1   S    
C40   H32   S    
C41   H34   S    
C42   H37   S    
C12   C14   S    
C23   H4    S    
C21   C23   A    
C22   C24   A    
C27   O17   S    
C4    C10   S    
C19   C29   A    
C16   N2    S    
C18   O8    A    
C38   H25   S    
O21   C45   S    
C46   H50   S    
C3    O19   S    
C7    C9    S    
C32   O15   S    
C33   H9    S    
C34   H14   S    
C31   O16   S    
C17   O5    A    
C20   C22   A    
C3    C5    S    
C18   O6    A    
C38   H26   S    
O5    Zn1   S    
C46   H48   S    
C25   C27   A    
C26   C28   A    
O3    Zn2   S    
C42   H36   S    
C35   H15   S    
C28   C30   A    
C5    C10   S    
C44   H42   S    
C11   C13   S    
C1    O3    A    
C17   C19   S    
C18   C20   S    
C23   C25   A    
C41   H33   S    
C45   H47   S    
O11   C35   S    
O6    Zn2   S    
C42   H38   S    
O16   C40   S    
C8    C10   S    
O18   C42   S    
C13   C16   S    
O19   C43   S    
C15   O11   S    
C14   C15   S    
C39   H28   S    
C40   H30   S    
N1    Zn1   S    
C43   H41   S    
C13   O21   S    
N2    Zn2   S    
C33   H11   S    
