data_mof_unit_44960.cif
_audit_creation_date              2012-12-11T15:15:40-0500
_audit_creation_method            fapswitch 2.2
_symmetry_space_group_name_H-M    P1
_symmetry_Int_Tables_number       1
_space_group_crystal_system       triclinic
_cell_length_a                    20.58407
_cell_length_b                    22.809166
_cell_length_c                    6.929993
_cell_angle_alpha                 89.757839
_cell_angle_beta                  87.91556
_cell_angle_gamma                 90.256146
_cell_volume                      3251.45283823

loop_
_atom_site_label
_atom_site_type_symbol
_atom_type_description
_atom_site_fract_x
_atom_site_fract_y
_atom_site_fract_z
_atom_type_partial_charge
O1    O     O_R   0.387100 0.552640 0.378490 -0.542864
O2    O     O_R   0.612900 0.052640 0.621510 -0.511195
O3    O     O_R   0.249610 0.559600 0.072250 -0.540454
O4    O     O_R   0.750390 0.059600 0.927750 -0.547121
O5    O     O_R   0.249120 0.447360 0.902040 -0.522933
O6    O     O_R   0.750880 0.947360 0.097960 -0.529138
C1    C     C_R   0.229100 0.575705 0.242230 0.933320
C2    C     C_R   0.769601 0.076761 0.756839 0.937272
O7    O     O_R   0.386610 0.559560 0.048860 -0.521547
O8    O     O_R   0.613390 0.059560 0.951140 -0.545304
O9    O     O_R   0.387100 0.447320 0.878470 -0.523326
O10   O     O_R   0.612900 0.947320 0.121530 -0.546076
C3    C     C_R   0.408262 0.574732 0.215843 0.838470
C4    C     C_R   0.592414 0.074773 0.784049 0.862669
O11   O     O_R   0.249120 0.552680 0.402050 -0.504491
O12   O     O_R   0.750880 0.052680 0.597950 -0.502498
O13   O     O_3   0.318110 0.463180 0.223790 -0.392951
O14   O     O_3   0.681890 0.963180 0.776210 -0.395561
V1    V     V_3+5 0.318110 0.506830 0.948930 1.625244
V2    V     V_3+5 0.681890 0.006830 0.051070 1.613863
O15   O     O_R   0.386610 0.440400 0.548840 -0.550759
O16   O     O_R   0.613390 0.940400 0.451160 -0.534318
C5    C     C_R   0.406723 0.424182 0.715752 0.809905
C6    C     C_R   0.592007 0.925038 0.284890 0.804086
O17   O     O_R   0.249610 0.440440 0.572240 -0.559890
O18   O     O_R   0.750390 0.940440 0.427760 -0.560392
C7    C     C_R   0.226966 0.426424 0.743349 0.746239
C8    C     C_R   0.772458 0.925933 0.257534 0.755788
V3    V     V_3+5 0.318110 0.493170 0.448930 1.574469
V4    V     V_3+5 0.681890 0.993170 0.551070 1.624081
O19   O     O_3   0.318110 0.536820 0.723940 -0.366255
O20   O     O_3   0.681890 0.036820 0.276060 -0.360780
C9    C     C_R   0.173274 0.382558 0.752065 -0.144872
C10   C     C_R   0.824782 0.880974 0.251723 -0.144966
C11   C     C_R   0.124181 0.386390 0.613272 -0.195447
C12   C     C_R   0.874790 0.884585 0.388076 -0.182527
C13   C     C_R   0.080124 0.339551 0.589172 -0.036839
C14   C     C_R   0.919193 0.838002 0.408616 -0.057154
C15   C     C_R   0.080152 0.292055 0.720151 0.000954
C16   C     C_R   0.917587 0.790322 0.279648 -0.007750
C17   C     C_R   0.124909 0.290639 0.866788 -0.092044
C18   C     C_R   0.869880 0.787835 0.141350 -0.063160
C19   C     C_R   0.171959 0.334787 0.884842 -0.044034
C20   C     C_R   0.822499 0.831598 0.127788 -0.045900
C21   C     C_R   0.869453 0.211033 0.891531 0.657586
C22   C     C_R   0.129059 0.710114 0.111625 0.651252
C23   C     C_R   0.819284 0.169017 0.896644 -0.224887
C24   C     C_R   0.178042 0.667603 0.104251 -0.213933
C25   C     C_R   0.862068 0.130452 0.589418 0.601845
C26   C     C_R   0.132933 0.625136 0.403437 0.603465
C27   C     C_R   0.911279 0.172738 0.586516 0.610147
C28   C     C_R   0.083989 0.667514 0.407788 0.589430
C29   C     C_R   0.915985 0.212345 0.739432 -0.281922
C30   C     C_R   0.081137 0.709549 0.259855 -0.275004
C31   C     C_2   0.030328 0.245186 0.717232 0.542643
C32   C     C_2   0.966888 0.743089 0.281026 0.549403
C33   C     C_2   0.966754 0.258186 0.736884 0.599822
C34   C     C_2   0.030832 0.755631 0.262542 0.596888
C35   C     C_R   0.816922 0.126283 0.746704 -0.394408
C36   C     C_R   0.179681 0.623307 0.249953 -0.398601
H1    H     H_    0.123220 0.254161 0.967823 0.201524
H2    H     H_    0.868991 0.750492 0.045080 0.204142
C37   C     C_R   0.576091 0.362358 0.694007 -0.131522
C38   C     C_R   0.422467 0.862150 0.353936 -0.135295
C39   C     C_R   0.460477 0.381165 0.718033 -0.192265
C40   C     C_R   0.537082 0.882589 0.285609 -0.189812
C41   C     C_R   0.474140 0.090947 0.825528 -0.116989
C42   C     C_R   0.527610 0.594022 0.223963 -0.115185
C43   C     C_R   0.420013 0.128110 0.844552 -0.099193
C44   C     C_R   0.580866 0.631333 0.259849 -0.102224
C45   C     C_R   0.427742 0.189799 0.829496 -0.023823
C46   C     C_R   0.571061 0.691829 0.296852 -0.048876
C47   C     C_R   0.489145 0.215796 0.770473 -0.023111
C48   C     C_R   0.508421 0.717418 0.274773 -0.016105
C49   C     C_R   0.543665 0.176885 0.748829 -0.146983
C50   C     C_R   0.454100 0.678668 0.253224 -0.147052
C51   C     C_R   0.499610 0.278533 0.736773 0.024031
C52   C     C_R   0.497202 0.780081 0.283454 0.029646
C53   C     C_R   0.564612 0.300594 0.709396 -0.236247
C54   C     C_R   0.432794 0.801272 0.316674 -0.235234
C55   C     C_R   0.616350 0.260549 0.694490 0.597376
C56   C     C_R   0.380497 0.761575 0.303699 0.640820
C57   C     C_R   0.605618 0.200686 0.702205 0.530098
C58   C     C_R   0.390867 0.702334 0.268593 0.497202
C59   C     C_R   0.448451 0.320435 0.722717 -0.188882
C60   C     C_R   0.547522 0.822618 0.252462 -0.223277
C61   C     C_R   0.524139 0.401535 0.705628 0.553258
C62   C     C_R   0.474775 0.901745 0.337962 0.586212
C63   C     C_R   0.535993 0.115107 0.780812 -0.107792
C64   C     C_R   0.463915 0.617108 0.223421 -0.108562
H3    H     H_    0.398771 0.307842 0.704849 0.149255
H4    H     H_    0.595150 0.810242 0.198848 0.161112
C65   C     C_2   0.114575 0.441962 0.506176 0.962991
O21   O     O_2   0.080597 0.479893 0.580636 -0.417338
O22   O     O_R   0.141221 0.450919 0.320201 -0.632952
H5    H     H_    0.168448 0.416701 0.273528 0.259387
C66   C     C_2   0.882014 0.938305 0.505909 0.937420
O23   O     O_2   0.898672 0.983935 0.426073 -0.439494
O24   O     O_R   0.870865 0.937563 0.706004 -0.630401
H6    H     H_    0.856438 0.897681 0.756167 0.254862
F1    F     F_    0.953511 0.175883 0.431625 -0.545266
F2    F     F_    0.040368 0.668397 0.559499 -0.544448
F3    F     F_    0.535538 0.460221 0.691819 -0.635267
F4    F     F_    0.465120 0.959567 0.375585 -0.625782
F5    F     F_    0.679125 0.278283 0.669440 -0.610283
F6    F     F_    0.317833 0.779986 0.310249 -0.582644
C67   C     C_2   0.641339 0.388724 0.661011 1.080596
O25   O     O_2   0.670906 0.381634 0.506669 -0.475033
O26   O     O_R   0.667317 0.424221 0.803152 -0.603284
H7    H     H_    0.711594 0.440739 0.762961 0.350287
C68   C     C_2   0.358976 0.886055 0.423119 1.050779
O27   O     O_2   0.329762 0.863494 0.561413 -0.484874
O28   O     O_R   0.334114 0.936093 0.335530 -0.578563
H8    H     H_    0.291120 0.948867 0.397428 0.352746
C69   C     C_2   0.466821 0.026700 0.867794 0.839945
O29   O     O_2   0.433740 0.010072 0.007810 -0.490600
O30   O     O_R   0.498474 0.985447 0.749664 -0.633119
H9    H     H_    0.490266 0.943650 0.795016 0.299915
C70   C     C_2   0.537636 0.529213 0.209095 0.847882
O31   O     O_2   0.573661 0.504220 0.318974 -0.495780
O32   O     O_R   0.504976 0.496631 0.072486 -0.629796
H10   H     H_    0.513854 0.453078 0.083346 0.311474
C71   C     C_2   0.371130 0.224541 0.894679 0.797069
O33   O     O_2   0.373457 0.253395 0.042383 -0.533340
O34   O     O_R   0.314256 0.221738 0.790642 -0.638940
H11   H     H_    0.276686 0.243100 0.855669 0.321736
C72   C     C_2   0.624141 0.725098 0.388064 0.815196
O35   O     O_2   0.678190 0.728179 0.309059 -0.526346
O36   O     O_R   0.611583 0.753645 0.563562 -0.647983
H12   H     H_    0.651025 0.775454 0.610153 0.310395
C73   C     C_2   0.354423 0.101813 0.884869 0.928270
O37   O     O_2   0.332332 0.066600 0.771611 -0.493434
O38   O     O_R   0.318798 0.116618 0.053188 -0.617840
H13   H     H_    0.275253 0.095703 0.064218 0.349948
C74   C     C_2   0.647366 0.606071 0.261859 0.937925
O39   O     O_2   0.678585 0.608019 0.408556 -0.487052
O40   O     O_R   0.673100 0.578436 0.096614 -0.612738
H14   H     H_    0.718221 0.562253 0.115628 0.352688
F7    F     F_    0.658063 0.166289 0.663746 -0.683269
F8    F     F_    0.337159 0.668164 0.256464 -0.704000
C75   C     C_2   0.768864 0.173536 0.055439 1.009604
O41   O     O_2   0.711376 0.167017 0.022409 -0.539975
O42   O     O_R   0.787021 0.187639 0.242135 -0.588268
H15   H     H_    0.748492 0.189916 0.337190 0.342536
C76   C     C_2   0.227797 0.673213 0.945836 1.031694
O43   O     O_2   0.267793 0.712936 0.949008 -0.471633
O44   O     O_R   0.226007 0.636056 0.786618 -0.615761
H16   H     H_    0.260806 0.646033 0.684257 0.309583
F9    F     F_    0.858626 0.093778 0.436741 -0.581843
F10   F     F_    0.134232 0.585681 0.549843 -0.572020
F11   F     F_    0.948074 0.314596 0.769953 -0.607152
F12   F     F_    0.050474 0.812007 0.229224 -0.605726
F13   F     F_    0.872561 0.251736 0.033870 -0.555942
F14   F     F_    0.127313 0.751651 0.970380 -0.568080
C77   C     C_2   0.217758 0.328794 0.045301 0.714608
O45   O     O_2   0.199055 0.305871 0.197493 -0.537737
O46   O     O_R   0.282493 0.346876 0.022384 -0.656372
H17   H     H_    0.306966 0.343217 0.146153 0.328257
C78   C     C_2   0.770403 0.822464 0.987534 0.788612
O47   O     O_2   0.783042 0.798026 0.833960 -0.545365
O48   O     O_R   0.706558 0.839436 0.032642 -0.666637
H18   H     H_    0.675996 0.830861 0.924723 0.285960
F15   F     F_    0.050070 0.188323 0.711355 -0.596731
F16   F     F_    0.946165 0.686325 0.285061 -0.590409
C79   C     C_2   0.036040 0.338662 0.422967 0.860541
O49   O     O_2   0.005024 0.382205 0.381040 -0.464042
O50   O     O_R   0.030011 0.287421 0.314824 -0.618821
H19   H     H_    0.998965 0.292000 0.205526 0.363912
C80   C     C_2   0.965863 0.837908 0.568128 0.851421
O51   O     O_2   0.998905 0.881327 0.599027 -0.458556
O52   O     O_R   0.972081 0.787649 0.682152 -0.626018
H20   H     H_    0.005058 0.792755 0.786024 0.364929

loop_
_geom_bond_atom_site_label_1
_geom_bond_atom_site_label_2
_ccdc_geom_bond_type
V4    O20   S    
O52   H20   S    
C65   O21   D    
C3    C64   S    
C77   O46   S    
O13   V3    S    
C80   O51   D    
O44   H16   S    
C17   H1    S    
O4    C2    A    
V1    O19   S    
C50   C58   A    
C57   F7    S    
O48   H18   S    
C59   H3    S    
C71   O33   D    
C15   C17   A    
C37   C53   A    
C7    C9    S    
C28   F2    S    
C79   O49   D    
C48   C50   A    
C45   C71   S    
C11   C13   A    
O28   H8    S    
O3    C1    A    
C75   O42   S    
C42   C70   S    
C40   C62   A    
C52   C54   A    
C71   O34   S    
O12   V4    S    
C69   O29   D    
C66   O23   D    
C41   C63   A    
O10   C6    A    
C2    O12   A    
C43   C45   A    
C41   C69   S    
O7    C3    A    
C66   O24   S    
O5    C7    A    
O7    V1    S    
O46   H17   S    
O6    C8    A    
O22   H5    S    
C56   F6    S    
C34   F12   S    
C16   C32   S    
C26   C28   A    
C67   O25   D    
C78   O48   S    
O3    V1    S    
C12   C66   S    
O14   V4    S    
C18   H2    S    
C10   C12   A    
C6    C40   S    
C24   C36   A    
C15   C31   S    
C52   C60   A    
C21   C23   A    
O34   H11   S    
C51   C59   A    
C79   O50   S    
C38   C54   A    
O10   V2    S    
C18   C20   A    
C19   C77   S    
C62   F4    S    
C28   C30   A    
O11   V3    S    
C55   F5    S    
C70   O32   S    
O17   V3    S    
C22   F14   S    
C22   C24   A    
C23   C35   A    
C76   O44   S    
C46   C72   S    
C9    C19   A    
C74   O39   D    
C10   C20   A    
C76   O43   D    
C46   C48   A    
O8    C4    A    
O8    V2    S    
O50   H19   S    
C53   C55   A    
C29   C33   S    
O13   V1    S    
C38   C68   S    
C13   C79   S    
C1    O11   A    
C25   C27   A    
O15   V3    S    
C27   C29   A    
C20   C78   S    
C72   O36   S    
C4    C63   S    
C40   C60   A    
C2    C35   S    
O38   H13   S    
C26   F10   S    
C11   C65   S    
C42   C64   A    
C78   O47   D    
C43   C73   S    
O9    V1    S    
C24   C76   S    
C22   C30   A    
O1    V3    S    
C51   C53   A    
C68   O28   S    
C39   C61   A    
O32   H10   S    
C61   F3    S    
C54   C56   A    
O18   V4    S    
C56   C58   A    
C31   C33   D    
C44   C74   S    
C30   C34   S    
O16   C6    A    
O1    C3    A    
C47   C49   A    
C37   C67   S    
C72   O35   D    
C1    C36   S    
C14   C80   S    
C45   C47   A    
O36   H12   S    
V2    O20   S    
C74   O40   S    
C69   O30   S    
O16   V4    S    
C68   O27   D    
C37   C61   A    
C17   C19   A    
C16   C18   A    
C73   O38   S    
C55   C57   A    
C70   O31   D    
C39   C59   A    
O5    V1    S    
C27   F1    S    
O6    V2    S    
O40   H14   S    
C23   C75   S    
O18   C8    A    
C25   C35   A    
O24   H6    S    
C25   F9    S    
O2    V4    S    
C26   C36   A    
C5    C39   S    
O15   C5    A    
O42   H15   S    
C31   F15   S    
V3    O19   S    
C60   H4    S    
O30   H9    S    
C32   F16   S    
C12   C14   A    
C14   C16   A    
C49   C57   A    
C67   O26   S    
C33   F11   S    
O9    C5    A    
C9    C11   A    
C32   C34   D    
O14   V2    S    
C8    C10   S    
O2    C4    A    
C49   C63   A    
O17   C7    A    
C21   C29   A    
O4    V2    S    
C13   C15   A    
C21   F13   S    
C58   F8    S    
C65   O22   S    
C48   C52   A    
O26   H7    S    
C77   O45   D    
C42   C44   A    
C47   C51   A    
C44   C46   A    
C41   C43   A    
C75   O41   D    
C38   C62   A    
C73   O37   D    
C50   C64   A    
C80   O52   S    
