data_mof_unit_11242.cif
_audit_creation_date              2012-12-11T15:07:29-0500
_audit_creation_method            fapswitch 2.2
_symmetry_space_group_name_H-M    P1
_symmetry_Int_Tables_number       1
_space_group_crystal_system       triclinic
_cell_length_a                    21.657273
_cell_length_b                    7.208711
_cell_length_c                    18.594418
_cell_angle_alpha                 89.867833
_cell_angle_beta                  95.960706
_cell_angle_gamma                 89.714389
_cell_volume                      2887.23662914

loop_
_atom_site_label
_atom_site_type_symbol
_atom_type_description
_atom_site_fract_x
_atom_site_fract_y
_atom_site_fract_z
_atom_type_partial_charge
O1    O     O_R   0.449650 0.506500 0.414480 -0.531663
O2    O     O_R   0.550350 0.006500 0.585520 -0.531504
O3    O     O_R   0.432010 0.173150 0.560250 -0.537361
O4    O     O_R   0.567990 0.673150 0.439750 -0.531831
C1    C     C_R   0.416254 0.344946 0.581258 0.682743
C2    C     C_R   0.583723 0.844537 0.418774 0.681013
O5    O     O_R   0.442320 0.176650 0.413480 -0.535755
O6    O     O_R   0.557680 0.676650 0.586520 -0.534635
O7    O     O_R   0.560730 0.008380 0.437700 -0.536005
O8    O     O_R   0.439270 0.508380 0.562300 -0.541230
C3    C     C_R   0.428591 0.345528 0.387556 0.680195
C4    C     C_R   0.571928 0.844379 0.612154 0.677214
O9    O     O_3   0.538840 0.339860 0.508120 -0.368573
O10   O     O_3   0.461160 0.839860 0.491880 -0.375230
V1    V     V_3+5 0.492800 0.064220 0.498490 1.432040
V2    V     V_3+5 0.507200 0.564220 0.501510 1.440011
C5    C     C_R   0.868778 0.022824 0.691999 -0.160862
C6    C     C_R   0.127944 0.465205 0.310701 -0.160092
H1    H     H_    0.956747 0.048589 0.755399 0.103298
H2    H     H_    0.039862 0.492017 0.247277 0.101740
H3    H     H_    0.785371 0.043241 0.577454 0.125144
H4    H     H_    0.209432 0.455537 0.427201 0.123334
H5    H     H_    0.887313 0.071214 0.643397 0.112760
H6    H     H_    0.107628 0.486650 0.360921 0.112325
C7    C     C_R   0.886539 0.946706 0.819392 -0.037136
C8    C     C_R   0.113568 0.440142 0.180307 -0.033909
C9    C     C_R   0.589292 0.779084 0.742368 -0.164304
C10   C     C_R   0.414829 0.326915 0.254807 -0.159146
C11   C     C_R   0.626163 0.764094 0.807864 -0.105242
C12   C     C_R   0.378929 0.328477 0.188341 -0.104056
C13   C     C_R   0.688794 0.810544 0.812954 -0.155836
C14   C     C_R   0.314871 0.355370 0.184269 -0.158529
C15   C     C_R   0.716526 0.873627 0.751849 0.076435
C16   C     C_R   0.284633 0.382025 0.247364 0.075481
C17   C     C_R   0.677745 0.893150 0.684780 0.071166
C18   C     C_R   0.322031 0.381576 0.315713 0.070459
C19   C     C_R   0.781494 0.915714 0.754947 0.072917
C20   C     C_R   0.218668 0.408991 0.244898 0.073776
C21   C     C_R   0.805696 0.977874 0.690970 0.139202
C22   C     C_R   0.192131 0.436273 0.310889 0.139367
C23   C     C_R   0.766899 0.996118 0.626285 -0.201015
C24   C     C_R   0.229647 0.435122 0.376842 -0.202033
C25   C     C_R   0.704085 0.954236 0.623092 -0.195862
C26   C     C_R   0.293413 0.407934 0.379347 -0.192367
C27   C     C_R   0.823514 0.899417 0.819077 -0.213066
C28   C     C_R   0.177823 0.410480 0.179574 -0.212486
C29   C     C_R   0.908560 0.009059 0.755673 -0.165171
C30   C     C_R   0.089174 0.467996 0.246048 -0.166735
C31   C     C_R   0.613646 0.846051 0.680682 -0.086685
C32   C     C_R   0.387416 0.353494 0.318833 -0.085126
H7    H     H_    0.808657 0.855155 0.869890 0.098625
H8    H     H_    0.194308 0.390682 0.127398 0.095983
H9    H     H_    0.541382 0.735559 0.739379 0.143883
H10   H     H_    0.464489 0.304598 0.256354 0.119669
H11   H     H_    0.714332 0.793461 0.865409 0.114453
H12   H     H_    0.290377 0.354501 0.130827 0.114258
H13   H     H_    0.606171 0.713199 0.855093 0.140836
H14   H     H_    0.400990 0.308034 0.139290 0.137845
H15   H     H_    0.676256 0.969753 0.571573 0.117708
H16   H     H_    0.320238 0.408048 0.431847 0.107602
C33   C     C_R   0.632485 0.009946 0.320527 -0.177884
C34   C     C_R   0.364518 0.516664 0.676390 -0.174594
C35   C     C_R   0.632528 0.857763 0.368172 -0.102670
C36   C     C_R   0.367634 0.358455 0.632283 -0.086877
C37   C     C_R   0.679135 0.722364 0.367367 -0.174070
C38   C     C_R   0.324195 0.216260 0.637036 -0.192523
C39   C     C_R   0.725043 0.737696 0.319593 0.116696
C40   C     C_R   0.277395 0.232816 0.683628 0.145231
C41   C     C_R   0.726046 0.894703 0.273741 0.042176
C42   C     C_R   0.274776 0.391653 0.727913 0.060445
C43   C     C_R   0.679842 0.034631 0.274531 0.015396
C44   C     C_R   0.319705 0.533397 0.726104 0.019729
C45   C     C_R   0.769932 0.597552 0.316755 -0.178205
C46   C     C_R   0.233437 0.091502 0.687219 -0.161847
C47   C     C_R   0.815585 0.611632 0.269164 -0.201661
C48   C     C_R   0.187206 0.106338 0.734089 -0.190585
C49   C     C_R   0.817720 0.767230 0.224055 0.099439
C50   C     C_R   0.183575 0.263764 0.777694 0.099191
C51   C     C_R   0.772983 0.909634 0.226405 0.061061
C52   C     C_R   0.227237 0.407437 0.774388 0.062772
C53   C     C_R   0.775060 0.065946 0.181097 0.069104
C54   C     C_R   0.223386 0.566314 0.817730 0.066899
C55   C     C_R   0.729579 0.204234 0.182153 -0.217441
C56   C     C_R   0.268077 0.705201 0.816339 -0.225877
C57   C     C_R   0.681724 0.191161 0.227741 -0.023652
C58   C     C_R   0.317393 0.688739 0.773073 -0.029280
C59   C     C_R   0.863792 0.782209 0.176491 -0.208550
C60   C     C_R   0.137155 0.279353 0.824797 -0.210876
C61   C     C_R   0.866770 0.939126 0.131611 -0.082322
C62   C     C_R   0.132846 0.438160 0.868177 -0.080902
C63   C     C_R   0.822333 0.081159 0.134771 -0.207696
C64   C     C_R   0.175900 0.581913 0.863605 -0.209652
H17   H     H_    0.594028 0.105699 0.319014 0.166229
H18   H     H_    0.397032 0.627499 0.670863 0.160025
H19   H     H_    0.679438 0.604204 0.403587 0.143704
H20   H     H_    0.326014 0.094035 0.603444 0.119159
H21   H     H_    0.769421 0.475868 0.351019 0.130480
H22   H     H_    0.235174 0.968295 0.654187 0.116525
H23   H     H_    0.849364 0.500631 0.267739 0.127584
H24   H     H_    0.154233 0.994374 0.736221 0.124756
H25   H     H_    0.897889 0.671972 0.175095 0.124161
H26   H     H_    0.103970 0.167935 0.827138 0.124285
H27   H     H_    0.823751 0.201857 0.100103 0.130253
H28   H     H_    0.173428 0.704129 0.897080 0.130641
H29   H     H_    0.731543 0.324375 0.147233 0.159320
H30   H     H_    0.265859 0.824309 0.851555 0.161974
O11   O     O_R   0.060820 0.290050 0.937800 -0.538967
O12   O     O_R   0.939180 0.790050 0.062200 -0.538515
O13   O     O_R   0.057690 0.616620 0.086540 -0.536128
O14   O     O_R   0.942310 0.116620 0.913460 -0.536416
C65   C     C_R   0.071622 0.448285 0.112437 0.684352
C66   C     C_R   0.928522 0.949445 0.887359 0.684144
O15   O     O_R   0.068010 0.619890 0.939770 -0.541121
O16   O     O_R   0.931990 0.119890 0.060230 -0.540551
O17   O     O_R   0.949640 0.787940 0.914460 -0.532833
O18   O     O_R   0.050360 0.287940 0.085540 -0.532276
C67   C     C_R   0.083904 0.450885 0.918553 0.695787
C68   C     C_R   0.915883 0.951202 0.081294 0.696690
O19   O     O_3   0.961210 0.453080 0.991940 -0.373452
O20   O     O_3   0.038790 0.953080 0.008060 -0.373246
V3    V     V_3+5 0.007200 0.728820 0.001500 1.412315
V4    V     V_3+5 0.992800 0.228820 0.998500 1.413650
C69   C     C_2   0.635141 0.344494 0.223940 0.745792
O21   O     O_2   0.618605 0.417969 0.165695 -0.551288
O22   O     O_R   0.611860 0.410584 0.286399 -0.681600
H31   H     H_    0.580427 0.514440 0.275989 0.292625
C70   C     C_2   0.367057 0.830974 0.782684 0.753478
O23   O     O_2   0.353820 0.991660 0.795760 -0.554402
O24   O     O_R   0.429315 0.779982 0.782308 -0.677508
H32   H     H_    0.458337 0.889092 0.791981 0.291364

loop_
_geom_bond_atom_site_label_1
_geom_bond_atom_site_label_2
_ccdc_geom_bond_type
C38   C40   A    
C35   C37   A    
O17   V3    S    
C9    C11   A    
C23   C25   A    
O1    C3    A    
O12   V3    S    
O2    C4    A    
C2    O7    A    
C4    C31   S    
O3    V1    S    
C69   O21   D    
C46   H22   S    
C45   H21   S    
C5    H5    S    
O18   V4    S    
C6    H6    S    
C48   C50   A    
O13   C65   A    
C50   C52   A    
C69   O22   S    
C27   H7    S    
C40   C46   A    
C28   H8    S    
C54   C64   A    
C41   C43   A    
C5    C21   A    
C33   C35   A    
C6    C22   A    
C34   C36   A    
C7    C66   S    
C43   C57   A    
C10   C32   A    
C37   C39   A    
C17   C31   A    
C56   H30   S    
C13   C15   A    
C65   O18   A    
C39   C45   A    
C61   C63   A    
C17   C25   A    
C7    C29   A    
C16   C18   A    
C25   H15   S    
C33   C43   A    
O5    V1    S    
O6    V2    S    
C59   H25   S    
C45   C47   A    
C24   C26   A    
C53   C55   A    
C49   C51   A    
C19   C21   A    
C42   C52   A    
C12   C14   A    
C62   C67   S    
O12   C68   A    
C52   C54   A    
C63   H27   S    
C33   H17   S    
C51   C53   A    
C10   H10   S    
C15   C19   A    
C55   H29   S    
C1    C36   S    
C39   C41   A    
C36   C38   A    
C2    C35   S    
O4    V2    S    
O5    C3    A    
C70   O24   S    
C62   C64   A    
O6    C4    A    
C47   H23   S    
C34   C44   A    
O1    V2    S    
H2    C30   S    
C53   C63   A    
O2    V1    S    
C47   C49   A    
C49   C59   A    
O16   C68   A    
C46   C48   A    
H3    C23   S    
O4    C2    A    
C55   C57   A    
C11   H13   S    
C54   C56   A    
C34   H18   S    
O22   H31   S    
O15   C67   A    
C41   C51   A    
C19   C27   A    
C70   O23   D    
C7    C27   A    
C18   C32   A    
O20   V3    S    
C38   H20   S    
O24   H32   S    
O19   V4    S    
C50   C60   A    
C58   C70   S    
C16   C20   A    
C5    C29   A    
C60   C62   A    
O3    C1    A    
C6    C30   A    
C60   H26   S    
C9    H9    S    
C8    C30   A    
C44   C58   A    
C48   H24   S    
C10   C12   A    
O7    V1    S    
C1    O8    A    
C11   C13   A    
C3    C32   S    
O8    V2    S    
O14   V4    S    
C20   C22   A    
O13   V3    S    
H4    C24   S    
C26   H16   S    
C12   H14   S    
C22   C24   A    
C15   C17   A    
C14   H12   S    
C57   C69   S    
H1    C29   S    
O14   C66   A    
C20   C28   A    
C18   C26   A    
C64   H28   S    
O16   V4    S    
C37   H19   S    
O15   V3    S    
C61   C68   S    
C21   C23   A    
C40   C42   A    
O9    V2    S    
C59   C61   A    
O10   V1    S    
C56   C58   A    
C42   C44   A    
O11   V4    S    
C13   H11   S    
C8    C28   A    
C8    C65   S    
O11   C67   A    
C66   O17   A    
C9    C31   A    
C14   C16   A    
