data_mof_unit_48620.cif
_audit_creation_date              2012-12-11T14:13:19-0500
_audit_creation_method            fapswitch 2.2
_symmetry_space_group_name_H-M    P1
_symmetry_Int_Tables_number       1
_space_group_crystal_system       triclinic
_cell_length_a                    17.48577
_cell_length_b                    17.523201
_cell_length_c                    17.355964
_cell_angle_alpha                 89.664218
_cell_angle_beta                  89.812929
_cell_angle_gamma                 90.191366
_cell_volume                      5317.83332847

loop_
_atom_site_label
_atom_site_type_symbol
_atom_type_description
_atom_site_fract_x
_atom_site_fract_y
_atom_site_fract_z
_atom_type_partial_charge
C1    C     C_R   0.606293 0.303416 0.095093 -0.173152
C2    C     C_R   0.664613 0.575133 0.145754 -0.177100
C3    C     C_R   0.393275 0.695572 0.098956 -0.171409
C4    C     C_R   0.335471 0.424173 0.145930 -0.174573
C5    C     C_R   0.575514 0.664806 0.854113 -0.173918
C6    C     C_R   0.697533 0.393621 0.907705 -0.178421
C7    C     C_R   0.413054 0.322802 0.864030 -0.182549
C8    C     C_R   0.304540 0.605930 0.898989 -0.174227
C9    C     C_R   0.075545 0.834707 0.645734 -0.174898
C10   C     C_R   0.197535 0.107218 0.591553 -0.179403
C11   C     C_R   0.909041 0.180444 0.632119 -0.182113
C12   C     C_R   0.804685 0.894590 0.602606 -0.172309
C13   C     C_R   0.105785 0.195178 0.397803 -0.168533
C14   C     C_R   0.165065 0.924780 0.354139 -0.175482
C15   C     C_R   0.893147 0.803482 0.403862 -0.174081
C16   C     C_R   0.819913 0.090636 0.367170 -0.182188
C17   C     C_R   0.579229 0.668061 0.145037 0.033718
C18   C     C_R   0.304318 0.606373 0.103689 0.033775
C19   C     C_R   0.420365 0.330421 0.144194 0.035746
C20   C     C_R   0.696097 0.391222 0.099870 0.038808
C21   C     C_R   0.609915 0.304567 0.900846 0.046625
C22   C     C_R   0.326084 0.414854 0.859826 0.026623
C23   C     C_R   0.393690 0.695404 0.895772 0.034139
C24   C     C_R   0.668644 0.579406 0.855004 0.033588
C25   C     C_R   0.109856 0.195588 0.598592 0.045403
C26   C     C_R   0.821460 0.087827 0.635711 0.028179
C27   C     C_R   0.893202 0.804764 0.604643 0.036006
C28   C     C_R   0.168539 0.920661 0.644845 0.033268
C29   C     C_R   0.079459 0.831793 0.354960 0.033217
C30   C     C_R   0.805030 0.891707 0.397290 0.040851
C31   C     C_R   0.912828 0.177710 0.363310 0.028350
C32   C     C_R   0.195462 0.106624 0.395448 0.035074
C33   C     C_R   0.681256 0.313861 0.110760 0.080863
C34   C     C_R   0.635226 0.632694 0.189570 0.076763
C35   C     C_R   0.319362 0.682234 0.119477 0.077512
C36   C     C_R   0.365129 0.366122 0.189656 0.071740
C37   C     C_R   0.632961 0.635013 0.809950 0.073741
C38   C     C_R   0.687309 0.319086 0.891985 0.081394
C39   C     C_R   0.353580 0.351401 0.821770 0.071680
C40   C     C_R   0.317890 0.679972 0.878748 0.078903
C41   C     C_R   0.133180 0.864368 0.689674 0.073666
C42   C     C_R   0.187210 0.181896 0.607090 0.081684
C43   C     C_R   0.846987 0.152832 0.672503 0.069832
C44   C     C_R   0.817562 0.820467 0.622439 0.074347
C45   C     C_R   0.179915 0.182199 0.377997 0.074369
C46   C     C_R   0.135715 0.867250 0.310215 0.073025
C47   C     C_R   0.819448 0.815739 0.384195 0.067445
C48   C     C_R   0.848250 0.151804 0.325933 0.071469
C49   C     C_2   0.706036 0.645867 0.686406 -0.121840
C50   C     C_2   0.248978 0.801662 0.864133 -0.117072
C51   C     C_2   0.295265 0.345532 0.694124 -0.100339
C52   C     C_2   0.745878 0.195745 0.859444 -0.114505
C53   C     C_2   0.804537 0.249572 0.136442 -0.131843
C54   C     C_2   0.354500 0.293433 0.313491 -0.122678
C55   C     C_2   0.198091 0.751722 0.135360 -0.115430
C56   C     C_2   0.646351 0.706242 0.311873 -0.108012
C57   C     C_2   0.301959 0.251560 0.365194 -0.113483
C58   C     C_2   0.842711 0.202599 0.195027 -0.108279
C59   C     C_2   0.696492 0.751665 0.362163 -0.100444
C60   C     C_2   0.146916 0.795077 0.186631 -0.118190
C61   C     C_2   0.206820 0.853527 0.812416 -0.121073
C62   C     C_2   0.747840 0.698604 0.634824 -0.116844
C63   C     C_2   0.793525 0.157825 0.801851 -0.106290
C64   C     C_2   0.245223 0.306171 0.639552 -0.111860
C65   C     C_2   0.654498 0.671881 0.736821 -0.193872
C66   C     C_2   0.259612 0.728462 0.844741 -0.209436
C67   C     C_2   0.316636 0.310594 0.759597 -0.186383
C68   C     C_2   0.750190 0.271292 0.866096 -0.205547
C69   C     C_2   0.728483 0.249396 0.134038 -0.205012
C70   C     C_2   0.328024 0.344199 0.262438 -0.192121
C71   C     C_2   0.271360 0.740093 0.154463 -0.208808
C72   C     C_2   0.674138 0.656927 0.260254 -0.194769
C73   C     C_2   0.228751 0.240960 0.344889 -0.210232
C74   C     C_2   0.808692 0.189685 0.263542 -0.195110
C75   C     C_2   0.771527 0.758606 0.347978 -0.188765
C76   C     C_2   0.174358 0.844124 0.238699 -0.194195
C77   C     C_2   0.155628 0.826853 0.762047 -0.194267
C78   C     C_2   0.758543 0.771573 0.655327 -0.213056
C79   C     C_2   0.808862 0.192651 0.734391 -0.188010
C80   C     C_2   0.249990 0.230650 0.632155 -0.208601
H1    H     H_    0.581234 0.248658 0.084786 0.134708
H2    H     H_    0.706976 0.537130 0.166857 0.142633
H3    H     H_    0.416702 0.751801 0.089790 0.139830
H4    H     H_    0.292804 0.461886 0.166964 0.137690
H5    H     H_    0.537880 0.707738 0.833333 0.137263
H6    H     H_    0.752487 0.418797 0.918913 0.140906
H7    H     H_    0.439444 0.269311 0.853433 0.149935
H8    H     H_    0.248193 0.582356 0.907428 0.138419
H9    H     H_    0.037838 0.791552 0.666693 0.138469
H10   H     H_    0.252574 0.082375 0.580309 0.141249
H11   H     H_    0.934071 0.235459 0.639766 0.149086
H12   H     H_    0.748735 0.917986 0.594201 0.135527
H13   H     H_    0.082607 0.251014 0.406284 0.137844
H14   H     H_    0.207659 0.962790 0.332735 0.140142
H15   H     H_    0.916941 0.747746 0.413695 0.144305
H16   H     H_    0.764352 0.066538 0.359940 0.147112
N1    N     N_R   0.574080 0.369570 0.076720 -0.050842
N2    N     N_R   0.630430 0.574080 0.076720 -0.052937
N3    N     N_R   0.425920 0.630430 0.076720 -0.054358
N4    N     N_R   0.369570 0.425920 0.076720 -0.053290
N5    N     N_R   0.574080 0.630430 0.923280 -0.053127
N6    N     N_R   0.630430 0.425920 0.923280 -0.054168
N7    N     N_R   0.425920 0.369570 0.923280 -0.048841
N8    N     N_R   0.369570 0.574080 0.923280 -0.053878
N9    N     N_R   0.074080 0.869570 0.576720 -0.053415
N10   N     N_R   0.130430 0.074080 0.576720 -0.054872
N11   N     N_R   0.925920 0.130430 0.576720 -0.049380
N12   N     N_R   0.869570 0.925920 0.576720 -0.050535
N13   N     N_R   0.074080 0.130430 0.423280 -0.051224
N14   N     N_R   0.130430 0.925920 0.423280 -0.053619
N15   N     N_R   0.925920 0.869570 0.423280 -0.055330
N16   N     N_R   0.869570 0.074080 0.423280 -0.049940
N17   N     N_R   0.574050 0.630410 0.076720 -0.067940
N18   N     N_R   0.369590 0.574050 0.076720 -0.060113
N19   N     N_R   0.425950 0.369590 0.076720 -0.063226
N20   N     N_R   0.630410 0.425950 0.076720 -0.061094
N21   N     N_R   0.574050 0.369590 0.923280 -0.058591
N22   N     N_R   0.369590 0.425950 0.923280 -0.066433
N23   N     N_R   0.425950 0.630410 0.923280 -0.060080
N24   N     N_R   0.630410 0.574050 0.923280 -0.066692
N25   N     N_R   0.074050 0.130410 0.576720 -0.059178
N26   N     N_R   0.869590 0.074050 0.576720 -0.062004
N27   N     N_R   0.925950 0.869590 0.576720 -0.060879
N28   N     N_R   0.130410 0.925950 0.576720 -0.067264
N29   N     N_R   0.074050 0.869590 0.423280 -0.067529
N30   N     N_R   0.869590 0.925950 0.423280 -0.058549
N31   N     N_R   0.925950 0.130410 0.423280 -0.061778
N32   N     N_R   0.130410 0.074050 0.423280 -0.060928
Ni1   Ni    Ni4+2 0.500000 0.370760 0.000000 0.204610
Ni2   Ni    Ni4+2 0.629240 0.500000 0.000000 0.200270
Ni3   Ni    Ni4+2 0.500000 0.629240 0.000000 0.199365
Ni4   Ni    Ni4+2 0.370760 0.500000 0.000000 0.200103
Ni5   Ni    Ni4+2 1.000000 0.870760 0.500000 0.198796
Ni6   Ni    Ni4+2 0.129240 0.000000 0.500000 0.198989
Ni7   Ni    Ni4+2 0.000000 0.129240 0.500000 0.205636
Ni8   Ni    Ni4+2 0.870760 0.000000 0.500000 0.204914
C81   C     C_R   0.547807 0.744101 0.161099 0.126453
C82   C     C_R   0.491392 0.754205 0.218078 -0.186246
C83   C     C_R   0.460665 0.826424 0.231192 -0.127709
C84   C     C_R   0.486833 0.888955 0.188376 -0.075532
C85   C     C_R   0.545319 0.879893 0.134295 -0.118735
C86   C     C_R   0.576362 0.807746 0.121205 -0.164227
H17   H     H_    0.469141 0.705589 0.249960 0.115331
H18   H     H_    0.415548 0.833488 0.273334 0.107773
H19   H     H_    0.461827 0.944360 0.196982 0.091635
H20   H     H_    0.566290 0.928739 0.102147 0.092081
H21   H     H_    0.621910 0.801166 0.079369 0.104072
C87   C     C_R   0.228471 0.568720 0.110085 0.071477
C88   C     C_R   0.184044 0.579030 0.176960 -0.148723
C89   C     C_R   0.117016 0.537153 0.188253 -0.126532
C90   C     C_R   0.094037 0.483485 0.134174 -0.131357
C91   C     C_R   0.138005 0.471704 0.068488 -0.101380
C92   C     C_R   0.204900 0.514109 0.056155 -0.147165
H22   H     H_    0.202751 0.616892 0.222233 0.134184
H23   H     H_    0.084178 0.544778 0.240008 0.125244
H24   H     H_    0.043147 0.449597 0.143839 0.119414
H25   H     H_    0.120901 0.427820 0.028813 0.103754
H26   H     H_    0.240479 0.501009 0.007395 0.119146
C93   C     C_R   0.448658 0.252310 0.155250 0.129155
C94   C     C_R   0.504468 0.235832 0.210919 -0.172276
C95   C     C_R   0.538359 0.163866 0.213235 -0.135909
C96   C     C_R   0.515458 0.107698 0.161262 -0.136135
C97   C     C_R   0.456402 0.122115 0.109377 -0.139219
C98   C     C_R   0.423622 0.194578 0.105590 -0.166484
H27   H     H_    0.526126 0.280342 0.248091 0.110831
H28   H     H_    0.584199 0.152782 0.253434 0.113039
H29   H     H_    0.542821 0.052735 0.161498 0.097828
H30   H     H_    0.437388 0.077656 0.070897 0.111107
H31   H     H_    0.380191 0.206222 0.062769 0.114066
C99   C     C_R   0.770653 0.429671 0.110836 0.067838
C100  C     C_R   0.810539 0.418309 0.180171 -0.156081
C101  C     C_R   0.875436 0.461455 0.196606 -0.127189
C102  C     C_R   0.899940 0.518297 0.145614 -0.138755
C103  C     C_R   0.859737 0.531725 0.077831 -0.097980
C104  C     C_R   0.795529 0.487509 0.060251 -0.150427
H32   H     H_    0.789823 0.378063 0.223040 0.135141
H33   H     H_    0.904996 0.452212 0.250089 0.133340
H34   H     H_    0.948942 0.553283 0.159327 0.120840
H35   H     H_    0.876820 0.578408 0.040636 0.103724
H36   H     H_    0.761722 0.502753 0.010990 0.121589
C105  C     C_R   0.572441 0.234665 0.874336 0.080031
C106  C     C_R   0.574478 0.217543 0.795380 -0.136248
C107  C     C_R   0.539267 0.151596 0.768240 -0.096102
C108  C     C_R   0.502492 0.102096 0.819745 -0.127671
C109  C     C_R   0.501063 0.118124 0.898305 -0.122444
C110  C     C_R   0.535956 0.184314 0.925689 -0.188849
H37   H     H_    0.602798 0.255642 0.754919 0.116226
H38   H     H_    0.540394 0.139352 0.707328 0.119933
H39   H     H_    0.475131 0.051101 0.799222 0.111653
H40   H     H_    0.472537 0.079315 0.937688 0.114921
H41   H     H_    0.533098 0.196514 0.985976 0.125575
C111  C     C_R   0.251553 0.449357 0.842926 0.127042
C112  C     C_R   0.243561 0.501711 0.781797 -0.162286
C113  C     C_R   0.172352 0.534140 0.766291 -0.124688
C114  C     C_R   0.108682 0.512837 0.810252 -0.081194
C115  C     C_R   0.115464 0.457218 0.867708 -0.123593
C116  C     C_R   0.186574 0.424500 0.883090 -0.169453
H42   H     H_    0.293066 0.520311 0.748977 0.107489
H43   H     H_    0.166933 0.576751 0.721283 0.107301
H44   H     H_    0.054072 0.539075 0.799735 0.092704
H45   H     H_    0.065613 0.439508 0.900344 0.097442
H46   H     H_    0.191442 0.380338 0.926656 0.103711
C117  C     C_R   0.431239 0.771385 0.890971 0.070996
C118  C     C_R   0.420772 0.817370 0.825083 -0.153651
C119  C     C_R   0.462258 0.884845 0.815553 -0.118995
C120  C     C_R   0.516232 0.906354 0.870255 -0.135029
C121  C     C_R   0.528683 0.860498 0.934569 -0.105534
C122  C     C_R   0.486302 0.793518 0.945290 -0.145836
H47   H     H_    0.382949 0.799700 0.779259 0.135132
H48   H     H_    0.454023 0.919059 0.764577 0.123283
H49   H     H_    0.550236 0.957297 0.862119 0.115725
H50   H     H_    0.573161 0.876024 0.974452 0.103830
H51   H     H_    0.500160 0.756773 0.992991 0.119514
C123  C     C_R   0.745813 0.549339 0.841212 0.126814
C124  C     C_R   0.758551 0.491264 0.787181 -0.171643
C125  C     C_R   0.830027 0.456167 0.782819 -0.132184
C126  C     C_R   0.889051 0.479951 0.831255 -0.131878
C127  C     C_R   0.878702 0.542262 0.879689 -0.126347
C128  C     C_R   0.807155 0.577057 0.884751 -0.176885
H52   H     H_    0.711841 0.469573 0.752686 0.112269
H53   H     H_    0.838702 0.408852 0.744002 0.111143
H54   H     H_    0.943357 0.451199 0.830610 0.096912
H55   H     H_    0.925859 0.562429 0.914333 0.110534
H56   H     H_    0.798771 0.623620 0.924642 0.108360
C129  C     C_R   0.071759 0.264467 0.625386 0.086818
C130  C     C_R   0.063644 0.275876 0.704958 -0.133456
C131  C     C_R   0.027227 0.341049 0.732073 -0.095710
C132  C     C_R   0.000804 0.395937 0.680008 -0.119715
C133  C     C_R   0.010960 0.386002 0.600982 -0.123311
C134  C     C_R   0.046442 0.320300 0.573503 -0.193774
H57   H     H_    0.084189 0.233638 0.745686 0.112695
H58   H     H_    0.019426 0.348480 0.793320 0.105040
H59   H     H_    0.972962 0.446615 0.700457 0.108216
H60   H     H_    0.991537 0.429522 0.561367 0.113446
H61   H     H_    0.054975 0.313596 0.512551 0.125779
C135  C     C_R   0.745311 0.053760 0.646995 0.129468
C136  C     C_R   0.730328 0.007005 0.711421 -0.149916
C137  C     C_R   0.658632 0.972878 0.720742 -0.115290
C138  C     C_R   0.600872 0.987051 0.667283 -0.108456
C139  C     C_R   0.614346 0.036127 0.604940 -0.156250
C140  C     C_R   0.686640 0.068982 0.594251 -0.165922
H62   H     H_    0.775439 0.992632 0.751380 0.100987
H63   H     H_    0.648623 0.934052 0.768364 0.107550
H64   H     H_    0.545826 0.959815 0.674001 0.098329
H65   H     H_    0.568766 0.048385 0.564858 0.109764
H66   H     H_    0.696922 0.105928 0.545014 0.116044
C141  C     C_R   0.930207 0.728800 0.609581 0.069343
C142  C     C_R   0.918096 0.682644 0.675110 -0.150168
C143  C     C_R   0.959138 0.615409 0.685169 -0.120912
C144  C     C_R   0.015091 0.594661 0.632041 -0.138840
C145  C     C_R   0.029129 0.640612 0.567979 -0.105824
C146  C     C_R   0.986513 0.706984 0.556193 -0.145519
H67   H     H_    0.879347 0.699974 0.720419 0.136414
H68   H     H_    0.949077 0.581020 0.735607 0.126633
H69   H     H_    0.049355 0.544343 0.641397 0.116631
H70   H     H_    0.075001 0.625739 0.529226 0.102682
H71   H     H_    0.001561 0.743975 0.508912 0.121067
C147  C     C_R   0.245015 0.952460 0.659300 0.124538
C148  C     C_R   0.256120 0.010907 0.713347 -0.171996
C149  C     C_R   0.327218 0.047140 0.718628 -0.126857
C150  C     C_R   0.387352 0.024251 0.670959 -0.131790
C151  C     C_R   0.378585 0.961445 0.622822 -0.128173
C152  C     C_R   0.307541 0.925330 0.617104 -0.171126
H72   H     H_    0.208550 0.031775 0.747276 0.112755
H73   H     H_    0.334759 0.094720 0.757380 0.110772
H74   H     H_    0.441061 0.054564 0.671454 0.102105
H75   H     H_    0.426507 0.941998 0.588700 0.104319
H76   H     H_    0.300437 0.878079 0.577799 0.106048
C153  C     C_R   0.046201 0.756446 0.338528 0.127096
C154  C     C_R   0.989631 0.747735 0.281791 -0.174288
C155  C     C_R   0.953995 0.677082 0.271553 -0.129523
C156  C     C_R   0.974923 0.614952 0.317486 -0.116795
C157  C     C_R   0.034770 0.621983 0.370035 -0.132887
C158  C     C_R   0.070981 0.692447 0.379964 -0.172126
H77   H     H_    0.970223 0.796573 0.248744 0.112053
H78   H     H_    0.908651 0.671207 0.229718 0.108531
H79   H     H_    0.945805 0.560979 0.311619 0.102689
H80   H     H_    0.052610 0.572871 0.403391 0.103434
H81   H     H_    0.116966 0.697790 0.421223 0.105485
C159  C     C_R   0.735374 0.929787 0.371798 0.095128
C160  C     C_R   0.723404 0.939810 0.292446 -0.126762
C161  C     C_R   0.657347 0.975623 0.266307 -0.099157
C162  C     C_R   0.601819 0.999042 0.318978 -0.119918
C163  C     C_R   0.612172 0.986775 0.397775 -0.118537
C164  C     C_R   0.678995 0.952228 0.424382 -0.190301
H82   H     H_    0.766029 0.921431 0.251144 0.110860
H83   H     H_    0.649663 0.985246 0.205314 0.102657
H84   H     H_    0.550428 0.026195 0.298906 0.107964
H85   H     H_    0.568137 0.003784 0.437905 0.112899
H86   H     H_    0.686118 0.942168 0.485186 0.122189
C165  C     C_R   0.947434 0.253332 0.350982 0.127309
C166  C     C_R   0.994894 0.267018 0.286805 -0.145237
C167  C     C_R   0.031954 0.337286 0.278229 -0.129842
C168  C     C_R   0.019409 0.395124 0.331774 -0.129547
C169  C     C_R   0.968133 0.383602 0.392638 -0.146676
C170  C     C_R   0.932911 0.312488 0.403035 -0.170184
H87   H     H_    0.007963 0.221683 0.246902 0.101878
H88   H     H_    0.071777 0.346054 0.231199 0.111251
H89   H     H_    0.048682 0.449125 0.325736 0.102396
H90   H     H_    0.956567 0.429562 0.432204 0.111587
H91   H     H_    0.895081 0.303340 0.451794 0.116911
C171  C     C_R   0.271351 0.069276 0.389502 0.067278
C172  C     C_R   0.316718 0.081618 0.323449 -0.147303
C173  C     C_R   0.382979 0.039394 0.311586 -0.121306
C174  C     C_R   0.403617 0.982277 0.363595 -0.142157
C175  C     C_R   0.358435 0.968040 0.428128 -0.105330
C176  C     C_R   0.293152 0.011784 0.441717 -0.146598
H92   H     H_    0.299195 0.121151 0.278835 0.136446
H93   H     H_    0.416451 0.049303 0.260454 0.128131
H94   H     H_    0.453095 0.947165 0.352926 0.117973
H95   H     H_    0.372675 0.920919 0.465653 0.102935
H96   H     H_    0.256391 0.996127 0.488961 0.122471
H97   H     H_    0.724438 0.587450 0.687040 0.138660
H98   H     H_    0.281594 0.826428 0.910946 0.143708
H99   H     H_    0.307914 0.405278 0.684181 0.124816
H100  H     H_    0.702271 0.162520 0.888989 0.148940
H101  H     H_    0.838270 0.290332 0.103515 0.148819
H102  H     H_    0.413272 0.275956 0.313583 0.135775
H103  H     H_    0.172715 0.719784 0.088431 0.142399
H104  H     H_    0.586472 0.718882 0.314754 0.136756
H105  H     H_    0.326215 0.218709 0.412348 0.142488
H106  H     H_    0.900847 0.184202 0.184442 0.123412
H107  H     H_    0.669662 0.786962 0.405695 0.135799
H108  H     H_    0.087251 0.780821 0.184369 0.137732
H109  H     H_    0.224253 0.912359 0.812132 0.138964
H110  H     H_    0.780719 0.674604 0.587689 0.143825
H111  H     H_    0.810511 0.099342 0.812236 0.121748
H112  H     H_    0.200354 0.338786 0.612130 0.149616
H113  H     H_    0.629143 0.727580 0.726978 0.136878
H114  H     H_    0.228702 0.702339 0.797728 0.141471
H115  H     H_    0.304118 0.250750 0.770431 0.131447
H116  H     H_    0.799977 0.301236 0.843259 0.144438
H117  H     H_    0.697524 0.201273 0.159025 0.145362
H118  H     H_    0.272043 0.369212 0.271810 0.136736
H119  H     H_    0.298179 0.770120 0.201563 0.140579
H120  H     H_    0.731623 0.634953 0.266757 0.133223
H121  H     H_    0.202997 0.271911 0.297469 0.141772
H122  H     H_    0.750780 0.208329 0.275670 0.133072
H123  H     H_    0.800403 0.724552 0.305281 0.136412
H124  H     H_    0.231817 0.866704 0.231459 0.136529
H125  H     H_    0.131037 0.770563 0.771367 0.137113
H126  H     H_    0.727409 0.796973 0.702714 0.142410
H127  H     H_    0.792232 0.251310 0.723090 0.131595
H128  H     H_    0.300883 0.201342 0.652335 0.144098

loop_
_geom_bond_atom_site_label_1
_geom_bond_atom_site_label_2
_ccdc_geom_bond_type
C101  H33   S    
C20   C99   S    
C4    C36   A    
C5    C37   A    
C32   C45   A    
C165  C166  A    
C53   C69   D    
C109  H40   S    
C141  C146  A    
C62   H110  S    
C161  C162  A    
C136  H62   S    
C163  C164  A    
C82   H17   S    
C155  C156  A    
C174  H94   S    
C133  H60   S    
C159  C164  A    
C21   N21   A    
C32   C171  S    
C156  C157  A    
C56   C72   D    
C33   C69   S    
C2    C34   A    
N30   Ni8   S    
C72   H120  S    
C75   H123  S    
C166  H87   S    
N4    N19   A    
C132  C133  A    
C5    N5    A    
C24   N24   A    
C48   C74   S    
C84   C85   A    
C60   H108  S    
C12   N12   A    
C120  C121  A    
C60   C76   D    
C107  C108  A    
C133  C134  A    
C27   C141  S    
C70   H118  S    
C131  C132  A    
C4    H4    S    
C53   C58   S    
C175  C176  A    
C125  C126  A    
C8    N8    A    
N26   Ni8   S    
C20   C33   A    
C31   C48   A    
C3    H3    S    
C139  H65   S    
C17   C34   A    
N9    Ni5   S    
C26   C135  S    
C160  H82   S    
C22   N22   A    
C91   H25   S    
C49   C62   S    
C162  H84   S    
C9    C41   A    
C58   H106  S    
C51   C64   S    
N6    Ni2   S    
C115  C116  A    
C52   C63   S    
C84   H19   S    
C83   C84   A    
N4    Ni4   S    
C30   C159  S    
C157  H80   S    
C56   C59   S    
C29   C153  S    
C78   H126  S    
C150  H74   S    
C12   C44   A    
C124  H52   S    
C13   C45   A    
C145  H70   S    
C74   H122  S    
C25   C129  S    
C6    N6    A    
C114  C115  A    
C11   H11   S    
N20   Ni2   S    
C112  C113  A    
C7    C39   A    
C17   C81   S    
C8    C40   A    
N11   N26   A    
C107  H38   S    
C25   N25   A    
C55   C71   D    
C112  H42   S    
C81   C86   A    
C122  H51   S    
C29   N29   A    
N13   Ni7   S    
C31   N31   A    
N3    N18   A    
C90   H24   S    
C17   N17   A    
C127  H55   S    
C143  C144  A    
C153  C158  A    
C23   N23   A    
C150  C151  A    
C31   C165  S    
C51   H99   S    
C99   C100  A    
C9    N9    A    
C108  C109  A    
C176  H96   S    
C57   C73   D    
C167  H88   S    
C103  C104  A    
N16   N31   A    
C13   N13   A    
C128  H56   S    
C106  C107  A    
C24   C123  S    
C27   C44   A    
C21   C38   A    
C61   C77   D    
C37   C65   S    
N23   Ni3   S    
C6    C38   A    
N21   Ni1   S    
C18   C35   A    
N8    N23   A    
C5    H5    S    
C161  H83   S    
C7    N7    A    
C136  C137  A    
N16   Ni8   S    
C36   C70   S    
C129  C130  A    
C155  H78   S    
C16   H16   S    
C158  H81   S    
C159  C160  A    
C151  H75   S    
C142  H67   S    
C126  C127  A    
C137  H63   S    
C8    H8    S    
C135  C140  A    
C167  C168  A    
N32   Ni6   S    
C3    C35   A    
C24   C37   A    
C116  H46   S    
C51   C67   D    
C132  H59   S    
N6    N21   A    
C28   C147  S    
C89   H23   S    
N14   Ni6   S    
C34   C72   S    
C65   H113  S    
C58   C74   D    
C14   N14   A    
N5    N24   A    
C86   H21   S    
C62   C78   D    
C149  C150  A    
C105  C110  A    
C28   N28   A    
C172  H92   S    
C54   H102  S    
C100  H32   S    
C175  H95   S    
C6    H6    S    
N28   Ni6   S    
C32   N32   A    
C44   C78   S    
C97   H30   S    
C47   C75   S    
C168  H89   S    
C102  H34   S    
C22   C39   A    
C139  C140  A    
N22   Ni4   S    
C35   C71   S    
C3    N3    A    
N10   Ni6   S    
C118  C119  A    
C130  C131  A    
C162  C163  A    
C50   C61   S    
C93   C98   A    
C115  H45   S    
C55   C60   S    
C54   C57   S    
C10   C42   A    
C138  C139  A    
C100  C101  A    
C95   C96   A    
C145  C146  A    
C14   C46   A    
C105  C106  A    
N27   Ni5   S    
N31   Ni7   S    
C15   H15   S    
C168  C169  A    
C1    H1    S    
C23   C40   A    
C28   C41   A    
C110  H41   S    
C125  H53   S    
N11   Ni7   S    
C7    H7    S    
C97   C98   A    
C118  H47   S    
C90   C91   A    
C113  C114  A    
C143  H68   S    
C40   C66   S    
C153  C154  A    
C64   C80   D    
C18   N18   A    
C173  H93   S    
N18   Ni4   S    
C154  H77   S    
C12   H12   S    
C146  H71   S    
C99   C104  A    
C64   H112  S    
C152  H76   S    
C140  H66   S    
C148  H72   S    
C9    H9    S    
C169  C170  A    
N2    N17   A    
C144  C145  A    
C102  C103  A    
C171  C176  A    
C121  C122  A    
N9    N28   A    
C13   H13   S    
C88   H22   S    
N13   N32   A    
C69   H117  S    
C93   C94   A    
N2    Ni2   S    
N15   N30   A    
C79   H127  S    
C134  H61   S    
C94   H27   S    
N1    N20   A    
N7    Ni1   S    
C104  H36   S    
C85   H20   S    
N5    Ni3   S    
C38   C68   S    
C163  H85   S    
C2    H2    S    
N7    N22   A    
N12   N27   A    
C142  C143  A    
C16   N16   A    
C96   C97   A    
C117  C122  A    
C126  H54   S    
C137  C138  A    
C52   H100  S    
C59   H107  S    
C53   H101  S    
C25   C42   A    
C169  H90   S    
C29   C46   A    
C123  C128  A    
C19   C93   S    
C165  C170  A    
C77   H125  S    
C88   C89   A    
C94   C95   A    
C109  C110  A    
C73   H121  S    
C147  C148  A    
C82   C83   A    
C10   H10   S    
C174  C175  A    
N8    Ni4   S    
C10   N10   A    
C154  C155  A    
C26   N26   A    
C149  H73   S    
C43   C79   S    
C14   H14   S    
C57   H105  S    
C117  C118  A    
C30   N30   A    
C42   C80   S    
C156  H79   S    
C147  C152  A    
C15   C47   A    
C124  C125  A    
C16   C48   A    
C46   C76   S    
C1    C33   A    
C63   C79   D    
C119  C120  A    
C135  C136  A    
C21   C105  S    
C49   C65   D    
N24   Ni2   S    
C119  H48   S    
C166  C167  A    
C63   H111  S    
N12   Ni8   S    
C18   C87   S    
C19   C36   A    
C41   C77   S    
C67   H115  S    
C61   H109  S    
C130  H57   S    
C92   H26   S    
C45   C73   S    
C129  C134  A    
C120  H49   S    
C172  C173  A    
C54   C70   D    
C11   C43   A    
C138  H64   S    
C68   H116  S    
C151  C152  A    
C95   H28   S    
C52   C68   D    
C131  H58   S    
C80   H128  S    
C98   H31   S    
C26   C43   A    
C170  H91   S    
C15   N15   A    
C30   C47   A    
C87   C88   A    
C1    N1    A    
C20   N20   A    
C27   N27   A    
C123  C124  A    
N15   Ni5   S    
C160  C161  A    
C111  C116  A    
C164  H86   S    
N25   Ni7   S    
C23   C117  S    
C83   H18   S    
C113  H43   S    
C19   N19   A    
C76   H124  S    
C71   H119  S    
C157  C158  A    
C91   C92   A    
C50   C66   D    
C173  C174  A    
C4    N4    A    
C11   N11   A    
C121  H50   S    
C22   C111  S    
C148  C149  A    
C66   H114  S    
C59   C75   D    
C49   H97   S    
C101  C102  A    
C114  H44   S    
N19   Ni1   S    
N29   Ni5   S    
C144  H69   S    
C171  C172  A    
N17   Ni3   S    
C89   C90   A    
C39   C67   S    
C55   H103  S    
C141  C142  A    
C56   H104  S    
C81   C82   A    
N3    Ni3   S    
C111  C112  A    
N1    Ni1   S    
C85   C86   A    
C127  C128  A    
N10   N25   A    
C106  H37   S    
N14   N29   A    
C96   H29   S    
C50   H98   S    
C2    N2    A    
C87   C92   A    
C108  H39   S    
C103  H35   S    
