data_mof_unit_23805.cif
_audit_creation_date              2012-12-10T18:00:46-0500
_audit_creation_method            fapswitch 2.2
_symmetry_space_group_name_H-M    P1
_symmetry_Int_Tables_number       1
_space_group_crystal_system       triclinic
_cell_length_a                    15.866118
_cell_length_b                    10.812405
_cell_length_c                    9.519214
_cell_angle_alpha                 90.381367
_cell_angle_beta                  89.474216
_cell_angle_gamma                 90.467909
_cell_volume                      1632.87108872

loop_
_atom_site_label
_atom_site_type_symbol
_atom_type_description
_atom_site_fract_x
_atom_site_fract_y
_atom_site_fract_z
_atom_type_partial_charge
C1    C     C_R   0.500781 0.262086 0.499764 0.778786
C2    C     C_R   0.500816 0.737893 0.500406 0.781884
C3    C     C_R   0.526403 0.935388 0.379205 -0.183152
C4    C     C_R   0.479864 0.064516 0.622928 -0.192112
C5    C     C_R   0.502462 0.871701 0.501079 -0.010884
C6    C     C_R   0.502448 0.128245 0.500326 -0.012153
C7    C     C_R   0.448876 0.419767 0.074839 0.568054
C8    C     C_R   0.552902 0.578566 0.924115 0.572524
C9    C     C_R   0.448142 0.422356 0.925208 -0.226965
C10   C     C_R   0.551043 0.579081 0.074928 -0.249501
C11   C     C_R   0.339745 0.499815 0.500636 0.825413
C12   C     C_R   0.660218 0.500540 0.499328 0.823688
C13   C     C_3   0.968920 0.428749 0.601775 -0.255357
C14   C     C_3   0.030758 0.574750 0.395595 -0.283487
C15   C     C_3   0.027123 0.383766 0.479789 -0.335613
C16   C     C_3   0.972249 0.619305 0.517413 -0.342333
C17   C     C_1   0.250006 0.499855 0.502434 -0.171954
C18   C     C_1   0.749885 0.501650 0.497212 -0.184746
C19   C     C_3   0.025271 0.544084 0.621902 0.571596
C20   C     C_3   0.974466 0.459386 0.375572 0.571386
C21   C     C_3   0.082787 0.500012 0.502162 0.055717
C22   C     C_3   0.917026 0.503121 0.495586 0.079840
C23   C     C_1   0.174444 0.499951 0.503475 -0.018867
C24   C     C_1   0.825408 0.502518 0.495346 -0.009682
C25   C     C_R   0.527128 0.063372 0.379263 -0.209252
C26   C     C_R   0.480176 0.936578 0.623462 -0.180444
Cu1   Cu    Cu3+1 0.500000 0.500020 0.640660 0.981977
Cu2   Cu    Cu3+1 0.500000 0.499980 0.359340 0.978771
H1    H     H_    0.547149 0.111379 0.285025 0.139152
H2    H     H_    0.461746 0.888642 0.718646 0.156274
H3    H     H_    0.545177 0.886442 0.284475 0.144638
H4    H     H_    0.461057 0.113372 0.717744 0.143962
H5    H     H_    0.405763 0.362788 0.867297 0.156325
H6    H     H_    0.589165 0.642910 0.135039 0.160986
N1    N     N_R   0.500020 0.500030 0.852070 -0.207068
N2    N     N_R   0.499980 0.499970 0.147930 -0.206336
O1    O     O_R   0.500000 0.319660 0.618740 -0.594983
O2    O     O_R   0.500000 0.680340 0.381260 -0.597483
O3    O     O_R   0.499990 0.319630 0.381170 -0.563654
O4    O     O_R   0.500010 0.680370 0.618830 -0.537435
O5    O     O_R   0.379080 0.500000 0.618760 -0.582630
O6    O     O_R   0.620920 0.500000 0.381240 -0.581260
O7    O     O_R   0.379080 0.499970 0.381190 -0.526377
O8    O     O_R   0.620920 0.500030 0.618810 -0.541905
H7    H     H_    0.051332 0.288341 0.466710 0.144343
H8    H     H_    0.947912 0.714876 0.528287 0.141386
H9    H     H_    0.942225 0.371174 0.687749 0.147378
H10   H     H_    0.057465 0.632995 0.310260 0.143876
O9    O     O_3   0.940139 0.424878 0.244394 -0.619012
C27   C     C_3   0.991435 0.338377 0.172635 0.031762
H11   H     H_    0.954634 0.304902 0.080992 0.176078
H12   H     H_    0.003446 0.255240 0.237345 0.123956
C28   C     C_3   0.074611 0.396178 0.119097 -0.368895
H13   H     H_    0.064392 0.492833 0.085613 0.245159
H14   H     H_    0.121470 0.397579 0.205104 0.211111
C29   C     C_3   0.110785 0.323700 0.994714 -0.865006
H15   H     H_    0.120550 0.225640 0.023950 0.236844
H16   H     H_    0.172119 0.365216 0.962386 0.265294
H17   H     H_    0.067280 0.327501 0.904069 0.268342
O10   O     O_3   0.055712 0.575717 0.756898 -0.597359
C30   C     C_3   0.037792 0.699918 0.792467 0.085320
H18   H     H_    0.051235 0.764050 0.703862 0.092554
H19   H     H_    0.081558 0.728678 0.877273 0.157273
C31   C     C_3   0.946884 0.715710 0.847228 -0.432854
H20   H     H_    0.936824 0.814946 0.872694 0.174238
H21   H     H_    0.900710 0.688828 0.765549 0.209311
C32   C     C_3   0.929122 0.639481 0.978580 -0.713466
H22   H     H_    0.936045 0.539403 0.954768 0.279151
H23   H     H_    0.863532 0.655522 0.015309 0.226131
H24   H     H_    0.972644 0.667291 0.064034 0.234706
O11   O     O_3   0.392592 0.345604 0.149020 -0.580168
C33   C     C_3   0.398201 0.219616 0.107944 0.034348
H25   H     H_    0.408205 0.164903 0.204279 0.181402
H26   H     H_    0.451990 0.198159 0.035509 0.104612
C34   C     C_3   0.314893 0.176209 0.044050 -0.364790
H27   H     H_    0.263285 0.190581 0.122033 0.233592
H28   H     H_    0.300862 0.231029 0.949106 0.211627
C35   C     C_3   0.317808 0.039474 0.003590 -0.922809
H29   H     H_    0.368112 0.023103 0.923863 0.250912
H30   H     H_    0.256367 0.010741 0.958379 0.253659
H31   H     H_    0.330051 0.982173 0.097564 0.260209
O12   O     O_3   0.601150 0.661372 0.844766 -0.578279
C36   C     C_3   0.676214 0.702804 0.909673 0.025616
H32   H     H_    0.725936 0.707670 0.826871 0.168985
H33   H     H_    0.700987 0.637584 0.989112 0.121969
C37   C     C_3   0.663994 0.833645 0.969178 -0.362334
H34   H     H_    0.652796 0.898434 0.881199 0.227766
H35   H     H_    0.607842 0.836508 0.039458 0.204917
C38   C     C_3   0.740951 0.877413 0.051048 -0.926794
H36   H     H_    0.752664 0.814682 0.140623 0.259295
H37   H     H_    0.729799 0.972015 0.092965 0.256940
H38   H     H_    0.797385 0.879925 0.981300 0.256363

loop_
_geom_bond_atom_site_label_1
_geom_bond_atom_site_label_2
_ccdc_geom_bond_type
C7    N2    A    
C28   H13   S    
C17   C23   T    
C8    O12   S    
C14   C21   S    
C19   C21   S    
C7    O11   S    
C35   H30   S    
C6    C25   A    
C29   H15   S    
C30   H19   S    
C2    O2    A    
C12   O6    A    
Cu1   O8    S    
C27   H12   S    
C11   O7    A    
C14   C16   S    
C38   H37   S    
C1    O1    A    
C9    H5    S    
C33   C34   S    
C28   H14   S    
C25   H1    S    
C15   C20   S    
C27   C28   S    
C13   C19   S    
C37   H35   S    
C1    C6    S    
C31   C32   S    
C14   C20   S    
C3    C25   A    
C4    C6    A    
C16   H8    S    
C13   H9    S    
C37   H34   S    
C14   H10   S    
Cu2   O3    S    
Cu1   N1    S    
O12   C36   S    
C32   H22   S    
O10   C30   S    
C32   H23   S    
C8    N1    A    
C31   H21   S    
C30   C31   S    
C34   H27   S    
C20   O9    S    
Cu1   O5    S    
C36   H32   S    
Cu2   O2    S    
Cu1   O4    S    
C27   H11   S    
C10   H6    S    
C38   H38   S    
C3    H3    S    
C34   H28   S    
C4    H4    S    
C33   H26   S    
C36   H33   S    
C20   C22   S    
C26   H2    S    
C13   C15   S    
C18   C24   T    
C2    C5    S    
C15   H7    S    
C28   C29   S    
C7    C9    A    
C11   C17   S    
C16   C22   S    
C35   H29   S    
C33   H25   S    
C3    C5    A    
C37   C38   S    
C4    C26   A    
C19   O10   S    
Cu2   O7    S    
C29   H17   S    
C32   H24   S    
C31   H20   S    
C21   C23   S    
O11   C33   S    
C12   O8    A    
C35   H31   S    
Cu1   O1    S    
C16   C19   S    
Cu2   O6    S    
C29   H16   S    
C13   C22   S    
C11   O5    A    
C22   C24   S    
C30   H18   S    
C34   C35   S    
C1    O3    A    
C5    C26   A    
C2    O4    A    
C15   C21   S    
C36   C37   S    
Cu2   N2    S    
C8    C10   A    
O9    C27   S    
C12   C18   S    
Cu1   Cu2   S    
C9    N1    A    
C10   N2    A    
C38   H36   S    
