data_mof_unit_21391.cif
_audit_creation_date              2012-10-26T19:52:27-0400
_audit_creation_method            fapswitch 2.2
_symmetry_space_group_name_H-M    P1
_symmetry_Int_Tables_number       1
_space_group_crystal_system       triclinic
_cell_length_a                    9.540033
_cell_length_b                    10.811882
_cell_length_c                    13.442206
_cell_angle_alpha                 89.984935
_cell_angle_beta                  72.45996
_cell_angle_gamma                 89.862177
_cell_volume                      1322.03850929

loop_
_atom_site_label
_atom_site_type_symbol
_atom_type_description
_atom_site_fract_x
_atom_site_fract_y
_atom_site_fract_z
_atom_type_partial_charge
C1    C     C_R   0.500246 0.737533 0.498924 0.551739
C2    C     C_R   0.373433 0.489962 0.814986 -0.005114
C3    C     C_R   0.369733 0.936565 0.519051 0.037866
C4    C     C_R   0.421374 0.493967 0.700115 0.529384
C5    C     C_R   0.501760 0.870564 0.491796 0.011095
C6    C     C_R   0.634699 0.934858 0.452132 -0.164444
C7    C     C_R   0.634620 0.063887 0.451516 -0.164896
C8    C     C_R   0.501889 0.129081 0.491142 0.003648
C9    C     C_R   0.369754 0.063836 0.517915 0.001931
C10   C     C_3   0.239922 0.072300 0.613654 -0.247579
C11   C     C_3   0.238946 0.931317 0.614992 -0.134916
C12   C     C_R   0.433515 0.483322 0.979727 0.033862
C13   C     C_R   0.959206 0.441041 0.422706 0.145662
C14   C     C_R   0.895495 0.567759 0.570513 -0.014303
C15   C     C_R   0.044368 0.567626 0.570623 -0.020571
C16   C     C_R   0.500447 0.262323 0.498775 0.542225
C17   C     C_R   0.107073 0.441641 0.422127 0.179048
C18   C     C_3   0.124323 0.307057 0.395418 -0.150866
C19   C     C_3   0.964215 0.306717 0.397224 -0.262871
C20   C     C_R   0.578646 0.498065 0.300031 0.542098
C21   C     C_R   0.786708 0.393961 0.029156 -0.138947
C22   C     C_R   0.622970 0.481521 0.186897 -0.005985
C23   C     C_R   0.470187 0.453786 0.872076 0.025424
C24   C     C_R   0.232567 0.534477 0.868406 -0.142168
C25   C     C_R   0.190193 0.549909 0.975748 -0.147837
C26   C     C_R   0.289694 0.527485 0.030896 -0.126768
C27   C     C_3   0.270477 0.875599 0.710995 -0.411372
C28   C     C_3   0.232508 0.281778 0.287475 -0.402495
C29   C     C_R   0.541783 0.466464 0.031891 0.028212
C30   C     C_R   0.678629 0.410266 0.978828 0.049883
C31   C     C_R   0.704875 0.368273 0.876992 -0.148163
C32   C     C_R   0.601436 0.387733 0.824958 -0.130024
C33   C     C_R   0.518909 0.504897 0.135102 -0.141273
C34   C     C_R   0.758665 0.428742 0.133076 -0.143426
Cu1   Cu    Cu3+1 0.359330 0.500020 0.500010 0.922919
Cu2   Cu    Cu3+1 0.640670 0.499980 0.499990 0.921332
H1    H     H_    0.840397 0.409957 0.172268 0.121205
H2    H     H_    0.141875 0.112064 0.597078 0.112861
H3    H     H_    0.177890 0.896981 0.781821 0.128799
H4    H     H_    0.280706 0.773579 0.702803 0.152143
H5    H     H_    0.373612 0.913414 0.721072 0.144988
H6    H     H_    0.814873 0.620859 0.628784 0.124619
H7    H     H_    0.346917 0.291121 0.290443 0.173703
H8    H     H_    0.217622 0.185695 0.263428 0.128693
H9    H     H_    0.215204 0.346803 0.228185 0.131389
H10   H     H_    0.144604 0.249506 0.458065 0.157096
H11   H     H_    0.806031 0.320081 0.837188 0.105026
H12   H     H_    0.267569 0.116450 0.680133 0.137802
H13   H     H_    0.894367 0.251327 0.463061 0.133228
H14   H     H_    0.891392 0.351296 0.988914 0.109260
H15   H     H_    0.249101 0.543219 0.113761 0.097116
H16   H     H_    0.080758 0.583395 0.016205 0.121476
H17   H     H_    0.624880 0.347235 0.748243 0.147413
H18   H     H_    0.140751 0.891063 0.598940 0.137510
H19   H     H_    0.075407 0.620466 0.628978 0.109030
H20   H     H_    0.946116 0.289341 0.320472 0.121866
H21   H     H_    0.419792 0.552268 0.178050 0.120307
H22   H     H_    0.155743 0.560418 0.826839 0.122672
H23   H     H_    0.738444 0.885908 0.424594 0.133677
H24   H     H_    0.738062 0.111910 0.422702 0.120347
N1    N     N_R   0.852320 0.499070 0.499340 -0.235734
N2    N     N_R   0.148230 0.499110 0.499340 -0.236652
O1    O     O_R   0.381190 0.680360 0.500000 -0.498051
O2    O     O_R   0.618780 0.680320 0.499990 -0.504084
O3    O     O_R   0.323230 0.500000 0.650990 -0.510956
O4    O     O_R   0.560820 0.499960 0.650980 -0.509473
O5    O     O_R   0.381220 0.319680 0.500010 -0.503991
O6    O     O_R   0.618810 0.319640 0.500000 -0.512432
O7    O     O_R   0.439180 0.500040 0.349020 -0.505448
O8    O     O_R   0.676770 0.500000 0.349010 -0.497713

loop_
_geom_bond_atom_site_label_1
_geom_bond_atom_site_label_2
_ccdc_geom_bond_type
C19   H20   S    
C2    C4    S    
Cu2   O6    S    
C6    C7    A    
C3    C9    A    
Cu1   O5    S    
C12   C29   A    
C34   H1    S    
C21   C30   A    
C27   H5    S    
C28   H7    S    
Cu2   O2    S    
C31   C32   A    
C21   C34   A    
C11   C27   S    
C27   H4    S    
C10   H2    S    
C23   C32   A    
Cu1   O1    S    
C17   C18   S    
C25   H16   S    
C18   C28   S    
C7    C8    A    
C8    C16   S    
C16   O5    A    
C31   H11   S    
C26   H15   S    
C12   C26   A    
C17   N2    A    
C4    O4    A    
C14   N1    A    
C12   C23   A    
C20   O8    A    
C29   C30   A    
C11   H18   S    
C13   C17   A    
C16   O6    A    
C18   H10   S    
C21   H14   S    
C15   N2    A    
Cu2   O8    S    
C28   H9    S    
C30   C31   A    
Cu1   N2    S    
Cu2   O4    S    
C10   H12   S    
C5    C6    A    
C22   C34   A    
C1    C5    S    
C20   O7    A    
C3    C11   S    
C10   C11   S    
C13   C19   S    
Cu2   N1    S    
C1    O2    A    
C29   C33   A    
C7    H24   S    
C13   N1    A    
C24   C25   A    
Cu1   O7    S    
C24   H22   S    
C18   C19   S    
C9    C10   S    
C27   H3    S    
C2    C23   A    
C22   C33   A    
Cu1   O3    S    
C4    O3    A    
C1    O1    A    
C33   H21   S    
C2    C24   A    
C32   H17   S    
C25   C26   A    
C14   C15   A    
C14   H6    S    
C19   H13   S    
C6    H23   S    
C28   H8    S    
Cu1   Cu2   S    
C20   C22   S    
C8    C9    A    
C3    C5    A    
C15   H19   S    
