data_mof_unit_23147.cif
_audit_creation_date              2012-12-10T18:47:08-0500
_audit_creation_method            fapswitch 2.2
_symmetry_space_group_name_H-M    P1
_symmetry_Int_Tables_number       1
_space_group_crystal_system       triclinic
_cell_length_a                    10.665485
_cell_length_b                    9.823578
_cell_length_c                    15.007692
_cell_angle_alpha                 89.919822
_cell_angle_beta                  89.83778
_cell_angle_gamma                 89.437843
_cell_volume                      1572.3208082

loop_
_atom_site_label
_atom_site_type_symbol
_atom_type_description
_atom_site_fract_x
_atom_site_fract_y
_atom_site_fract_z
_atom_type_partial_charge
C1    C     C_R   0.260144 0.500835 0.500276 1.036993
C2    C     C_R   0.127780 0.502970 0.498812 -0.418585
C3    C     C_R   0.578941 0.071057 0.554510 -0.099070
C4    C     C_R   0.421060 0.928943 0.445489 -0.099082
C5    C     C_R   0.421062 0.072967 0.445478 -0.069246
C6    C     C_R   0.578938 0.927033 0.554521 -0.069243
C7    C     C_R   0.499579 0.500068 0.326510 0.895043
C8    C     C_R   0.500422 0.499932 0.673490 0.895074
C9    C     C_R   0.507092 0.623660 0.815017 -0.258717
C10   C     C_R   0.492907 0.376342 0.184983 -0.258710
C11   C     C_R   0.501266 0.499857 0.769375 -0.071564
C12   C     C_R   0.739856 0.499165 0.499723 1.037040
C13   C     C_R   0.498735 0.500143 0.230625 -0.071564
C14   C     C_R   0.495829 0.376084 0.815296 -0.267497
C15   C     C_R   0.504173 0.623916 0.184704 -0.267498
C16   C     C_R   0.495272 0.375193 0.907456 0.118943
C17   C     C_R   0.504730 0.624807 0.092544 0.118943
C18   C     C_R   0.500487 0.499964 0.953652 0.061174
C19   C     C_R   0.499513 0.500038 0.046348 0.061176
C20   C     C_R   0.506594 0.624663 0.907163 0.114798
C21   C     C_R   0.493405 0.375339 0.092837 0.114800
C22   C     C_R   0.489236 0.251816 0.954011 -0.217750
C23   C     C_R   0.488263 0.251889 0.046584 -0.217455
C24   C     C_R   0.510767 0.748184 0.045989 -0.217754
C25   C     C_3   0.149878 0.404376 0.301679 -0.261659
C26   C     C_3   0.850188 0.595654 0.698333 -0.261656
C27   C     C_3   0.879627 0.187599 0.419403 -0.192338
C28   C     C_3   0.120384 0.812409 0.580553 -0.192428
C29   C     C_R   0.511738 0.748112 0.953416 -0.217454
C30   C     C_R   0.066285 0.414284 0.440743 0.364521
C31   C     C_R   0.933713 0.585717 0.559248 0.364488
C32   C     C_R   0.936948 0.406874 0.444674 0.364419
C33   C     C_R   0.063049 0.593135 0.555314 0.364379
C34   C     C_R   0.872219 0.497033 0.501179 -0.418578
H1    H     H_    0.511859 0.719303 0.779031 0.163883
H2    H     H_    0.358016 0.874992 0.401954 0.122127
H3    H     H_    0.358037 0.128432 0.401908 0.157578
H4    H     H_    0.641964 0.871568 0.598091 0.157581
H5    H     H_    0.204678 0.339337 0.255077 0.180878
H6    H     H_    0.204080 0.499215 0.312324 0.128186
H7    H     H_    0.058439 0.428539 0.269484 0.186164
H8    H     H_    0.796089 0.500737 0.687720 0.128173
H9    H     H_    0.941657 0.571633 0.730529 0.186256
H10   H     H_    0.795313 0.660661 0.744920 0.180857
H11   H     H_    0.975015 0.143448 0.409954 0.179736
H12   H     H_    0.488142 0.280697 0.220969 0.163881
H13   H     H_    0.851564 0.180543 0.490819 0.133972
H14   H     H_    0.813465 0.124472 0.380769 0.173011
H15   H     H_    0.148558 0.819433 0.509160 0.134055
H16   H     H_    0.186470 0.875573 0.619232 0.173034
H17   H     H_    0.024963 0.856526 0.589912 0.179718
H18   H     H_    0.491457 0.280416 0.779521 0.162609
H19   H     H_    0.508548 0.719582 0.220479 0.162610
H20   H     H_    0.485226 0.155639 0.918889 0.141371
H21   H     H_    0.514779 0.844360 0.081111 0.141372
H22   H     H_    0.483632 0.155760 0.081941 0.141243
H23   H     H_    0.516368 0.844241 0.918059 0.141243
H24   H     H_    0.641988 0.125008 0.598044 0.122141
N1    N     N_R   0.500000 0.857200 0.500000 -0.080435
N2    N     N_R   0.500000 0.142800 0.500000 -0.080439
O1    O     O_R   0.316770 0.614620 0.499990 -0.613527
O2    O     O_3   0.867274 0.667861 0.618007 -0.592784
O3    O     O_3   0.872762 0.322513 0.387005 -0.578289
O4    O     O_3   0.127229 0.677514 0.612978 -0.578293
O5    O     O_R   0.683230 0.385380 0.500010 -0.613520
O6    O     O_R   0.683230 0.614620 0.500010 -0.592980
O7    O     O_R   0.316770 0.385380 0.499990 -0.592983
O8    O     O_R   0.499980 0.614680 0.367850 -0.644089
O9    O     O_R   0.500020 0.385320 0.632150 -0.644087
O10   O     O_R   0.500020 0.614680 0.632150 -0.616053
O11   O     O_R   0.499980 0.385320 0.367850 -0.616056
O12   O     O_3   0.132719 0.332138 0.381986 -0.592791
Zn1   Zn    Zn3+2 0.500000 0.653120 0.500000 0.965351
Zn2   Zn    Zn3+2 0.500000 0.346880 0.500000 0.965352

loop_
_geom_bond_atom_site_label_1
_geom_bond_atom_site_label_2
_ccdc_geom_bond_type
C27   H14   S    
C10   H12   S    
O11   Zn2   S    
C30   O12   S    
C6    H4    S    
C25   H6    S    
C5    H3    S    
C28   H15   S    
N1    Zn1   S    
C9    C20   A    
C8    O10   A    
C27   H13   S    
C7    C13   S    
C2    C30   A    
C3    C6    A    
C3    N2    A    
C27   H11   S    
O10   Zn1   S    
C13   C15   A    
C26   O2    S    
C31   C34   A    
C26   H10   S    
O9    Zn2   S    
C22   H20   S    
O7    Zn2   S    
C25   H5    S    
C24   H21   S    
C30   C32   A    
C9    C11   A    
C31   O2    S    
C26   H8    S    
C8    O9    A    
C25   O12   S    
C8    C11   S    
C28   O4    S    
C4    N1    A    
N2    Zn2   S    
C7    O8    A    
C1    O7    A    
C29   H23   S    
C26   H9    S    
C1    C2    S    
C18   C20   A    
C20   C29   A    
C21   C23   A    
C10   C21   A    
C7    O11   A    
C17   C19   A    
C28   H17   S    
C14   C16   A    
C17   C24   A    
C31   C33   A    
C12   C34   S    
C15   H19   S    
C3    H24   S    
C33   O4    S    
C23   H22   S    
C4    H2    S    
C2    C33   A    
C16   C18   A    
C18   C19   A    
C12   O5    A    
C25   H7    S    
C11   C14   A    
C15   C17   A    
C28   H16   S    
C24   C29   A    
C27   O3    S    
C9    H1    S    
C16   C22   A    
C5    N2    A    
O1    Zn1   S    
O8    Zn1   S    
C22   C23   A    
O6    Zn1   S    
C12   O6    A    
C6    N1    A    
C14   H18   S    
O5    Zn2   S    
C32   O3    S    
C32   C34   A    
C4    C5    A    
C19   C21   A    
C10   C13   A    
C1    O1    A    
