data_mof_unit_26807.cif
_audit_creation_date              2012-12-10T20:34:56-0500
_audit_creation_method            fapswitch 2.2
_symmetry_space_group_name_H-M    P1
_symmetry_Int_Tables_number       1
_space_group_crystal_system       triclinic
_cell_length_a                    10.639784
_cell_length_b                    10.71646
_cell_length_c                    9.899487
_cell_angle_alpha                 88.970599
_cell_angle_beta                  89.436515
_cell_angle_gamma                 90.525013
_cell_volume                      1128.46163114

loop_
_atom_site_label
_atom_site_type_symbol
_atom_type_description
_atom_site_fract_x
_atom_site_fract_y
_atom_site_fract_z
_atom_type_partial_charge
C1    C     C_R   0.501415 0.260008 0.500939 0.882035
C2    C     C_3   0.878690 0.502485 0.499552 0.127675
C3    C     C_3   0.928229 0.616506 0.580395 0.074203
C4    C     C_3   0.930675 0.508205 0.352672 -0.416162
C5    C     C_R   0.505284 0.060191 0.623102 0.040514
C6    C     C_R   0.515540 0.128217 0.502100 -0.109288
C7    C     C_R   0.546000 0.067408 0.381722 -0.232599
C8    C     C_R   0.546690 0.938491 0.380209 -0.240404
C9    C     C_R   0.519475 0.871322 0.499420 -0.073526
C10   C     C_R   0.509048 0.932763 0.621427 0.083221
C11   C     C_3   0.411338 0.916025 0.729420 -0.503114
C12   C     C_R   0.257753 0.500668 0.500372 0.844151
C13   C     C_3   0.405018 0.057375 0.731578 0.035045
C14   C     C_R   0.392750 0.472913 0.072752 0.174591
C15   C     C_R   0.601982 0.540934 0.068566 0.242802
C16   C     C_R   0.602191 0.538675 0.925091 -0.211876
C17   C     C_R   0.392179 0.475196 0.930459 0.201780
C18   C     C_3   0.316478 0.358525 0.925999 -0.498873
C19   C     C_3   0.319535 0.353741 0.079092 -0.525239
C20   C     C_R   0.503627 0.739738 0.499075 0.890176
C21   C     C_R   0.742179 0.500608 0.499522 0.868251
C22   C     C_3   0.069945 0.382957 0.574171 -0.403831
C23   C     C_3   0.925758 0.380571 0.568444 -0.476527
C24   C     C_3   0.073430 0.619683 0.573211 -0.459085
C25   C     C_3   0.072758 0.503728 0.353316 -0.406909
C26   C     C_3   0.121283 0.501897 0.500662 0.158514
H1    H     H_    0.099822 0.381590 0.681465 0.180152
H2    H     H_    0.901517 0.595509 0.300820 0.188467
H3    H     H_    0.108476 0.704909 0.518350 0.162271
H4    H     H_    0.561847 0.118456 0.287543 0.167954
H5    H     H_    0.560504 0.892557 0.285180 0.166789
H6    H     H_    0.325084 0.868677 0.692443 0.198169
H7    H     H_    0.450835 0.874627 0.823442 0.186168
H8    H     H_    0.437710 0.096628 0.828196 0.137274
H9    H     H_    0.107935 0.297847 0.526136 0.169412
H10   H     H_    0.684979 0.569061 0.868839 0.157127
H11   H     H_    0.221070 0.374891 0.885227 0.197910
H12   H     H_    0.369474 0.283041 0.877914 0.226866
H13   H     H_    0.225145 0.364966 0.125050 0.194651
H14   H     H_    0.374779 0.274491 0.120616 0.211290
H15   H     H_    0.893732 0.297957 0.510951 0.176002
H16   H     H_    0.886823 0.370236 0.672902 0.175288
H17   H     H_    0.111020 0.623323 0.677651 0.161802
H18   H     H_    0.899614 0.601381 0.688269 0.145098
H19   H     H_    0.111392 0.585886 0.295534 0.176612
H20   H     H_    0.103050 0.417741 0.301659 0.175407
H21   H     H_    0.894075 0.428259 0.293791 0.181201
N1    N     N_R   0.499150 0.499140 0.142800 -0.121951
N2    N     N_R   0.499150 0.499180 0.857150 -0.118278
O1    O     O_R   0.500020 0.316790 0.614690 -0.609432
O2    O     O_R   0.500000 0.316760 0.385350 -0.629451
O3    O     O_R   0.314800 0.500000 0.614670 -0.620881
O4    O     O_R   0.314790 0.499960 0.385330 -0.627753
O5    O     O_R   0.500000 0.683240 0.614650 -0.611109
O6    O     O_R   0.499980 0.683210 0.385310 -0.612825
O7    O     O_R   0.685210 0.500040 0.614670 -0.639584
O8    O     O_R   0.685200 0.500000 0.385330 -0.598262
Zn1   Zn    Zn3+2 0.500010 0.500020 0.653130 0.941524
Zn2   Zn    Zn3+2 0.499990 0.499980 0.346870 0.951181
N3    N     N_2   0.874968 0.733430 0.530590 -0.309983
H22   H     H_    0.907301 0.763541 0.436939 0.227798
C27   C     C_3   0.866155 0.832588 0.627391 -0.825305
H23   H     H_    0.818595 0.914067 0.580336 0.248689
H24   H     H_    0.809535 0.801207 0.716808 0.246791
H25   H     H_    0.961509 0.861804 0.659766 0.237451
N4    N     N_2   0.285042 0.105719 0.685583 -0.283006
H26   H     H_    0.261914 0.083831 0.587717 0.231790
C28   C     C_3   0.180977 0.088008 0.779440 -0.828914
H27   H     H_    0.100320 0.145197 0.745759 0.237460
H28   H     H_    0.207514 0.117052 0.882459 0.253576
H29   H     H_    0.150975 0.988467 0.783133 0.236795
N5    N     N_2   0.709501 0.587905 0.133820 -0.260986
H30   H     H_    0.791797 0.549017 0.099117 0.188641
C29   C     C_3   0.717125 0.722801 0.139139 -0.789437
H31   H     H_    0.793584 0.758460 0.071116 0.207021
H32   H     H_    0.738411 0.750504 0.243931 0.247403
H33   H     H_    0.627818 0.767610 0.107912 0.229602

loop_
_geom_bond_atom_site_label_1
_geom_bond_atom_site_label_2
_ccdc_geom_bond_type
N4    C28   S    
O6    Zn2   S    
C4    C25   S    
O4    Zn2   S    
C7    C8    A    
C15   N5    S    
C23   H16   S    
C29   H32   S    
C18   H11   S    
C24   C26   S    
O5    Zn1   S    
C5    C6    A    
O8    Zn2   S    
C15   C16   A    
N3    C27   S    
C18   C19   S    
C24   H3    S    
C27   H24   S    
C12   O3    A    
C8    C9    A    
C29   H33   S    
C1    O1    A    
C5    C13   S    
C12   O4    A    
C3    N3    S    
N4    H26   S    
C7    H4    S    
C14   C17   A    
C3    C24   S    
C15   N1    A    
C20   O6    A    
C4    H2    S    
C13   N4    S    
O3    Zn1   S    
C3    H18   S    
C29   H31   S    
C1    C6    S    
O1    Zn1   S    
C11   H7    S    
C16   N2    A    
C20   O5    A    
C19   H14   S    
C17   N2    A    
C28   H27   S    
C14   N1    A    
C25   C26   S    
N2    Zn1   S    
C12   C26   S    
N3    H22   S    
C2    C4    S    
C21   O8    A    
C27   H23   S    
C22   H9    S    
C9    C20   S    
C2    C21   S    
C17   C18   S    
C1    O2    A    
C19   H13   S    
N5    C29   S    
C11   H6    S    
C22   H1    S    
O2    Zn2   S    
C25   H19   S    
N1    Zn2   S    
C9    C10   A    
C27   H25   S    
C8    H5    S    
C14   C19   S    
N5    H30   S    
C21   O7    A    
C6    C7    A    
C23   H15   S    
C2    C3    S    
C18   H12   S    
C13   H8    S    
C16   H10   S    
C11   C13   S    
C28   H29   S    
O7    Zn1   S    
C10   C11   S    
C5    C10   A    
C28   H28   S    
C22   C26   S    
C2    C23   S    
C24   H17   S    
C22   C23   S    
C25   H20   S    
C4    H21   S    
