data_mof_unit_39526.cif
_audit_creation_date              2013-03-05T15:58:07-0500
_audit_creation_method            fapswitch 2.2
_symmetry_space_group_name_H-M    P1
_symmetry_Int_Tables_number       1
_space_group_crystal_system       triclinic
_cell_length_a                    15.091103
_cell_length_b                    13.739864
_cell_length_c                    10.80663
_cell_angle_alpha                 90.146807
_cell_angle_beta                  89.118005
_cell_angle_gamma                 90.2084
_cell_volume                      2240.4641739

loop_
_atom_site_label
_atom_site_type_symbol
_atom_site_description
_atom_site_fract_x
_atom_site_fract_y
_atom_site_fract_z
_atom_type_partial_charge
O1    O     O_R   0.370250 0.582280 0.500040 -0.571681
O2    O     O_R   0.370250 0.417720 0.500040 -0.571900
C1    C     C_R   0.329223 0.499838 0.498925 0.843331
O3    O     O_R   0.499970 0.582270 0.317700 -0.523805
O4    O     O_R   0.499970 0.417730 0.317700 -0.532021
C2    C     C_R   0.496864 0.499829 0.259831 0.862370
Cu1   Cu    Cu3+1 0.499990 0.597420 0.500010 0.995183
Cu2   Cu    Cu3+1 0.499990 0.402580 0.500010 0.999022
O5    O     O_R   0.629730 0.582260 0.499980 -0.595903
O6    O     O_R   0.629730 0.417740 0.499980 -0.587087
O7    O     O_R   0.500000 0.582270 0.682320 -0.599468
O8    O     O_R   0.500000 0.417730 0.682320 -0.592969
C3    C     C_R   0.671129 0.500204 0.501556 0.815607
C4    C     C_R   0.496130 0.500071 0.740207 0.788799
C5    C     C_3   0.449495 0.596631 0.071229 0.662382
C6    C     C_3   0.444131 0.405261 0.070510 0.657776
C7    C     C_3   0.444619 0.591605 0.928550 -0.423422
C8    C     C_3   0.441804 0.409670 0.927477 -0.418783
H1    H     H_    0.374660 0.591091 0.897996 0.192305
H2    H     H_    0.372448 0.411210 0.894639 0.189541
H3    H     H_    0.475734 0.657663 0.887733 0.213455
H4    H     H_    0.472108 0.342874 0.887451 0.215434
H5    H     H_    0.629709 0.557922 0.104158 0.228710
H6    H     H_    0.624028 0.429327 0.098764 0.233992
H7    H     H_    0.624009 0.565245 0.894897 0.206452
H8    H     H_    0.623552 0.433443 0.889937 0.206461
C9    C     C_3   0.589461 0.496204 0.068953 -0.466342
C10   C     C_3   0.493280 0.499515 0.121688 -0.131873
C11   C     C_3   0.492738 0.500051 0.878156 -0.051514
C12   C     C_3   0.588514 0.498706 0.926761 -0.367538
C13   C     C_R   0.815800 0.485211 0.389630 0.113274
C14   C     C_R   0.768204 0.500537 0.501384 -0.042455
C15   C     C_R   0.812921 0.515239 0.613817 0.087674
C16   C     C_R   0.905634 0.500253 0.618168 0.031410
C17   C     C_R   0.954090 0.494620 0.504660 -0.046311
C18   C     C_R   0.909269 0.489015 0.390449 0.059875
C19   C     C_R   0.952553 0.491694 0.730864 0.385833
C20   C     C_R   0.044450 0.491878 0.729662 -0.198507
C21   C     C_R   0.093482 0.496025 0.618737 0.057907
C22   C     C_R   0.047907 0.494796 0.505044 -0.009381
C23   C     C_R   0.096152 0.494103 0.391648 0.014941
C24   C     C_R   0.050995 0.490097 0.278953 0.403352
C25   C     C_R   0.959075 0.486316 0.279172 -0.190127
C26   C     C_R   0.187142 0.498571 0.619091 0.110704
C27   C     C_R   0.233319 0.499277 0.504900 -0.092308
C28   C     C_R   0.188505 0.497077 0.393498 -0.164317
H9    H     H_    0.076909 0.486613 0.817906 0.230135
H10   H     H_    0.226924 0.497496 0.308297 0.252276
H11   H     H_    0.927459 0.482776 0.190174 0.220192
C29   C     C_R   0.428276 0.796556 0.543902 0.330744
C30   C     C_R   0.427508 0.203182 0.542012 0.329943
N1    N     N_R   0.499930 0.743810 0.499950 -0.197055
N2    N     N_R   0.499930 0.256190 0.499950 -0.196059
C31   C     C_R   0.570049 0.792382 0.446130 0.116065
C32   C     C_R   0.570251 0.207870 0.446781 0.117454
C33   C     C_R   0.572549 0.895981 0.440163 -0.128440
C34   C     C_R   0.572595 0.104282 0.440415 -0.128113
C35   C     C_R   0.495860 0.948158 0.474509 -0.028002
C36   C     C_R   0.495815 0.051624 0.474341 -0.027292
C37   C     C_R   0.419428 0.896791 0.512545 0.011387
C38   C     C_R   0.419127 0.102495 0.511303 0.009661
C39   C     C_R   0.648416 0.948654 0.399380 0.350673
C40   C     C_R   0.648472 0.052056 0.399616 0.350302
C41   C     C_R   0.337025 0.050930 0.515438 0.144189
C42   C     C_R   0.337183 0.947333 0.516826 0.145486
H12   H     H_    0.625274 0.750259 0.411249 0.192389
H13   H     H_    0.625702 0.250188 0.412430 0.190092
Cl1   Cl    Cl    0.512574 0.704535 0.109768 -0.553933
Cl2   Cl    Cl    0.498863 0.293122 0.111344 -0.551908
C43   C     C_3   0.236814 0.500815 0.740103 -0.848918
H14   H     H_    0.309411 0.505792 0.727407 0.200590
H15   H     H_    0.216173 0.565260 0.795501 0.262736
H16   H     H_    0.222729 0.433283 0.793176 0.260853
Cl3   Cl    Cl    0.106289 0.489037 0.133717 -0.497820
C44   C     C_3   0.372993 0.758165 0.651277 -0.771495
H17   H     H_    0.415778 0.722524 0.718401 0.240394
H18   H     H_    0.341728 0.818477 0.704534 0.216703
H19   H     H_    0.319193 0.708793 0.622749 0.242412
C45   C     C_3   0.369180 0.242608 0.645715 -0.765051
H20   H     H_    0.408701 0.283855 0.712140 0.241824
H21   H     H_    0.313660 0.287206 0.612532 0.240723
H22   H     H_    0.339992 0.182473 0.701627 0.215369
Cl4   Cl    Cl    0.745155 0.886178 0.350627 -0.496322
Cl5   Cl    Cl    0.745293 0.115119 0.351135 -0.497692
C46   C     C_3   0.249805 0.104871 0.503723 -0.773003
H23   H     H_    0.210207 0.074875 0.427001 0.251365
H24   H     H_    0.210977 0.099985 0.591648 0.239978
H25   H     H_    0.259084 0.181989 0.477118 0.243799
C47   C     C_3   0.249958 0.892166 0.508469 -0.776446
H26   H     H_    0.211229 0.917533 0.428636 0.251246
H27   H     H_    0.258795 0.813709 0.489342 0.243368
H28   H     H_    0.210461 0.901977 0.595093 0.239996
Cl6   Cl    Cl    0.340959 0.618623 0.135550 -0.520991
Cl7   Cl    Cl    0.333743 0.391385 0.131682 -0.519976
C48   C     C_3   0.767749 0.467596 0.269229 -0.810619
H29   H     H_    0.791593 0.399026 0.225709 0.270841
H30   H     H_    0.695374 0.459647 0.281390 0.210846
H31   H     H_    0.779763 0.529474 0.205196 0.246442
C49   C     C_3   0.762457 0.554116 0.724986 -0.766892
H32   H     H_    0.803578 0.606811 0.777114 0.273135
H33   H     H_    0.702786 0.595775 0.700041 0.219474
H34   H     H_    0.742217 0.492125 0.783827 0.253841
Cl8   Cl    Cl    0.903544 0.466100 0.877002 -0.598972

loop_
_geom_bond_atom_site_label_1
_geom_bond_atom_site_label_2
_geom_bond_distance
_ccdc_geom_bond_type
C6    C10   1.592206 S    
C30   N2    1.382805 A    
C39   Cl4   1.768867 S    
C16   C19   1.423465 A    
C7    C11   1.548325 S    
C23   C24   1.405539 A    
C3    C14   1.464944 S    
C48   H29   1.110525 S    
C30   C38   1.427468 A    
H6    C9    1.109239 S    
C48   H31   1.110215 S    
Cu1   Cu2   2.677074 S    
C46   H23   1.107296 S    
C42   C47   1.520350 S    
C11   C12   1.545613 S    
Cu1   N1    2.011384 S    
C20   C21   1.400154 A    
O7    C4    1.293175 A    
C34   C36   1.408068 A    
C35   C37   1.406583 A    
Cu1   O5    1.969718 S    
C16   C17   1.420454 A    
O5    C3    1.291223 A    
C2    C10   1.494668 S    
C13   C14   1.411325 A    
C29   N1    1.381387 A    
C23   C28   1.394604 A    
C26   C43   1.517501 S    
C43   H14   1.103937 S    
H5    C9    1.111066 S    
C47   H27   1.105262 S    
C46   H24   1.110672 S    
O1    Cu1   1.968182 S    
C9    C12   1.537374 S    
C43   H16   1.110239 S    
O3    Cu1   1.980597 S    
N1    C31   1.371599 A    
C34   C40   1.417492 A    
C31   C33   1.425394 A    
N2    C32   1.371683 A    
C28   H10   1.080516 S    
C24   Cl3   1.766211 S    
C36   C38   1.406295 A    
O3    C2    1.293531 A    
C21   C22   1.417286 A    
C45   H21   1.104619 S    
C25   H11   1.081070 S    
C35   C36   1.421624 A    
C27   C28   1.390084 A    
C1    C27   1.447738 S    
C7    H3    1.109692 S    
O1    C1    1.289050 A    
C17   C18   1.418317 A    
C38   C41   1.425191 A    
Cu1   O7    1.981656 S    
C44   H17   1.096097 S    
C19   C20   1.386687 A    
O4    Cu2   1.981658 S    
C49   H32   1.109974 S    
Cu2   O8    1.980595 S    
C39   C40   1.420718 A    
C15   C16   1.416457 A    
C8    C11   1.549466 S    
C47   H28   1.110186 S    
C44   H18   1.110231 S    
C20   H9    1.081468 S    
Cu2   O6    1.968212 S    
C22   C23   1.415756 A    
C49   H33   1.105993 S    
O8    C4    1.292453 A    
C37   C42   1.424508 A    
H8    C12   1.112289 S    
C32   C34   1.425315 A    
C33   C39   1.417369 A    
C24   C25   1.387924 A    
C4    C11   1.490857 S    
C41   C46   1.520045 S    
C26   C27   1.407862 A    
C19   Cl8   1.769108 S    
C46   H25   1.106450 S    
H7    C12   1.110720 S    
C5    C7    1.546108 S    
C8    H4    1.110612 S    
O2    Cu2   1.969687 S    
C6    Cl2   1.809657 S    
O6    C3    1.292084 A    
Cu2   N2    2.011374 S    
C5    Cl6   1.795754 S    
C45   H22   1.110631 S    
C32   H13   1.078947 S    
C48   H30   1.103148 S    
C21   C26   1.413801 A    
C31   H12   1.079046 S    
C6    Cl7   1.792467 S    
C40   Cl5   1.769108 S    
C29   C37   1.426362 A    
C41   C42   1.423547 A    
O2    C1    1.289144 A    
C29   C44   1.513547 S    
C14   C15   1.412613 A    
C5    C10   1.592386 S    
O4    C2    1.292536 A    
C13   C48   1.517734 S    
C5    Cl1   1.810112 S    
C7    H1    1.111022 S    
C33   C35   1.408028 A    
C17   C22   1.415867 A    
C8    H2    1.110631 S    
C44   H19   1.103208 S    
C30   C45   1.514662 S    
C45   H20   1.095816 S    
C49   H34   1.103633 S    
C6    C8    1.547996 S    
C9    C10   1.551947 S    
C13   C18   1.411493 A    
C18   C25   1.408740 A    
C43   H15   1.110418 S    
C15   C49   1.509991 S    
C47   H26   1.107210 S    
