data_mof_unit_42971.cif
_audit_creation_date              2013-03-05T15:45:15-0500
_audit_creation_method            fapswitch 2.2
_symmetry_space_group_name_H-M    P1
_symmetry_Int_Tables_number       1
_space_group_crystal_system       triclinic
_cell_length_a                    16.986057
_cell_length_b                    7.287029
_cell_length_c                    17.091489
_cell_angle_alpha                 91.301591
_cell_angle_beta                  99.667636
_cell_angle_gamma                 89.355646
_cell_volume                      2084.90707472

loop_
_atom_site_label
_atom_site_type_symbol
_atom_site_description
_atom_site_fract_x
_atom_site_fract_y
_atom_site_fract_z
_atom_type_partial_charge
O1    O     O_R   0.579510 0.506290 0.439030 -0.542771
O2    O     O_R   0.420490 0.006290 0.560970 -0.540290
O3    O     O_R   0.412540 0.170090 0.405290 -0.503169
O4    O     O_R   0.587460 0.670090 0.594710 -0.510511
C1    C     C_R   0.383291 0.346052 0.384341 1.117322
C2    C     C_R   0.617221 0.846721 0.614644 1.118221
O5    O     O_R   0.578390 0.176230 0.429330 -0.572403
O6    O     O_R   0.421610 0.676230 0.570670 -0.563706
O7    O     O_R   0.587530 0.011250 0.585190 -0.547658
O8    O     O_R   0.412470 0.511250 0.414810 -0.552086
C3    C     C_R   0.605141 0.343180 0.414476 1.077030
C4    C     C_R   0.395669 0.847199 0.585970 1.068934
O9    O     O_3   0.502800 0.340940 0.551110 -0.233370
O10   O     O_3   0.497200 0.840940 0.448890 -0.220429
V1    V     V_3+5 0.499480 0.064020 0.490520 1.469873
V2    V     V_3+5 0.500520 0.564020 0.509480 1.459745
C5    C     C_R   0.168165 0.901891 0.862881 -0.279237
C6    C     C_R   0.841353 0.426943 0.147789 -0.269452
C7    C     C_R   0.331527 0.862107 0.636701 -0.291225
C8    C     C_R   0.671124 0.346555 0.365221 -0.271297
C9    C     C_R   0.190042 0.857496 0.648330 -0.073355
C10   C     C_R   0.786218 0.192155 0.322286 -0.137192
C11   C     C_R   0.251206 0.833371 0.602605 -0.052674
C12   C     C_R   0.726006 0.199717 0.369103 -0.048922
C13   C     C_R   0.348554 0.914880 0.718285 0.292671
C14   C     C_R   0.678461 0.490154 0.312217 0.305167
C15   C     C_R   0.289728 0.885344 0.766892 -0.042294
C16   C     C_R   0.738632 0.481001 0.262558 -0.024878
C17   C     C_R   0.208904 0.882845 0.731232 0.131536
C18   C     C_R   0.791353 0.327282 0.266526 0.158391
C19   C     C_R   0.149145 0.901994 0.779317 -0.210358
C20   C     C_R   0.846547 0.308540 0.212617 -0.139483
C21   C     C_R   0.248664 0.865815 0.897557 0.329166
C22   C     C_R   0.780428 0.559886 0.138880 0.261441
C23   C     C_R   0.308727 0.855557 0.849269 -0.177462
C24   C     C_R   0.744026 0.611738 0.203654 -0.126212
H1    H     H_    0.087921 0.915203 0.751724 0.220391
H2    H     H_    0.890187 0.197943 0.218707 0.152848
H3    H     H_    0.128334 0.847537 0.619486 0.200499
H4    H     H_    0.826095 0.074329 0.326635 0.157792
H5    H     H_    0.235485 0.802656 0.539675 0.226682
H6    H     H_    0.721142 0.086382 0.407107 0.223916
C25   C     C_3   0.740940 0.798435 0.837912 -0.012846
C26   C     C_3   0.258894 0.297811 0.159031 -0.021256
C27   C     C_3   0.670860 0.767495 0.761501 0.383652
C28   C     C_3   0.328190 0.254908 0.234948 0.351967
C29   C     C_3   0.847071 0.800344 0.735733 0.016250
C30   C     C_3   0.152817 0.320133 0.263136 -0.002231
C31   C     C_3   0.783572 0.090133 0.780086 -0.488510
C32   C     C_3   0.220485 0.595951 0.218600 -0.457930
C33   C     C_3   0.816289 0.898193 0.810335 -0.381796
C34   C     C_3   0.185372 0.407304 0.188318 -0.399120
H7    H     H_    0.830967 0.164811 0.759613 0.276610
H8    H     H_    0.174260 0.684452 0.236609 0.279854
H9    H     H_    0.776117 0.181388 0.830911 0.239932
H10   H     H_    0.230968 0.674144 0.167293 0.262869
C35   C     C_3   0.691081 0.869199 0.684634 -0.709033
C36   C     C_3   0.309798 0.368361 0.313798 -0.682622
C37   C     C_3   0.776228 0.799119 0.656561 0.405174
C38   C     C_3   0.223746 0.313480 0.342466 0.419463
C39   C     C_3   0.705142 0.080480 0.714527 0.490188
C40   C     C_3   0.297821 0.580688 0.285450 0.471885
O11   O     O_R   0.087500 0.266000 0.085220 -0.587526
O12   O     O_R   0.912500 0.766000 0.914780 -0.582840
O13   O     O_R   0.921600 0.589950 0.070670 -0.582414
O14   O     O_R   0.078400 0.089950 0.929330 -0.547144
C41   C     C_R   0.898520 0.423463 0.089350 1.011747
C42   C     C_R   0.103129 0.919353 0.912586 1.088310
O15   O     O_R   0.087460 0.596020 0.094710 -0.539303
O16   O     O_R   0.912540 0.096020 0.905290 -0.563442
O17   O     O_R   0.079520 0.760970 0.939020 -0.573599
O18   O     O_R   0.920480 0.260970 0.060980 -0.601852
C43   C     C_R   0.115489 0.426812 0.116788 1.040421
C44   C     C_R   0.885657 0.924156 0.882354 0.977174
O19   O     O_3   0.997180 0.425140 0.948910 -0.277367
O20   O     O_3   0.002820 0.925140 0.051090 -0.296884
V3    V     V_3+5 0.000520 0.702080 0.009480 1.297181
V4    V     V_3+5 0.999480 0.202080 0.990520 1.290932
N1    N     N_R   0.663684 0.573587 0.739930 0.274770
O21   O     O_R   0.593722 0.497540 0.727155 -0.208766
O22   O     O_R   0.726757 0.472009 0.743144 -0.422130
N2    N     N_R   0.332583 0.062620 0.253060 0.283097
O23   O     O_R   0.402429 0.989223 0.276281 -0.211551
O24   O     O_R   0.269911 0.976445 0.263672 -0.400708
C45   C     C_1   0.874376 0.612763 0.759656 0.407659
N3    N     N_1   0.899803 0.468308 0.776523 0.032348
C46   C     C_1   0.121515 0.134464 0.238712 0.389081
N4    N     N_1   0.093021 0.992328 0.221750 0.031378
N5    N     N_R   0.774397 0.617618 0.615830 0.265053
O25   O     O_R   0.716390 0.582676 0.557983 -0.327987
O26   O     O_R   0.843188 0.551241 0.604158 -0.271755
N6    N     N_R   0.223086 0.134909 0.381923 0.271048
O27   O     O_R   0.280923 0.097576 0.439231 -0.335477
O28   O     O_R   0.153723 0.074534 0.392423 -0.292581
N7    N     N_R   0.635437 0.151371 0.749531 0.263433
O29   O     O_R   0.564506 0.159604 0.707354 -0.241014
O30   O     O_R   0.642598 0.217586 0.821579 -0.289689
N8    N     N_R   0.369110 0.643194 0.252645 0.257316
O31   O     O_R   0.438720 0.655074 0.297240 -0.232613
O32   O     O_R   0.363237 0.714529 0.182832 -0.296341
N9    N     N_R   0.715683 0.201122 0.647799 0.271201
O33   O     O_R   0.786368 0.246045 0.635535 -0.299096
O34   O     O_R   0.656538 0.298722 0.612101 -0.269302
N10   N     N_R   0.286451 0.706605 0.352924 0.270623
O35   O     O_R   0.215441 0.758219 0.363891 -0.309948
O36   O     O_R   0.345325 0.802821 0.390496 -0.270271
N11   N     N_R   0.921745 0.884005 0.718470 0.242392
O37   O     O_R   0.966915 0.789466 0.677308 -0.348994
O38   O     O_R   0.950267 0.037485 0.751200 -0.427388
N12   N     N_R   0.079647 0.418026 0.280731 0.251489
O39   O     O_R   0.030763 0.333711 0.318956 -0.322397
O40   O     O_R   0.054191 0.571914 0.248221 -0.400601
N13   N     N_R   0.792342 0.920507 0.592287 0.268559
O41   O     O_R   0.863572 0.941076 0.575708 -0.223043
O42   O     O_R   0.734415 0.948982 0.533588 -0.410365
N14   N     N_R   0.209303 0.440647 0.408259 0.260420
O43   O     O_R   0.138274 0.465229 0.425604 -0.230650
O44   O     O_R   0.267509 0.469212 0.467245 -0.398717
N15   N     N_R   0.269770 0.831959 0.981019 0.240881
O45   O     O_R   0.220791 0.747109 0.018104 -0.403406
O46   O     O_R   0.337550 0.888797 0.020946 -0.288022
N16   N     N_R   0.731575 0.568078 0.062733 0.252653
O47   O     O_R   0.702961 0.412617 0.032000 -0.293028
O48   O     O_R   0.692450 0.717932 0.041416 -0.364397
C47   C     C_1   0.383913 0.768329 0.880963 0.382804
N17   N     N_1   0.442856 0.695246 0.907394 0.088047
C48   C     C_1   0.708116 0.792933 0.202854 0.308068
N18   N     N_1   0.679293 0.937802 0.201089 0.009317
N19   N     N_R   0.406388 0.056984 0.742297 0.272347
O49   O     O_R   0.405322 0.199036 0.697330 -0.304752
O50   O     O_R   0.442446 0.072966 0.815476 -0.287990
N20   N     N_R   0.616607 0.626136 0.298763 0.237658
O51   O     O_R   0.567245 0.623022 0.231700 -0.261332
O52   O     O_R   0.620115 0.771607 0.344751 -0.359200
N21   N     N_R   0.751790 0.621460 0.880428 0.262812
O53   O     O_R   0.687906 0.544479 0.896542 -0.208262
O54   O     O_R   0.817290 0.526182 0.894436 -0.389333
N22   N     N_R   0.232249 0.136463 0.105875 0.287175
O55   O     O_R   0.203014 0.989561 0.130058 -0.330733
O56   O     O_R   0.220070 0.155957 0.029021 -0.394751
C49   C     C_1   0.719018 0.924960 0.900845 0.310074
N23   N     N_1   0.703862 0.022489 0.950796 0.071875
C50   C     C_1   0.295123 0.414909 0.103806 0.345380
N24   N     N_1   0.326024 0.490622 0.058598 0.065257
N25   N     N_R   0.591177 0.822470 0.781569 0.252610
O57   O     O_R   0.576591 0.802113 0.853091 -0.295764
O58   O     O_R   0.528613 0.819750 0.726182 -0.420328
N26   N     N_R   0.409008 0.294262 0.214375 0.239540
O59   O     O_R   0.426297 0.220388 0.149055 -0.277681
O60   O     O_R   0.470137 0.321992 0.270045 -0.383088

loop_
_geom_bond_atom_site_label_1
_geom_bond_atom_site_label_2
_geom_bond_distance
_ccdc_geom_bond_type
C36   C40   1.632150 S    
O14   C42   1.347670 A    
C46   N4    1.158272 T    
N9    O33   1.299678 A    
O16   V4    2.037686 S    
C12   H6    1.074588 S    
O12   V3    2.068304 S    
C30   N12   1.496630 S    
N7    O29   1.297495 A    
O1    C3    1.343676 A    
C33   C44   1.564158 S    
O2    C4    1.341015 A    
C2    O7    1.368850 A    
N10   O36   1.297555 A    
N25   O57   1.299429 A    
O3    V1    2.050177 S    
N21   O53   1.299663 A    
C45   N3    1.157348 T    
O5    C3    1.347656 A    
C27   C35   1.610836 S    
C32   H8    1.089929 S    
C1    C36   1.592907 S    
C27   N25   1.499173 S    
C29   C45   1.482624 S    
O20   V4    2.284762 S    
N13   O41   1.299160 A    
C42   O17   1.338623 A    
C31   H7    1.086195 S    
C35   C37   1.669771 S    
C15   C17   1.405572 A    
C36   C38   1.673063 S    
C50   N24   1.157159 T    
N14   O43   1.299411 A    
C41   O18   1.342033 A    
C37   N5    1.478749 S    
C31   C33   1.565661 S    
C23   C47   1.446897 S    
N12   O39   1.306029 A    
N2    O24   1.282790 A    
O18   V4    1.985305 S    
C40   N8    1.496732 S    
O15   V3    2.050148 S    
C28   N26   1.505304 S    
C8    C12   1.406558 A    
N20   O51   1.301451 A    
O13   C41   1.340824 A    
O16   C44   1.364215 A    
C32   C34   1.547830 S    
N11   O37   1.305988 A    
O15   C43   1.355364 A    
C20   H2    1.083646 S    
N5    O26   1.303960 A    
C37   N13   1.488201 S    
C26   C34   1.617463 S    
O5    V1    2.023180 S    
C13   N19   1.440116 S    
C22   N16   1.423253 S    
C28   N2    1.440266 S    
C28   C36   1.637766 S    
N11   O38   1.300480 A    
C2    C35   1.588531 S    
C5    C21   1.420172 A    
N10   O35   1.301531 A    
N25   O58   1.299088 A    
C26   C28   1.632172 S    
C30   C38   1.656890 S    
C40   N10   1.493957 S    
C38   N6    1.480173 S    
O14   V4    1.991447 S    
C3    C8    1.511271 S    
O13   V3    2.023060 S    
C31   C39   1.591360 S    
O20   V3    1.757541 S    
O4    C2    1.401844 A    
C34   C43   1.562245 S    
N1    O22   1.289553 A    
C29   C33   1.606802 S    
O11   C43   1.337156 A    
C15   C23   1.411840 A    
C6    C41   1.505068 S    
C31   H9    1.105262 S    
C9    C17   1.407624 A    
N2    O23   1.299363 A    
C32   H10   1.096699 S    
C39   N9    1.491075 S    
C19   H1    1.071566 S    
O4    V2    2.037712 S    
C7    C11   1.406670 A    
C39   N7    1.495592 S    
O19   V3    2.243985 S    
C9    H3    1.083282 S    
O6    C4    1.351391 A    
C10   H4    1.083715 S    
N6    O28   1.303916 A    
C30   C46   1.484408 S    
C27   N1    1.453449 S    
O1    V2    1.983422 S    
N26   O59   1.304482 A    
C25   N21   1.489090 S    
O2    V1    2.001342 S    
C25   C27   1.626020 S    
N15   O46   1.302593 A    
N22   O56   1.305733 A    
N20   O52   1.301118 A    
C21   N15   1.437524 S    
C29   N11   1.489573 S    
C9    C11   1.408316 A    
C47   N17   1.156354 T    
C5    C19   1.410415 A    
C10   C12   1.400349 A    
C38   N14   1.491184 S    
C24   C48   1.447598 S    
C6    C20   1.410243 A    
N16   O48   1.298953 A    
C48   N18   1.157540 T    
O17   V3    2.003573 S    
C14   N20   1.429845 S    
N19   O49   1.301373 A    
N9    O34   1.298134 A    
N21   O54   1.295349 A    
C5    C42   1.505134 S    
C26   N22   1.495984 S    
C10   C18   1.399257 A    
C14   C16   1.434110 A    
N26   O60   1.299422 A    
O3    C1    1.402121 A    
N15   O45   1.297198 A    
N7    O30   1.299230 A    
C35   C39   1.618654 S    
C13   C15   1.423629 A    
N8    O32   1.300355 A    
C11   H5    1.082675 S    
C16   C18   1.421901 A    
O7    V1    2.050704 S    
C1    O8    1.365370 A    
C17   C19   1.413180 A    
O8    V2    2.043215 S    
C49   N23   1.158604 T    
C18   C20   1.424113 A    
C25   C33   1.621051 S    
C8    C14   1.419541 A    
C6    C22   1.401387 A    
C26   C50   1.497067 S    
C32   C40   1.594320 S    
C4    C7    1.503655 S    
N6    O27   1.296711 A    
C21   C23   1.416283 A    
N14   O44   1.302899 A    
C22   C24   1.398721 A    
C7    C13   1.420760 A    
O19   V4    1.786372 S    
N12   O40   1.299968 A    
C25   C49   1.492452 S    
N22   O55   1.290108 A    
C29   C37   1.652868 S    
N1    O21   1.299696 A    
C30   C34   1.620734 S    
C16   C24   1.416361 A    
O6    V2    1.991546 S    
N8    O31   1.297346 A    
O9    V2    1.786668 S    
N16   O47   1.301952 A    
O12   C44   1.332522 A    
O10   V1    1.757817 S    
N19   O50   1.300285 A    
N5    O25   1.296216 A    
N13   O42   1.300393 A    
O11   V4    2.059299 S    
