data_mof_unit_43157.cif
_audit_creation_date              2013-03-05T16:00:53-0500
_audit_creation_method            fapswitch 2.2
_symmetry_space_group_name_H-M    P1
_symmetry_Int_Tables_number       1
_space_group_crystal_system       triclinic
_cell_length_a                    20.323565
_cell_length_b                    21.948171
_cell_length_c                    14.229077
_cell_angle_alpha                 89.982029
_cell_angle_beta                  92.493257
_cell_angle_gamma                 90.045578
_cell_volume                      6341.08362715

loop_
_atom_site_label
_atom_site_type_symbol
_atom_site_description
_atom_site_fract_x
_atom_site_fract_y
_atom_site_fract_z
_atom_type_partial_charge
O1    O     O_R   0.066090 0.433930 0.580280 -0.618860
O2    O     O_R   0.933910 0.566070 0.419720 -0.588145
O3    O     O_R   0.933910 0.566070 0.580280 -0.629006
O4    O     O_R   0.066090 0.433930 0.419720 -0.636518
O5    O     O_R   0.933910 0.433930 0.419720 -0.604852
O6    O     O_R   0.066090 0.566070 0.580280 -0.621895
O7    O     O_R   0.066090 0.566070 0.419720 -0.571208
O8    O     O_R   0.933910 0.433930 0.580280 -0.599198
O9    O     O_R   0.566090 0.933930 0.580280 -0.622064
O10   O     O_R   0.433910 0.066070 0.419720 -0.619923
O11   O     O_R   0.433910 0.066070 0.580280 -0.619061
O12   O     O_R   0.566090 0.933930 0.419720 -0.596505
O13   O     O_R   0.433910 0.933930 0.419720 -0.629566
O14   O     O_R   0.566090 0.066070 0.580280 -0.625946
O15   O     O_R   0.566090 0.066070 0.419720 -0.609811
O16   O     O_R   0.433910 0.933930 0.580280 -0.584815
C1    C     C_R   0.086720 0.413480 0.500960 0.876023
C2    C     C_R   0.913240 0.586240 0.498749 0.849588
C3    C     C_R   0.911862 0.414670 0.498877 0.840844
C4    C     C_R   0.088139 0.584896 0.501068 0.878140
C5    C     C_R   0.586867 0.913692 0.500933 0.847665
C6    C     C_R   0.414391 0.087353 0.498563 0.852874
C7    C     C_R   0.414013 0.912835 0.499140 0.853294
C8    C     C_R   0.587411 0.085841 0.501654 0.847312
Zn1   Zn    Zn3+2 0.000000 0.500000 0.607200 0.981592
Zn2   Zn    Zn3+2 1.000000 0.500000 0.392800 1.022836
Zn3   Zn    Zn3+2 0.500000 0.000000 0.607200 0.980925
Zn4   Zn    Zn3+2 0.500000 0.000000 0.392800 0.986080
C9    C     C_R   0.138299 0.674637 0.571252 -0.122228
C10   C     C_R   0.877305 0.315002 0.549702 -0.073770
C11   C     C_R   0.869851 0.677956 0.567317 -0.091082
C12   C     C_R   0.130300 0.321178 0.432557 -0.111607
C13   C     C_R   0.615623 0.190576 0.466022 -0.088632
C14   C     C_R   0.369765 0.818025 0.430446 -0.107059
C15   C     C_R   0.379579 0.186129 0.557612 -0.056339
C16   C     C_R   0.624591 0.817151 0.439119 -0.111726
C17   C     C_R   0.139411 0.629572 0.503572 -0.105459
C18   C     C_R   0.862623 0.367320 0.498754 -0.106578
C19   C     C_R   0.865726 0.634409 0.496769 -0.129626
C20   C     C_R   0.135695 0.366120 0.501035 -0.107045
C21   C     C_R   0.633403 0.135512 0.507295 -0.116699
C22   C     C_R   0.367877 0.863034 0.498984 -0.132444
C23   C     C_R   0.370199 0.138464 0.494290 -0.134139
C24   C     C_R   0.634419 0.865273 0.501408 -0.107800
C25   C     C_R   0.188769 0.627152 0.438728 -0.133399
C26   C     C_R   0.799461 0.377618 0.460111 -0.137051
C27   C     C_R   0.816103 0.635998 0.426463 -0.106885
C28   C     C_R   0.190726 0.369555 0.561830 -0.112144
C29   C     C_R   0.690909 0.130200 0.563520 -0.149228
C30   C     C_R   0.324951 0.858865 0.572186 -0.124259
C31   C     C_R   0.321138 0.140757 0.423503 -0.134986
C32   C     C_R   0.690819 0.868828 0.559491 -0.141666
C33   C     C_R   0.238431 0.670975 0.440950 -0.059386
C34   C     C_R   0.749208 0.334558 0.470506 0.013479
C35   C     C_R   0.768489 0.681627 0.425920 -0.026273
C36   C     C_R   0.242479 0.328555 0.554578 -0.026322
C37   C     C_R   0.734958 0.178834 0.571648 -0.026264
C38   C     C_R   0.281270 0.810627 0.576756 -0.045396
C39   C     C_R   0.277805 0.189594 0.417564 -0.011614
C40   C     C_R   0.737584 0.822795 0.560043 -0.019546
C41   C     C_R   0.234545 0.719503 0.505815 -0.011940
C42   C     C_R   0.765909 0.279551 0.518692 -0.037490
C43   C     C_R   0.773020 0.726285 0.497782 -0.036844
C44   C     C_R   0.234829 0.280125 0.489563 -0.018809
C45   C     C_R   0.719213 0.233340 0.522832 -0.024085
C46   C     C_R   0.280353 0.766561 0.504212 -0.021834
C47   C     C_R   0.282821 0.235075 0.488037 -0.029468
C48   C     C_R   0.726805 0.772852 0.498409 -0.019876
C49   C     C_R   0.184335 0.721267 0.571962 -0.036538
C50   C     C_R   0.830476 0.269260 0.558167 -0.041002
C51   C     C_R   0.823876 0.724492 0.569160 -0.033452
C52   C     C_R   0.178573 0.276472 0.426812 -0.031989
C53   C     C_R   0.656072 0.241490 0.479273 -0.014220
C54   C     C_R   0.325155 0.769569 0.430410 -0.032892
C55   C     C_R   0.335416 0.234873 0.557467 -0.031106
C56   C     C_R   0.670248 0.769893 0.436835 -0.044095
C57   C     C_R   0.289923 0.669049 0.377505 0.243007
C58   C     C_R   0.682891 0.345453 0.436635 0.288099
C59   C     C_R   0.715488 0.682464 0.357814 0.333000
C60   C     C_R   0.300905 0.334598 0.611670 0.320427
C61   C     C_R   0.794755 0.173573 0.625182 0.236490
C62   C     C_R   0.236783 0.806987 0.650120 0.250998
C63   C     C_R   0.227917 0.192166 0.345296 0.307733
C64   C     C_R   0.793427 0.824412 0.622945 0.301025
C65   C     C_R   0.846023 0.214698 0.607927 0.325535
C66   C     C_R   0.182126 0.768537 0.638734 0.312565
C67   C     C_R   0.173216 0.230147 0.357579 0.228198
C68   C     C_R   0.829324 0.770522 0.638191 0.317159
C69   C     C_R   0.326024 0.722660 0.361971 0.314624
C70   C     C_R   0.634862 0.299774 0.449836 0.214102
C71   C     C_R   0.661568 0.720986 0.372960 0.226070
C72   C     C_R   0.343318 0.283819 0.622458 0.319534
H1    H     H_    0.100790 0.672718 0.622782 0.207948
H2    H     H_    0.925371 0.311964 0.584886 0.205890
H3    H     H_    0.911236 0.676563 0.617780 0.215163
H4    H     H_    0.088590 0.322832 0.382927 0.222227
H5    H     H_    0.570003 0.193172 0.423934 0.198530
H6    H     H_    0.409061 0.819676 0.381900 0.218189
H7    H     H_    0.423075 0.185040 0.603702 0.221174
H8    H     H_    0.581866 0.818287 0.391122 0.216592
H9    H     H_    0.186826 0.592033 0.385316 0.230954
H10   H     H_    0.789743 0.420745 0.426915 0.184058
H11   H     H_    0.813401 0.599670 0.375626 0.199433
H12   H     H_    0.193156 0.404693 0.613948 0.176820
H13   H     H_    0.703024 0.086956 0.595643 0.184870
H14   H     H_    0.324337 0.894719 0.623873 0.207854
H15   H     H_    0.314987 0.102644 0.376114 0.176818
H16   H     H_    0.697909 0.907468 0.604042 0.173618
C73   C     C_R   0.942075 0.489038 0.795346 0.298852
C74   C     C_R   0.058338 0.506366 0.204635 0.349822
C75   C     C_R   0.056451 0.517005 0.801666 0.272701
C76   C     C_R   0.942312 0.494981 0.196659 0.299277
C77   C     C_R   0.440757 0.998880 0.795075 0.326655
C78   C     C_R   0.558546 0.999147 0.204710 0.334659
C79   C     C_R   0.558317 0.005130 0.803932 0.252223
C80   C     C_R   0.440559 0.000054 0.197758 0.282127
N1    N     N_R   0.000000 0.500000 0.750030 -0.129048
N2    N     N_R   1.000000 0.500000 0.249970 -0.137796
N3    N     N_R   0.500000 0.000000 0.750030 -0.137141
N4    N     N_R   0.500000 0.000000 0.249970 -0.139525
C81   C     C_R   0.058307 0.518541 0.903376 -0.142264
C82   C     C_R   0.944290 0.484515 0.097630 -0.168204
C83   C     C_R   0.940410 0.492083 0.896355 -0.151952
C84   C     C_R   0.056220 0.519020 0.105134 -0.131694
C85   C     C_R   0.559386 0.000006 0.904338 -0.122725
C86   C     C_R   0.439424 0.994649 0.097227 -0.119767
C87   C     C_R   0.439773 0.005259 0.895695 -0.155570
C88   C     C_R   0.558228 0.007231 0.105104 -0.156045
C89   C     C_R   0.999757 0.503981 0.949484 -0.033018
C90   C     C_R   0.000264 0.502121 0.050535 -0.042842
C91   C     C_R   0.499315 0.001687 0.949975 -0.049529
C92   C     C_R   0.498953 0.000874 0.051041 -0.052965
C93   C     C_R   0.114236 0.537363 0.962699 0.338066
C94   C     C_R   0.889817 0.463568 0.043317 0.347273
C95   C     C_R   0.882894 0.479819 0.948282 0.355668
C96   C     C_R   0.105770 0.549656 0.058574 0.314869
C97   C     C_R   0.618342 0.000726 0.962583 0.358846
C98   C     C_R   0.380627 0.991116 0.039447 0.368623
C99   C     C_R   0.380979 0.010035 0.945527 0.338932
C100  C     C_R   0.615942 0.018187 0.056697 0.345684
S1    S     S_3+6 0.319022 0.598065 0.334338 0.105687
O17   O     O_2   0.296579 0.589844 0.233390 -0.178810
O18   O     O_2   0.393015 0.597286 0.340597 -0.168942
O19   O     O_3   0.292235 0.538839 0.397278 -0.541892
H17   H     H_    0.311055 0.545718 0.461774 0.389506
S2    S     S_3+6 0.663535 0.411800 0.367609 0.093546
O20   O     O_2   0.593171 0.415404 0.331426 -0.130717
O21   O     O_2   0.679727 0.468293 0.423711 -0.287189
O22   O     O_3   0.710425 0.409040 0.273801 -0.535633
H18   H     H_    0.686858 0.434432 0.225617 0.427187
S3    S     S_3+6 0.720353 0.641426 0.250065 0.090538
O23   O     O_2   0.789655 0.644107 0.217543 -0.308586
O24   O     O_2   0.701397 0.576161 0.265978 -0.254881
O25   O     O_3   0.670634 0.671502 0.164651 -0.433056
H19   H     H_    0.674411 0.643763 0.110250 0.410390
S4    S     S_3+6 0.324190 0.407635 0.658096 0.091237
O26   O     O_2   0.298484 0.457318 0.593706 -0.337143
O27   O     O_2   0.295562 0.415376 0.752927 -0.232833
O28   O     O_3   0.406566 0.414825 0.668427 -0.427991
H20   H     H_    0.414291 0.454577 0.699960 0.398232
S5    S     S_3+6 0.799663 0.123760 0.724258 0.122693
O29   O     O_2   0.817844 0.060942 0.692827 -0.175173
O30   O     O_2   0.849745 0.145385 0.797644 -0.153177
O31   O     O_3   0.726180 0.120814 0.773743 -0.533122
H21   H     H_    0.716439 0.163483 0.790973 0.371145
S6    S     S_3+6 0.256309 0.840548 0.761580 0.089290
O32   O     O_2   0.236569 0.906462 0.759173 -0.221490
O33   O     O_2   0.221309 0.808802 0.838607 -0.170091
O34   O     O_3   0.337854 0.835042 0.785555 -0.555994
H22   H     H_    0.347467 0.790850 0.783111 0.371913
S7    S     S_3+6 0.239625 0.155511 0.235309 0.113957
O35   O     O_2   0.311456 0.156246 0.214412 -0.276089
O36   O     O_2   0.216279 0.090670 0.240619 -0.251115
O37   O     O_3   0.198261 0.191713 0.146884 -0.425121
H23   H     H_    0.200094 0.163867 0.092311 0.424997
S8    S     S_3+6 0.823965 0.894371 0.671092 0.106232
O38   O     O_2   0.811404 0.945092 0.601600 -0.290124
O39   O     O_2   0.789738 0.908042 0.759991 -0.211245
O40   O     O_3   0.905583 0.890312 0.695068 -0.445918
H24   H     H_    0.917319 0.929608 0.725668 0.411619
S9    S     S_3+6 0.929548 0.195067 0.639610 0.088122
O41   O     O_2   0.973801 0.213315 0.562511 -0.316530
O42   O     O_2   0.950473 0.228369 0.728259 -0.243976
O43   O     O_3   0.938547 0.119647 0.656524 -0.438680
H25   H     H_    0.984714 0.114404 0.680361 0.400115
S10   S     S_3+6 0.107930 0.784975 0.696180 0.115544
O44   O     O_2   0.050792 0.777441 0.626424 -0.272778
O45   O     O_2   0.100584 0.741218 0.776365 -0.232039
O46   O     O_3   0.107019 0.856849 0.736977 -0.434634
H26   H     H_    0.064278 0.860915 0.767288 0.415836
S11   S     S_3+6 0.096655 0.216241 0.294171 0.116141
O47   O     O_2   0.087826 0.262488 0.216753 -0.194420
O48   O     O_2   0.093480 0.153399 0.252324 -0.169060
O49   O     O_3   0.033932 0.222927 0.366690 -0.504129
H27   H     H_    0.040416 0.189022 0.412067 0.389614
S12   S     S_3+6 0.872293 0.756970 0.748312 0.105574
O50   O     O_2   0.944171 0.770440 0.739741 -0.200326
O51   O     O_2   0.845511 0.796139 0.824323 -0.175556
O52   O     O_3   0.863423 0.683534 0.779174 -0.554215
H28   H     H_    0.895986 0.677038 0.832060 0.408655
S13   S     S_3+6 0.363006 0.732773 0.251235 0.132688
O53   O     O_2   0.372099 0.798830 0.228053 -0.268355
O54   O     O_2   0.428684 0.701615 0.252338 -0.134789
O55   O     O_3   0.313988 0.702291 0.165493 -0.439509
H29   H     H_    0.339509 0.705167 0.107912 0.413571
S14   S     S_3+6 0.548606 0.316694 0.447217 0.121037
O56   O     O_2   0.520875 0.311912 0.347852 -0.173014
O57   O     O_2   0.512090 0.272901 0.507278 -0.301973
O58   O     O_3   0.535673 0.387291 0.488595 -0.400815
H30   H     H_    0.555665 0.387089 0.553341 0.371199
S15   S     S_3+6 0.581601 0.703945 0.323303 0.133413
O59   O     O_2   0.567754 0.744269 0.239391 -0.181243
O60   O     O_2   0.575689 0.638376 0.293668 -0.132648
O61   O     O_3   0.524799 0.717492 0.403343 -0.544556
H31   H     H_    0.536817 0.690156 0.456755 0.363727
S16   S     S_3+6 0.402248 0.280037 0.719966 0.104141
O62   O     O_2   0.468335 0.300142 0.688062 -0.215175
O63   O     O_2   0.382376 0.320163 0.799384 -0.166985
O64   O     O_3   0.409020 0.208818 0.762443 -0.559386
H32   H     H_    0.447682 0.209846 0.807279 0.406730
N5    N     N_2   0.886880 0.464963 0.742076 -0.274646
H33   H     H_    0.864674 0.427222 0.769947 0.256777
C101  C     C_3   0.842902 0.506768 0.691015 -0.479862
H34   H     H_    0.791493 0.500608 0.711455 0.251322
H35   H     H_    0.841339 0.496617 0.614895 0.196689
H36   H     H_    0.857402 0.554967 0.703100 0.269418
N6    N     N_2   0.117567 0.487410 0.254589 -0.304221
H37   H     H_    0.110612 0.444668 0.281268 0.251084
C102  C     C_3   0.180384 0.486796 0.211110 -0.560126
H38   H     H_    0.177943 0.458105 0.146718 0.243776
H39   H     H_    0.218274 0.467061 0.260855 0.273616
H40   H     H_    0.196144 0.533491 0.196224 0.325358
N7    N     N_2   0.109306 0.541671 0.751855 -0.285846
H41   H     H_    0.125338 0.584838 0.769573 0.262541
C103  C     C_3   0.155476 0.500089 0.711144 -0.435187
H42   H     H_    0.206645 0.511502 0.734118 0.287708
H43   H     H_    0.154874 0.505033 0.633996 0.199814
H44   H     H_    0.144414 0.452210 0.730321 0.233062
N8    N     N_2   0.884882 0.521934 0.231778 -0.302217
H45   H     H_    0.861582 0.551765 0.185298 0.270946
C104  C     C_3   0.839915 0.483851 0.280480 -0.481555
H46   H     H_    0.790190 0.488634 0.246814 0.287050
H47   H     H_    0.837339 0.499819 0.353814 0.193212
H48   H     H_    0.854644 0.435325 0.280542 0.275316
N9    N     N_2   0.383212 0.975925 0.745775 -0.279100
H49   H     H_    0.356847 0.945911 0.784912 0.298975
C105  C     C_3   0.340977 0.016750 0.690372 -0.532667
H50   H     H_    0.289446 0.013604 0.711629 0.267039
H51   H     H_    0.339323 0.002652 0.615665 0.196964
H52   H     H_    0.357042 0.064642 0.696621 0.274821
N10   N     N_2   0.615253 0.972626 0.251558 -0.289998
H53   H     H_    0.638136 0.939574 0.213100 0.244535
C106  C     C_3   0.660968 0.010498 0.306435 -0.506225
H54   H     H_    0.711716 0.003914 0.282905 0.253203
H55   H     H_    0.662350 0.996139 0.381046 0.208493
H56   H     H_    0.648163 0.059310 0.301759 0.266402
N11   N     N_2   0.614827 0.030142 0.763409 -0.278866
H57   H     H_    0.609935 0.074184 0.739314 0.266584
C107  C     C_3   0.655398 0.990240 0.710408 -0.426881
H58   H     H_    0.707643 0.996913 0.731758 0.313160
H59   H     H_    0.651949 0.001465 0.635067 0.169857
H60   H     H_    0.641307 0.942021 0.720460 0.242891
N12   N     N_2   0.382776 0.022784 0.238839 -0.277968
H61   H     H_    0.385825 0.067487 0.259959 0.272352
C108  C     C_3   0.342322 0.983467 0.294354 -0.464282
H62   H     H_    0.290131 0.987530 0.270433 0.279681
H63   H     H_    0.343637 0.998209 0.368663 0.175953
H64   H     H_    0.357318 0.935151 0.289637 0.266831
S17   S     S_3+6 0.198012 0.525990 0.935958 0.058241
O65   O     O_2   0.205168 0.464733 0.890676 -0.273806
O66   O     O_2   0.221667 0.575941 0.873567 -0.276192
O67   O     O_3   0.246811 0.525969 0.034380 -0.499744
H65   H     H_    0.291837 0.518851 0.012769 0.424331
S18   S     S_3+6 0.847109 0.397349 0.077279 0.091925
O68   O     O_2   0.884997 0.364508 0.154930 -0.270526
O69   O     O_2   0.779876 0.413736 0.108469 -0.232536
O70   O     O_3   0.838569 0.350758 0.983687 -0.495476
H66   H     H_    0.813016 0.315528 0.005921 0.413650
S19   S     S_3+6 0.802513 0.506191 0.915699 0.058829
O71   O     O_2   0.765005 0.457929 0.860971 -0.270977
O72   O     O_2   0.765923 0.520018 0.002819 -0.224149
O73   O     O_3   0.806390 0.571243 0.854119 -0.555987
H67   H     H_    0.759934 0.583392 0.841278 0.403333
S20   S     S_3+6 0.129208 0.623132 0.100636 0.098290
O74   O     O_2   0.199043 0.637428 0.077998 -0.156878
O75   O     O_2   0.084638 0.669135 0.052336 -0.224556
O76   O     O_3   0.120871 0.628635 0.217448 -0.561739
H68   H     H_    0.140714 0.668454 0.235279 0.395305
S21   S     S_3+6 0.691213 0.961237 0.937036 0.110009
O77   O     O_2   0.675981 0.908201 0.873169 -0.285817
O78   O     O_2   0.739309 0.004010 0.894393 -0.155489
O79   O     O_3   0.725915 0.933892 0.037957 -0.512096
H69   H     H_    0.767200 0.914111 0.019511 0.420412
S22   S     S_3+6 0.309962 0.948797 0.068012 0.107019
O80   O     O_2   0.327596 0.898999 0.136431 -0.266462
O81   O     O_2   0.258953 0.990165 0.106768 -0.208436
O82   O     O_3   0.277744 0.916208 0.969499 -0.435066
H70   H     H_    0.236006 0.897380 0.988303 0.427449
S23   S     S_3+6 0.316925 0.061841 0.912786 0.082892
O83   O     O_2   0.258793 0.028251 0.869529 -0.227178
O84   O     O_2   0.295209 0.093933 0.999472 -0.207315
O85   O     O_3   0.343217 0.115182 0.839108 -0.542953
H71   H     H_    0.303423 0.139196 0.820860 0.404759
S24   S     S_3+6 0.670331 0.078038 0.091538 0.083702
O86   O     O_2   0.733107 0.052691 0.135071 -0.236177
O87   O     O_2   0.686870 0.114306 0.006024 -0.211501
O88   O     O_3   0.634205 0.124960 0.167137 -0.568188
H72   H     H_    0.668539 0.155230 0.185675 0.396271

loop_
_geom_bond_atom_site_label_1
_geom_bond_atom_site_label_2
_geom_bond_distance
_ccdc_geom_bond_type
C68   S12   1.785328 S    
C101  H34   1.104852 S    
C14   C22   1.390083 A    
S16   O64   1.679309 S    
C98   S22   1.771711 S    
C74   N2    1.381147 A    
C101  H36   1.109383 S    
S7    O36   1.502703 D    
C57   C69   1.408651 A    
O73   H67   0.990578 S    
S20   O74   1.501872 D    
C38   C62   1.412635 A    
O6    Zn1   2.023614 S    
C42   C50   1.422935 A    
N12   C108  1.449003 S    
S18   O68   1.503215 D    
S24   O88   1.681496 S    
O67   H65   0.990505 S    
C63   S7    1.785112 S    
O52   H28   0.990630 S    
N9    H49   1.027792 S    
S3    O24   1.502702 D    
C8    C21   1.435459 S    
C21   C29   1.392260 A    
S5    O30   1.502912 D    
C9    C49   1.385844 A    
S9    O42   1.503213 D    
C97   C100  1.395934 A    
S11   O47   1.502803 D    
N12   H61   1.027263 S    
S1    O19   1.681892 S    
C37   C45   1.413059 A    
S14   O56   1.502791 D    
S12   O50   1.500356 D    
O10   C6    1.293639 A    
C60   C72   1.413712 A    
C102  H38   1.111246 S    
C78   C88   1.428042 A    
N6    H37   1.023901 S    
O11   Zn3   2.002921 S    
C84   C90   1.398935 A    
O2    Zn2   2.025318 S    
O25   H19   0.990589 S    
C13   C53   1.394722 A    
C43   C51   1.417766 A    
S17   O66   1.502282 D    
Zn4   N4    2.032340 S    
C16   C24   1.387744 A    
C17   C25   1.393217 A    
C73   N5    1.427385 S    
C19   C27   1.389731 A    
S2    O20   1.500824 D    
C105  H52   1.102898 S    
C20   C28   1.385858 A    
S20   O76   1.682451 S    
C64   C68   1.402053 A    
O19   H17   0.990331 S    
C107  H59   1.099172 S    
S4    O27   1.502257 D    
S11   O49   1.681117 S    
C10   H2    1.080223 S    
O9    C5    1.300927 A    
C77   N9    1.428853 S    
C78   N10   1.430172 S    
C13   H5    1.083174 S    
S19   O72   1.504182 D    
C96   S20   1.777735 S    
C87   C91   1.409186 A    
C58   S2    1.790637 S    
C51   C68   1.410218 A    
C31   H15   1.078387 S    
C104  H47   1.104261 S    
S10   O44   1.503515 D    
C10   C18   1.383587 A    
O7    Zn2   2.001545 S    
S16   O63   1.502222 D    
C53   C70   1.408014 A    
C102  H40   1.096835 S    
C106  H54   1.107722 S    
C46   C54   1.421023 A    
C29   C37   1.394201 A    
O43   H25   0.990513 S    
O13   C7    1.301562 A    
C104  H46   1.104444 S    
O14   C8    1.292020 A    
O37   H23   0.990339 S    
C82   C94   1.399735 A    
C32   C40   1.387453 A    
C39   C47   1.415620 A    
C33   C41   1.414090 A    
C35   C43   1.416703 A    
C36   C44   1.413400 A    
C15   C23   1.388500 A    
N7    H41   1.029491 S    
C59   C71   1.408673 A    
C100  S24   1.773024 S    
C24   C32   1.385818 A    
O16   Zn3   2.001549 S    
S24   O87   1.503920 D    
C25   C33   1.393026 A    
C77   N3    1.388593 A    
O70   H66   0.990541 S    
S6    O33   1.503095 D    
S13   O54   1.499746 D    
S12   O52   1.682021 S    
S21   O77   1.500766 D    
C57   S1    1.785491 S    
S8    O40   1.681317 S    
O8    C3    1.294588 A    
C71   S15   1.783176 S    
C79   N11   1.417499 S    
C73   C83   1.440696 A    
C80   N4    1.390422 A    
C83   C95   1.435033 A    
N5    H33   1.030469 S    
C5    C24   1.436825 S    
N7    C103  1.448437 S    
C85   C91   1.408056 A    
C6    C23   1.437204 S    
C86   C92   1.408236 A    
C103  H42   1.105057 S    
O58   H30   0.990595 S    
N8    C104  1.437917 S    
C108  H63   1.105045 S    
C22   C30   1.390416 A    
O15   C8    1.300514 A    
N6    C102  1.442750 S    
O16   C7    1.292396 A    
C79   N3    1.387953 A    
C103  H44   1.110901 S    
C47   C55   1.423637 A    
C52   C67   1.416765 A    
C89   C90   1.438024 A    
C43   C48   1.388949 A    
S24   O86   1.501045 D    
C65   S9    1.790241 S    
C12   H4    1.080065 S    
Zn2   N2    2.032340 S    
C106  H56   1.104011 S    
C101  H35   1.104959 S    
C94   C95   1.399578 A    
C48   C56   1.416101 A    
O1    C1    1.301112 A    
C36   C60   1.415408 A    
S13   O53   1.499847 D    
C75   N1    1.386202 A    
C104  H48   1.106556 S    
S20   O75   1.503058 D    
C88   C100  1.406346 A    
C4    C17   1.429612 S    
S18   O69   1.499007 D    
S23   O85   1.673975 S    
C18   C26   1.392908 A    
C56   C71   1.412716 A    
S15   O61   1.683248 S    
O55   H29   0.990564 S    
C50   C65   1.419805 A    
C61   C65   1.407577 A    
C63   C67   1.407076 A    
S18   O70   1.682197 S    
N8    H45   1.031173 S    
S5    O29   1.501013 D    
C73   N1    1.387471 A    
N10   H53   1.031943 S    
C12   C52   1.393039 A    
S9    O41   1.502602 D    
C58   C70   1.416870 A    
O12   Zn4   2.002921 S    
C95   S19   1.776006 S    
C27   C35   1.392958 A    
O31   H21   0.990456 S    
C39   C63   1.413481 A    
S1    O18   1.502669 D    
S22   O80   1.496795 D    
S14   O57   1.502827 D    
O2    C2    1.295647 A    
S21   O79   1.682781 S    
O34   H22   0.990483 S    
C74   C84   1.441523 A    
C70   S14   1.791037 S    
S3    O23   1.502634 D    
O13   Zn4   2.023617 S    
O14   Zn3   2.023614 S    
O49   H27   0.990196 S    
S17   O65   1.500990 D    
O8    Zn1   2.001549 S    
C10   C50   1.391620 A    
S2    O21   1.503352 D    
C105  H51   1.106311 S    
S7    O37   1.682125 S    
C27   H11   1.076491 S    
C84   C96   1.400663 A    
O88   H72   0.990578 S    
C30   C38   1.384471 A    
O3    Zn1   2.002921 S    
S22   O82   1.680854 S    
S12   O51   1.502560 D    
O64   H32   0.990608 S    
C29   H13   1.077360 S    
C34   C42   1.422250 A    
C85   C97   1.427016 A    
C62   C66   1.398309 A    
C1    C20   1.439714 S    
C33   C57   1.412169 A    
C2    C19   1.431860 S    
S11   O48   1.502703 D    
C99   S23   1.775905 S    
C3    C18   1.442115 S    
C76   N2    1.372807 A    
S2    O22   1.674615 S    
C35   C59   1.417368 A    
O28   H20   0.990491 S    
C26   C34   1.403460 A    
C16   H8    1.081433 S    
C97   S21   1.767973 S    
C25   H9    1.082118 S    
C14   C54   1.396947 A    
O4    C1    1.292791 A    
C66   S10   1.783396 S    
N9    C105  1.450190 S    
S10   O45   1.503439 D    
C91   C92   1.438517 A    
S5    O31   1.679773 S    
O9    Zn3   2.025319 S    
C67   S11   1.790401 S    
C62   S6    1.777889 S    
S9    O43   1.681633 S    
O10   Zn4   2.025318 S    
O79   H69   0.990564 S    
C61   S5    1.783156 S    
C81   C89   1.419744 A    
O4    Zn2   2.002921 S    
O5    C3    1.300545 A    
O40   H24   0.990556 S    
O6    C4    1.298177 A    
C13   C21   1.384872 A    
C14   H6    1.079002 S    
S10   O46   1.681479 S    
S19   O71   1.502387 D    
C102  H39   1.111102 S    
C80   N12   1.424964 S    
O22   H18   0.990785 S    
C9    H1    1.081243 S    
C23   C31   1.387052 A    
O15   Zn4   2.001545 S    
C11   H3    1.082317 S    
C75   N7    1.419306 S    
C72   S16   1.794955 S    
O46   H26   0.990594 S    
N10   C106  1.449106 S    
C98   C99   1.399610 A    
O5    Zn2   2.023617 S    
C40   C48   1.414994 A    
O7    C4    1.290823 A    
S17   O67   1.680499 S    
C9    C17   1.381590 A    
C30   H14   1.077726 S    
C64   S8    1.781681 S    
C78   N4    1.377526 A    
C34   C58   1.431745 A    
C69   S13   1.788709 S    
S7    O35   1.502526 D    
C75   C81   1.446498 A    
O82   H70   0.990479 S    
S23   O83   1.501269 D    
C107  H60   1.107039 S    
C26   H10   1.072374 S    
C15   C55   1.396972 A    
C7    C22   1.439501 S    
C54   C69   1.418022 A    
S4    O26   1.503348 D    
N11   H57   1.028976 S    
C74   N6    1.433006 S    
S19   O73   1.678555 S    
C28   H12   1.069712 S    
C45   C53   1.412076 A    
O3    C2    1.294557 A    
S3    O25   1.681550 S    
C16   C56   1.393571 A    
C41   C46   1.390791 A    
C38   C46   1.414276 A    
S15   O59   1.502861 D    
C93   C96   1.408625 A    
C108  H62   1.103458 S    
C44   C52   1.421954 A    
C80   C86   1.434592 A    
C83   C89   1.419430 A    
O1    Zn1   2.025319 S    
C103  H43   1.102598 S    
C87   C99   1.419684 A    
C15   H7    1.077818 S    
C88   C92   1.407730 A    
C60   S4    1.789506 S    
C44   C47   1.390261 A    
S16   O62   1.502251 D    
C106  H55   1.106520 S    
O61   H31   0.990467 S    
O12   C5    1.291706 A    
N11   C107  1.439190 S    
C76   C82   1.430060 A    
C93   S17   1.778512 S    
C76   N8    1.419146 S    
S23   O84   1.503588 D    
C55   C72   1.422140 A    
S8    O38   1.503324 D    
S15   O60   1.503006 D    
O76   H68   0.990689 S    
S6    O32   1.501597 D    
C94   S18   1.770112 S    
S13   O55   1.679944 S    
C37   C61   1.410725 A    
C31   C39   1.388025 A    
C107  H58   1.101315 S    
C59   S3    1.784897 S    
C41   C49   1.418569 A    
C28   C36   1.392017 A    
O85   H71   0.990776 S    
C86   C98   1.422774 A    
C42   C45   1.391453 A    
S4    O28   1.681535 S    
Zn1   N1    2.032339 S    
C105  H50   1.104748 S    
C77   C87   1.439609 A    
Zn3   N3    2.032339 S    
O11   C6    1.299008 A    
C79   C85   1.432290 A    
N5    C101  1.453615 S    
S1    O17   1.498952 D    
S22   O81   1.501591 D    
C40   C64   1.414898 A    
S14   O58   1.682651 S    
S8    O39   1.500379 D    
S21   O78   1.501588 D    
C11   C19   1.386133 A    
C12   C20   1.387644 A    
C108  H64   1.106461 S    
C32   H16   1.064924 S    
S6    O34   1.681856 S    
C81   C93   1.446098 A    
C82   C90   1.399269 A    
C49   C66   1.409070 A    
C11   C51   1.385882 A    
