data_mof_unit_60557.cif
_audit_creation_date              2012-12-10T19:39:08-0500
_audit_creation_method            fapswitch 2.2
_symmetry_space_group_name_H-M    P1
_symmetry_Int_Tables_number       1
_space_group_crystal_system       triclinic
_cell_length_a                    15.914989
_cell_length_b                    15.874183
_cell_length_c                    17.189479
_cell_angle_alpha                 92.905338
_cell_angle_beta                  95.466873
_cell_angle_gamma                 91.700775
_cell_volume                      4314.79483584

loop_
_atom_site_label
_atom_site_type_symbol
_atom_type_description
_atom_site_fract_x
_atom_site_fract_y
_atom_site_fract_z
_atom_type_partial_charge
C1    C     C_R   0.509799 0.498051 0.651678 0.822083
C2    C     C_R   0.490198 0.501948 0.348321 0.822086
C3    C     C_R   0.437126 0.493300 0.776327 -0.129095
C4    C     C_R   0.562825 0.506596 0.223633 -0.129169
C5    C     C_R   0.438242 0.510571 0.857055 0.225985
C6    C     C_R   0.561641 0.489349 0.142894 0.225948
C7    C     C_R   0.515423 0.523642 0.903651 0.279409
C8    C     C_R   0.484424 0.476401 0.096333 0.279419
C9    C     C_R   0.591197 0.527538 0.868239 -0.138144
C10   C     C_R   0.408669 0.472616 0.131781 -0.138208
C11   C     C_R   0.590912 0.511887 0.786891 -0.109695
C12   C     C_R   0.409019 0.488244 0.213138 -0.109660
C13   C     C_R   0.247493 0.542504 0.540137 0.380940
C14   C     C_R   0.752506 0.457477 0.459877 0.380953
C15   C     C_R   0.159346 0.534568 0.544411 -0.242964
C16   C     C_R   0.840651 0.465410 0.455595 -0.242968
C17   C     C_R   0.109635 0.476764 0.492778 0.246076
C18   C     C_R   0.890366 0.523231 0.507208 0.246051
C19   C     C_R   0.152491 0.422088 0.444116 0.137949
C20   C     C_R   0.847512 0.577925 0.555856 0.137952
C21   C     C_R   0.241357 0.429544 0.443675 0.006125
C22   C     C_R   0.758645 0.570473 0.556302 0.006086
C23   C     C_R   0.499449 0.660037 0.500121 0.837079
C24   C     C_R   0.500550 0.339963 0.499878 0.837087
C25   C     C_3   0.520784 0.032415 0.573214 0.233081
C26   C     C_3   0.479216 0.967585 0.426783 0.233081
C27   C     C_3   0.443297 0.973690 0.546526 -0.206476
C28   C     C_3   0.556702 0.026310 0.453471 -0.206477
C29   C     C_1   0.498359 0.749492 0.500000 -0.084944
C30   C     C_1   0.501641 0.250507 0.499999 -0.084926
C31   C     C_3   0.576831 0.974741 0.526255 0.236114
C32   C     C_3   0.423169 0.025259 0.473742 0.236117
C33   C     C_3   0.498996 0.916490 0.499846 -0.092870
C34   C     C_3   0.501004 0.083510 0.500151 -0.092871
C35   C     C_1   0.498260 0.824901 0.499899 0.107764
C36   C     C_1   0.501739 0.175099 0.500099 0.107770
C37   C     C_R   0.513089 0.499158 0.739077 -0.170317
C38   C     C_R   0.486878 0.500845 0.260920 -0.170325
Cu1   Cu    Cu3+1 0.584780 0.504040 0.503820 1.025286
Cu2   Cu    Cu3+1 0.415220 0.495960 0.496180 1.025298
N1    N     N_2   0.518116 0.530616 0.986426 -0.173401
N2    N     N_2   0.481693 0.469435 0.013556 -0.173307
N3    N     N_R   0.287870 0.489880 0.490440 -0.235954
N4    N     N_R   0.712130 0.510120 0.509560 -0.235964
N5    N     N_2   0.018992 0.467044 0.491930 -0.172279
N6    N     N_2   0.981008 0.532948 0.508052 -0.172266
O1    O     O_R   0.579470 0.503780 0.617500 -0.588334
O2    O     O_R   0.420530 0.496220 0.382500 -0.588352
O3    O     O_R   0.436280 0.496950 0.611050 -0.557620
O4    O     O_R   0.563720 0.503050 0.388950 -0.557629
O5    O     O_R   0.571580 0.624340 0.503230 -0.590447
O6    O     O_R   0.428420 0.375660 0.496770 -0.590434
O7    O     O_R   0.428390 0.617510 0.496780 -0.534536
O8    O     O_R   0.571610 0.382490 0.503220 -0.534532
C39   C     C_1   0.381061 0.943826 0.597514 0.427818
N7    N     N_1   0.332009 0.920215 0.637697 -0.168402
C40   C     C_1   0.618939 0.056174 0.402483 0.427826
N8    N     N_1   0.667990 0.079784 0.362300 -0.168394
Br1   Br    Br    0.090313 0.333220 0.381006 -0.354065
Br2   Br    Br    0.909696 0.666813 0.618935 -0.354037
C41   C     C_1   0.283020 0.371441 0.394188 0.448266
N9    N     N_1   0.315885 0.324470 0.354246 -0.228537
C42   C     C_1   0.716987 0.628604 0.605765 0.448312
N10   N     N_1   0.684125 0.675599 0.645689 -0.228522
Br3   Br    Br    0.550289 0.080364 0.678591 -0.356197
Br4   Br    Br    0.449710 0.919636 0.321406 -0.356216
Br5   Br    Br    0.312575 0.063207 0.436404 -0.331090
Br6   Br    Br    0.687425 0.936792 0.563593 -0.331094
C43   C     C_1   0.642525 0.535928 0.265468 0.437194
N11   N     N_1   0.706288 0.560005 0.298294 -0.226985
C44   C     C_1   0.357481 0.463845 0.734460 0.437097
N12   N     N_1   0.293764 0.439675 0.701606 -0.226971
Br7   Br    Br    0.666903 0.473757 0.097790 -0.388082
Br8   Br    Br    0.332921 0.526053 0.902081 -0.388067
C45   C     C_1   0.669890 0.549872 0.915337 0.383597
N13   N     N_1   0.733178 0.568407 0.951916 -0.155289
C46   C     C_1   0.329920 0.450430 0.084717 0.383597
N14   N     N_1   0.266582 0.432015 0.048173 -0.155198
C47   C     C_1   0.671679 0.502869 0.755224 0.339921
N15   N     N_1   0.736556 0.494778 0.731043 -0.231965
C48   C     C_1   0.328287 0.497372 0.244848 0.339884
N16   N     N_1   0.263440 0.505548 0.269068 -0.231981
Br9   Br    Br    0.691309 0.371641 0.391105 -0.423603
Br10  Br    Br    0.308691 0.628317 0.608932 -0.423578
C49   C     C_1   0.876273 0.421342 0.391475 0.448065
N17   N     N_1   0.903001 0.386371 0.339040 -0.131455
C50   C     C_1   0.123717 0.578616 0.608538 0.448042
N18   N     N_1   0.096981 0.613571 0.660977 -0.131464

loop_
_geom_bond_atom_site_label_1
_geom_bond_atom_site_label_2
_ccdc_geom_bond_type
C24   O6    A    
Cu1   O5    S    
C50   N18   T    
C25   C31   S    
N1    N2    D    
C39   N7    T    
C48   N16   T    
C46   N14   T    
C27   C33   S    
C26   C32   S    
C13   Br10  S    
C23   C29   S    
C15   C50   S    
C19   C21   A    
C8    N2    S    
C49   N17   T    
C27   C39   S    
Cu1   O8    S    
C24   O8    A    
Cu2   O3    S    
C18   N6    S    
Cu2   O2    S    
C5    Br8   S    
C11   C37   A    
C2    O4    A    
C17   C19   A    
C22   C42   S    
C21   N3    A    
Cu2   N3    S    
C22   N4    A    
C31   C33   S    
C20   Br2   S    
C21   C41   S    
C1    C37   S    
C25   C34   S    
C28   C34   S    
C28   C40   S    
C43   N11   T    
C14   Br9   S    
C10   C12   A    
C4    C43   S    
C10   C46   S    
C23   O7    A    
C7    C9    A    
C31   Br6   S    
C26   Br4   S    
C25   Br3   S    
C4    C6    A    
Cu1   Cu2   S    
C5    C7    A    
C1    O1    A    
C6    C8    A    
C19   Br1   S    
Cu2   O6    S    
Cu1   O1    S    
C47   N15   T    
C32   C34   S    
C3    C44   S    
C45   N13   T    
C2    C38   S    
C26   C33   S    
C23   O5    A    
C9    C11   A    
C11   C47   S    
C32   Br5   S    
C16   C18   A    
C4    C38   A    
C13   C15   A    
C16   C49   S    
C14   C16   A    
C20   C22   A    
C13   N3    A    
C6    Br7   S    
C14   N4    A    
C15   C17   A    
C27   C32   S    
C28   C31   S    
C17   N5    S    
C3    C5    A    
Cu1   N4    S    
C25   C27   S    
C29   C35   T    
C26   C28   S    
C30   C36   T    
C2    O2    A    
C44   N12   T    
C40   N8    T    
C33   C35   S    
C34   C36   S    
C12   C48   S    
C18   C20   A    
C7    N1    S    
C12   C38   A    
C41   N9    T    
C24   C30   S    
C42   N10   T    
N5    N6    D    
Cu1   O4    S    
C3    C37   A    
C8    C10   A    
Cu2   O7    S    
C9    C45   S    
C1    O3    A    
