data_mof_unit_61890.cif
_audit_creation_date              2012-12-10T19:44:03-0500
_audit_creation_method            fapswitch 2.2
_symmetry_space_group_name_H-M    P1
_symmetry_Int_Tables_number       1
_space_group_crystal_system       triclinic
_cell_length_a                    30.608617
_cell_length_b                    30.699357
_cell_length_c                    23.526399
_cell_angle_alpha                 90.518386
_cell_angle_beta                  130.859291
_cell_angle_gamma                 89.882396
_cell_volume                      16718.9771311

loop_
_atom_site_label
_atom_site_type_symbol
_atom_type_description
_atom_site_fract_x
_atom_site_fract_y
_atom_site_fract_z
_atom_type_partial_charge
C1    C     C_R   0.809813 0.809890 0.500178 0.928103
C2    C     C_1   0.511384 0.757145 0.032365 0.137329
C3    C     C_R   0.908833 0.093648 0.500433 -0.016875
C4    C     C_R   0.649557 0.590765 0.542255 0.011697
C5    C     C_R   0.352119 0.587305 0.467435 -0.008061
C6    C     C_R   0.150566 0.093259 0.548481 -0.002106
C7    C     C_R   0.852611 0.086567 0.469944 -0.010452
C8    C     C_3   0.699792 0.560406 0.592700 -0.240835
C9    C     C_3   0.304691 0.553690 0.428559 -0.281092
C10   C     C_3   0.202813 0.068682 0.612833 -0.277946
C11   C     C_3   0.805599 0.052701 0.433187 -0.282426
C12   C     C_3   0.735032 0.594329 0.586538 -0.261994
C13   C     C_1   0.982089 0.257453 0.965680 0.123808
C14   C     C_3   0.270415 0.588385 0.435592 -0.244542
C15   C     C_3   0.238987 0.103026 0.608741 -0.278388
C16   C     C_3   0.771720 0.087651 0.440509 -0.243945
C17   C     C_R   0.440093 0.559999 0.500048 0.936842
C18   C     C_R   0.559501 0.560673 0.500441 0.917749
C19   C     C_R   0.939860 0.059760 0.499993 0.944700
C20   C     C_R   0.059573 0.060682 0.500356 0.907745
C21   C     C_R   0.939357 0.939583 0.499080 0.915601
C22   C     C_R   0.061107 0.941092 0.499816 0.956452
C23   C     C_R   0.439291 0.439637 0.499092 0.910527
C24   C     C_1   0.016646 0.258006 0.032649 0.136347
C25   C     C_R   0.560751 0.440747 0.499278 0.948249
C26   C     C_R   0.823229 0.749963 0.646872 0.914997
C27   C     C_R   0.177306 0.749179 0.353609 0.905364
C28   C     C_R   0.323606 0.250319 0.646968 0.919716
C29   C     C_R   0.677357 0.249151 0.353664 0.873054
C30   C     C_R   0.408720 0.793906 0.843912 -0.083685
C31   C     C_R   0.610824 0.745577 0.149012 -0.077642
C32   C     C_R   0.922188 0.294990 0.844986 -0.087292
C33   C     C_R   0.114372 0.244103 0.150500 -0.079606
C34   C     C_R   0.371082 0.792375 0.764895 -0.104881
C35   C     C_R   0.889191 0.860114 0.563028 0.068375
C36   C     C_R   0.651000 0.740760 0.227820 -0.113880
C37   C     C_R   0.883731 0.293082 0.766088 -0.111216
C38   C     C_R   0.152995 0.239378 0.229211 -0.110511
C39   C     C_R   0.362860 0.752651 0.728075 -0.157395
C40   C     C_R   0.633454 0.748572 0.269935 -0.180262
C41   C     C_R   0.863905 0.252170 0.728661 -0.161255
C42   C     C_R   0.134732 0.249917 0.269851 -0.185217
C43   C     C_R   0.391724 0.714513 0.769447 0.020852
C44   C     C_R   0.574434 0.756928 0.231858 0.034436
C45   C     C_R   0.883264 0.213132 0.770107 0.020568
C46   C     C_R   0.150080 0.844459 0.548364 0.084276
C47   C     C_R   0.076494 0.262412 0.230206 0.027471
C48   C     C_R   0.428378 0.715664 0.848135 -0.004650
C49   C     C_R   0.534187 0.759994 0.153367 0.003969
C50   C     C_R   0.921405 0.214930 0.848847 -0.007379
C51   C     C_R   0.037822 0.265773 0.151813 0.003302
C52   C     C_2   0.420414 0.836250 0.883330 0.972926
C53   C     C_2   0.628654 0.738829 0.103787 0.958581
C54   C     C_2   0.943836 0.337958 0.884834 0.953177
C55   C     C_2   0.132990 0.234266 0.106850 0.952875
C56   C     C_2   0.142650 0.750186 0.113284 0.920295
C57   C     C_R   0.388559 0.360634 0.563011 0.065131
C58   C     C_2   0.870220 0.783555 0.892167 0.891805
C59   C     C_2   0.644296 0.247520 0.114498 0.918297
C60   C     C_2   0.372392 0.286189 0.892583 0.903037
C61   C     C_2   0.718752 0.556342 0.670362 0.937699
C62   C     C_2   0.279782 0.543924 0.348868 0.963047
C63   C     C_2   0.212021 0.071470 0.684655 0.993298
C64   C     C_2   0.779413 0.042026 0.353230 0.962968
C65   C     C_2   0.690256 0.516074 0.557151 0.905094
C66   C     C_2   0.322178 0.512698 0.474712 0.903667
C67   C     C_2   0.202474 0.021884 0.590458 0.953034
C68   C     C_R   0.662002 0.350629 0.558545 0.097815
C69   C     C_2   0.824230 0.012193 0.480710 0.902934
C70   C     C_2   0.782990 0.618312 0.658860 0.940561
C71   C     C_2   0.216631 0.606625 0.362101 0.942029
C72   C     C_2   0.275865 0.134191 0.675447 0.899444
C73   C     C_2   0.717126 0.105250 0.367075 0.944395
C74   C     C_2   0.337115 0.831601 0.720958 0.957979
C75   C     C_2   0.711178 0.728086 0.265157 0.997565
C76   C     C_2   0.861950 0.334133 0.722888 0.991406
C77   C     C_2   0.212592 0.224328 0.268010 1.004569
C78   C     C_2   0.753601 0.578292 0.543837 0.955410
C79   C     C_R   0.839423 0.843367 0.496233 -0.171494
C80   C     C_2   0.259798 0.575922 0.488135 0.951750
C81   C     C_2   0.271292 0.085076 0.585028 0.992273
C82   C     C_2   0.762673 0.076015 0.494905 0.952948
C83   C     C_2   0.458323 0.675164 0.891752 0.946222
C84   C     C_2   0.472102 0.767331 0.114193 0.951190
C85   C     C_2   0.941331 0.173751 0.892557 0.941361
C86   C     C_2   0.976518 0.277939 0.110806 0.954558
C87   C     C_2   0.756234 0.850586 0.357060 0.941273
C88   C     C_2   0.145816 0.881668 0.391492 1.018242
C89   C     C_2   0.257153 0.349405 0.356721 0.942953
C90   C     C_R   0.154368 0.843610 0.493203 -0.205334
C91   C     C_2   0.618012 0.365098 0.366727 0.864106
C92   C     C_2   0.824447 0.912501 0.353016 1.021533
C93   C     C_2   0.078780 0.949431 0.391043 1.020578
C94   C     C_2   0.324778 0.411952 0.352827 1.017514
C95   C     C_2   0.557329 0.435096 0.368290 1.091048
C96   C     C_R   0.339433 0.343317 0.496235 -0.169335
C97   C     C_R   0.188598 0.809974 0.497067 0.935858
C98   C     C_R   0.655995 0.343284 0.495494 -0.172008
C99   C     C_R   0.814811 0.863469 0.427586 -0.107543
C100  C     C_R   0.135410 0.879784 0.444973 -0.133426
C101  C     C_R   0.315201 0.362936 0.427413 -0.105912
C102  C     C_R   0.623768 0.372135 0.434162 -0.140086
C103  C     C_R   0.847690 0.895091 0.426689 -0.096911
C104  C     C_R   0.105030 0.913638 0.447015 -0.140060
C105  C     C_R   0.347903 0.394751 0.426561 -0.095564
C106  C     C_R   0.592249 0.405566 0.434272 -0.220076
C107  C     C_R   0.902691 0.908130 0.495949 -0.219571
C108  C     C_R   0.309825 0.309877 0.500206 0.927088
C109  C     C_R   0.096863 0.911076 0.499754 -0.189641
C110  C     C_R   0.402508 0.408278 0.495967 -0.220752
C111  C     C_R   0.594832 0.409745 0.496927 -0.146965
C112  C     C_R   0.919947 0.892612 0.563486 0.090406
C113  C     C_R   0.122477 0.877903 0.552235 0.073462
C114  C     C_R   0.419170 0.393273 0.563481 0.088754
C115  C     C_R   0.631954 0.383406 0.559228 0.065966
C116  C     C_3   0.977049 0.875327 0.632247 -0.191021
C117  C     C_3   0.098944 0.849196 0.578323 -0.218917
C118  C     C_3   0.476169 0.376730 0.633466 -0.189359
C119  C     C_R   0.689600 0.309864 0.498826 0.920570
C120  C     C_3   0.622445 0.358004 0.604721 -0.200625
C121  C     C_3   0.942224 0.838412 0.630518 0.156038
C122  C     C_3   0.129044 0.811240 0.572467 0.166027
C123  C     C_3   0.441542 0.339500 0.631461 0.157319
C124  C     C_3   0.655646 0.320763 0.603233 0.145045
C125  C     C_R   0.676116 0.749412 0.353119 0.867810
C126  C     C_R   0.322883 0.750578 0.646147 0.855823
C127  C     C_R   0.176260 0.249620 0.353077 0.872927
C128  C     C_R   0.823238 0.250332 0.646359 0.858653
C129  C     C_R   0.039899 0.748268 0.151877 -0.106084
C130  C     C_R   0.436505 0.755365 0.884849 -0.083667
C131  C     C_R   0.959703 0.735783 0.848771 -0.177586
C132  C     C_R   0.540652 0.248098 0.151706 -0.104164
C133  C     C_R   0.460253 0.234553 0.848669 -0.171399
C134  C     C_R   0.077437 0.747488 0.229671 0.079183
C135  C     C_R   0.921524 0.735610 0.770535 0.078780
C136  C     C_R   0.577870 0.247460 0.229477 0.052118
C137  C     C_R   0.421797 0.234479 0.770359 0.083761
C138  C     C_R   0.137757 0.747149 0.271362 -0.122218
C139  C     C_R   0.864100 0.750003 0.729944 -0.086882
C140  C     C_R   0.638199 0.246720 0.271552 -0.114110
C141  C     C_R   0.552971 0.755831 0.112717 -0.071454
C142  C     C_R   0.365429 0.251249 0.730184 -0.057106
C143  C     C_R   0.159622 0.746107 0.233343 0.017042
C144  C     C_R   0.845572 0.764064 0.769063 0.007765
C145  C     C_R   0.660460 0.244715 0.234080 0.034178
C146  C     C_R   0.349220 0.268900 0.770131 -0.029146
C147  C     C_R   0.120646 0.748552 0.154078 -0.022336
C148  C     C_R   0.885934 0.765810 0.848671 -0.026390
C149  C     C_R   0.621862 0.246894 0.154815 -0.024816
C150  C     C_R   0.388902 0.268926 0.849541 -0.044461
C151  C     C_R   0.060871 0.749072 0.114351 -0.036502
C152  C     C_R   0.940391 0.255849 0.885586 -0.076945
C153  C     C_R   0.942451 0.750870 0.887250 -0.001735
C154  C     C_R   0.562031 0.248145 0.114645 -0.037137
C155  C     C_R   0.444134 0.251298 0.887665 0.011163
C156  C     C_1   0.019456 0.750567 0.034377 0.079226
C157  C     C_1   0.984411 0.751077 0.967323 0.079628
C158  C     C_1   0.520972 0.249859 0.034700 0.083586
C159  C     C_1   0.486075 0.250771 0.967670 0.083324
C160  C     C_R   0.679703 0.619892 0.537524 0.001962
C161  C     C_R   0.322814 0.617114 0.472725 0.004875
C162  C     C_R   0.181362 0.122312 0.544674 0.029031
C163  C     C_R   0.057339 0.257526 0.112816 -0.067030
C164  C     C_R   0.823581 0.116588 0.475362 0.004273
C165  C     C_R   0.654675 0.657834 0.496632 -0.058919
C166  C     C_R   0.346421 0.657507 0.506199 -0.060254
C167  C     C_R   0.155410 0.157617 0.496941 -0.053179
C168  C     C_R   0.846568 0.157546 0.506194 -0.061979
C169  C     C_R   0.595117 0.664810 0.456527 0.086327
C170  C     C_R   0.404791 0.665941 0.541068 0.040899
C171  C     C_R   0.094754 0.161837 0.448625 0.083683
C172  C     C_R   0.904152 0.166521 0.537916 0.042241
C173  C     C_R   0.689217 0.690071 0.498654 0.936756
C174  C     C_1   0.477054 0.757020 0.965226 0.125023
C175  C     C_R   0.311402 0.690072 0.502703 0.925088
C176  C     C_R   0.189789 0.190080 0.499565 0.940296
C177  C     C_R   0.811497 0.190080 0.502808 0.927007
C178  C     C_R   0.562693 0.632832 0.457526 0.026527
C179  C     C_R   0.436596 0.633480 0.538890 0.016538
C180  C     C_R   0.062049 0.130099 0.449480 0.041331
C181  C     C_R   0.935676 0.133960 0.535390 0.012191
C182  C     C_R   0.590770 0.594961 0.501019 -0.072046
C183  C     C_R   0.409088 0.593888 0.500677 -0.018103
C184  C     C_R   0.090833 0.094862 0.500278 -0.081906
H1    H     H_    0.993699 0.748700 0.120318 0.187412
H2    H     H_    0.627092 0.760892 0.021944 0.361357
H3    H     H_    0.022599 0.820949 0.538670 0.182645
H4    H     H_    0.517368 0.434049 0.688246 0.234755
H5    H     H_    0.538735 0.391560 0.744657 0.190803
H6    H     H_    0.538688 0.340571 0.508483 0.208287
H7    H     H_    0.558100 0.324314 0.591007 0.178299
H8    H     H_    0.994850 0.786376 0.659216 0.176484
H9    H     H_    0.949521 0.797192 0.566940 0.184416
H10   H     H_    0.158627 0.775180 0.664147 0.185099
H11   H     H_    0.202933 0.816373 0.684559 0.221938
H12   H     H_    0.495296 0.287942 0.662215 0.174652
H13   H     H_    0.977419 0.396908 0.894803 0.370473
H14   H     H_    0.450863 0.298292 0.569828 0.187963
H15   H     H_    0.703062 0.296012 0.709044 0.186962
H16   H     H_    0.733474 0.339948 0.705267 0.225584
H17   H     H_    0.134315 0.252970 0.025979 0.362536
H18   H     H_    0.931682 0.867429 0.701061 0.226014
H19   H     H_    0.985147 0.830283 0.742654 0.190038
H20   H     H_    0.062790 0.791217 0.461403 0.190266
H21   H     H_    0.067227 0.763008 0.526627 0.184907
H22   H     H_    0.429165 0.368466 0.700201 0.222979
H23   H     H_    0.483265 0.331797 0.743294 0.190222
H24   H     H_    0.586905 0.287388 0.506421 0.193063
H25   H     H_    0.003721 0.724720 0.880162 0.175927
H26   H     H_    0.608213 0.267300 0.588012 0.183387
H27   H     H_    0.070716 0.773494 0.303510 0.232282
H28   H     H_    0.062449 0.718370 0.292612 0.221506
H29   H     H_    0.943991 0.748373 0.708723 0.206427
H30   H     H_    0.982873 0.708222 0.770273 0.191481
H31   H     H_    0.571711 0.273470 0.303768 0.210753
H32   H     H_    0.561872 0.218594 0.291426 0.225530
H33   H     H_    0.445484 0.244829 0.709363 0.201924
H34   H     H_    0.480922 0.203395 0.769267 0.192720
H35   H     H_    0.224456 0.713504 0.249377 0.210533
H36   H     H_    0.494417 0.248987 0.119814 0.192542
H37   H     H_    0.243656 0.731317 0.328756 0.219101
H38   H     H_    0.775974 0.782104 0.761097 0.218009
H39   H     H_    0.761576 0.745593 0.698683 0.213529
H40   H     H_    0.725011 0.210751 0.251494 0.208680
H41   H     H_    0.744146 0.229831 0.330283 0.217266
H42   H     H_    0.293106 0.318110 0.738986 0.244463
H43   H     H_    0.273047 0.268860 0.748754 0.210395
H44   H     H_    0.133631 0.730633 0.023923 0.350183
H45   H     H_    0.868242 0.774539 0.975288 0.356869
H46   H     H_    0.635302 0.227162 0.025479 0.349808
H47   H     H_    0.503479 0.221767 0.879697 0.173027
H48   H     H_    0.372701 0.277664 0.977814 0.360135
H49   H     H_    0.550149 0.719898 0.433960 0.218774
H50   H     H_    0.533057 0.694296 0.357630 0.216437
H51   H     H_    0.446573 0.721968 0.556461 0.201745
H52   H     H_    0.467043 0.699712 0.636592 0.195147
H53   H     H_    0.043822 0.215087 0.409967 0.222053
H54   H     H_    0.036612 0.185324 0.343250 0.212376
H55   H     H_    0.943632 0.222599 0.547615 0.201716
H56   H     H_    0.967116 0.202116 0.630326 0.197347
H57   H     H_    0.492961 0.635563 0.450436 0.186529
H58   H     H_    0.006304 0.865087 0.621958 0.154383
H59   H     H_    0.478772 0.616824 0.371620 0.234048
H60   H     H_    0.519720 0.645523 0.632222 0.216639
H61   H     H_    0.499305 0.668152 0.552493 0.182377
H62   H     H_    0.987744 0.132866 0.432197 0.192296
H63   H     H_    0.980517 0.110715 0.359690 0.232766
H64   H     H_    0.019371 0.148540 0.624397 0.218901
H65   H     H_    0.994903 0.168381 0.540898 0.185029
H66   H     H_    0.776490 0.531519 0.774503 0.355816
H67   H     H_    0.283751 0.552922 0.267475 0.356122
H68   H     H_    0.263831 0.057526 0.795019 0.356713
H69   H     H_    0.117676 0.857460 0.636567 0.177104
H70   H     H_    0.781843 0.049299 0.270176 0.355698
H71   H     H_    0.724518 0.458207 0.563578 0.346193
H72   H     H_    0.383452 0.480314 0.570221 0.350982
H73   H     H_    0.210411 0.957927 0.614723 0.350161
H74   H     H_    0.887145 0.980317 0.575971 0.351922
H75   H     H_    0.808760 0.671709 0.724294 0.341570
H76   H     H_    0.179284 0.655435 0.287387 0.340535
H77   H     H_    0.282236 0.191403 0.722866 0.348120
H78   H     H_    0.678467 0.153199 0.290593 0.341555
H79   H     H_    0.320879 0.878761 0.650331 0.357013
H80   H     H_    0.506355 0.366726 0.624687 0.156848
H81   H     H_    0.771821 0.681183 0.317714 0.348541
H82   H     H_    0.870568 0.379821 0.669785 0.361592
H83   H     H_    0.269538 0.174901 0.318677 0.349737
H84   H     H_    0.736972 0.574386 0.445553 0.358547
H85   H     H_    0.212850 0.540103 0.503039 0.352944
H86   H     H_    0.274122 0.075523 0.502493 0.358232
H87   H     H_    0.717570 0.040588 0.513258 0.353516
H88   H     H_    0.341104 0.663973 0.699551 0.233783
H89   H     H_    0.393220 0.679373 0.696982 0.198533
H90   H     H_    0.569603 0.736027 0.309414 0.208233
H91   H     H_    0.645135 0.372933 0.661104 0.178561
H92   H     H_    0.567903 0.791560 0.300346 0.229475
H93   H     H_    0.821002 0.167017 0.704044 0.231020
H94   H     H_    0.872340 0.169688 0.695590 0.216259
H95   H     H_    0.066300 0.246389 0.304810 0.214124
H96   H     H_    0.072378 0.301308 0.297318 0.231678
H97   H     H_    0.483742 0.636892 0.977964 0.364644
H98   H     H_    0.398972 0.800281 0.035327 0.365905
H99   H     H_    0.958725 0.141237 0.979511 0.362009
H100  H     H_    0.907847 0.314222 0.030106 0.362000
H101  H     H_    0.671696 0.842808 0.303148 0.347260
H102  H     H_    0.438401 0.900353 0.891465 0.371511
H103  H     H_    0.140591 0.851205 0.310904 0.356090
H104  H     H_    0.172267 0.342107 0.301172 0.346543
H105  H     H_    0.564620 0.355456 0.254527 0.358771
H106  H     H_    0.827811 0.912184 0.270246 0.352461
H107  H     H_    0.032404 0.966608 0.282771 0.358009
H108  H     H_    0.328548 0.411518 0.270420 0.358948
H109  H     H_    0.627704 0.461899 0.391479 0.332337
H110  H     H_    0.020215 0.931925 0.688251 0.234892
H111  H     H_    0.040959 0.889024 0.743609 0.192048
H112  H     H_    0.018182 0.844533 0.470102 0.213866
N1    N     N_3   0.943075 0.837107 0.693583 -0.443566
N2    N     N_3   0.785328 0.774026 0.726994 -0.391751
N3    N     N_3   0.721238 0.238304 0.274465 -0.372439
N4    N     N_3   0.291474 0.284603 0.729581 -0.401059
N5    N     N_3   0.567317 0.703530 0.413313 -0.441365
N6    N     N_3   0.431758 0.706353 0.580384 -0.427243
N7    N     N_3   0.066474 0.197775 0.398018 -0.450928
N8    N     N_3   0.930658 0.207651 0.574238 -0.420704
N9    N     N_3   0.502127 0.639847 0.415165 -0.451989
N10   N     N_3   0.496113 0.640304 0.574809 -0.454357
N11   N     N_3   0.000546 0.135332 0.400623 -0.451494
N12   N     N_3   0.091378 0.777679 0.515003 -0.396093
N13   N     N_3   0.994115 0.141495 0.567143 -0.449972
N14   N     N_3   0.383991 0.674230 0.732071 -0.383737
N15   N     N_3   0.553948 0.761676 0.271773 -0.403337
N16   N     N_3   0.864976 0.171266 0.733150 -0.379771
N17   N     N_3   0.055176 0.271705 0.268206 -0.402239
N18   N     N_3   0.004576 0.904843 0.696729 -0.430874
N19   N     N_3   0.035563 0.847761 0.525721 -0.460109
N20   N     N_3   0.502182 0.406755 0.696980 -0.431606
N21   N     N_3   0.561141 0.349673 0.564404 -0.459614
N22   N     N_3   0.952421 0.795362 0.613729 -0.434391
N23   N     N_3   0.441323 0.338237 0.693621 -0.445126
N24   N     N_3   0.176490 0.791830 0.644930 -0.405503
N25   N     N_3   0.452915 0.296528 0.615947 -0.435433
N26   N     N_3   0.711292 0.310969 0.677103 -0.402355
N27   N     N_3   0.622798 0.280805 0.562384 -0.397017
N28   N     N_3   0.052815 0.747795 0.264663 -0.430662
N29   N     N_3   0.941202 0.721058 0.732339 -0.399699
N30   N     N_3   0.552991 0.248164 0.264132 -0.419293
N31   N     N_3   0.440396 0.218088 0.731758 -0.400446
N32   N     N_3   0.220425 0.740450 0.273151 -0.374604
O1    O     O_R   0.821670 0.769930 0.500010 -0.620266
O2    O     O_R   0.077130 0.954190 0.562600 -0.605999
O3    O     O_R   0.215722 0.546264 0.463313 -0.713972
O4    O     O_2   0.316732 0.065684 0.630667 -0.550518
O5    O     O_R   0.248621 0.089284 0.510952 -0.740617
O6    O     O_2   0.793205 0.092018 0.558153 -0.609662
O7    O     O_R   0.719436 0.046118 0.472467 -0.712957
O8    O     O_2   0.479394 0.650626 0.874168 -0.568711
O9    O     O_R   0.462200 0.665028 0.952761 -0.800725
O10   O     O_2   0.448646 0.746269 0.131685 -0.582091
O11   O     O_R   0.440623 0.798434 0.057693 -0.743343
O12   O     O_2   0.954887 0.142537 0.874391 -0.566367
O13   O     O_R   0.422870 0.454190 0.437400 -0.611711
O14   O     O_R   0.944375 0.170674 0.954349 -0.804136
O15   O     O_2   0.949874 0.260923 0.127028 -0.584794
O16   O     O_R   0.949408 0.308913 0.053857 -0.745776
O17   O     O_2   0.748676 0.841104 0.300600 -0.555415
O18   O     O_R   0.709406 0.850916 0.354639 -0.750608
O19   O     O_2   0.166694 0.914492 0.388311 -0.566839
O20   O     O_R   0.131679 0.845955 0.344896 -0.829009
O21   O     O_2   0.250674 0.338691 0.301436 -0.554887
O22   O     O_R   0.209625 0.350487 0.352818 -0.753266
O23   O     O_2   0.660713 0.365454 0.372543 -0.577487
O24   O     O_R   0.577130 0.454190 0.562600 -0.619850
O25   O     O_R   0.563167 0.359598 0.296074 -0.772127
O26   O     O_2   0.784110 0.937986 0.319742 -0.560248
O27   O     O_R   0.847510 0.898361 0.320793 -0.756012
O28   O     O_2   0.083198 0.987248 0.410968 -0.584524
O29   O     O_R   0.048300 0.939661 0.315231 -0.778074
O30   O     O_2   0.284277 0.437300 0.319170 -0.556680
O31   O     O_R   0.348179 0.397822 0.321036 -0.743622
O32   O     O_2   0.504744 0.431897 0.323147 -0.512562
O33   O     O_R   0.584029 0.463800 0.353322 -0.714993
O34   O     O_R   0.985440 0.954220 0.562600 -0.625820
O35   O     O_R   0.014560 0.954220 0.437400 -0.611233
O36   O     O_R   0.485440 0.454220 0.562600 -0.625357
O37   O     O_R   0.514560 0.454220 0.437400 -0.587312
O38   O     O_R   0.769920 0.821660 0.500020 -0.567920
O39   O     O_R   0.230080 0.821660 0.499980 -0.607316
O40   O     O_R   0.269920 0.321660 0.500020 -0.574406
O41   O     O_R   0.178330 0.769930 0.499990 -0.599623
O42   O     O_R   0.730080 0.321660 0.499980 -0.572909
O43   O     O_R   0.720420 0.724130 0.389120 -0.587559
O44   O     O_R   0.279580 0.724130 0.610880 -0.620752
O45   O     O_R   0.220420 0.224130 0.389120 -0.592476
O46   O     O_R   0.779580 0.224130 0.610880 -0.621356
O47   O     O_R   0.668670 0.775850 0.389130 -0.613749
O48   O     O_R   0.331330 0.775850 0.610870 -0.568714
O49   O     O_R   0.168670 0.275850 0.389130 -0.616149
O50   O     O_R   0.831330 0.275850 0.610870 -0.592730
O51   O     O_R   0.730060 0.678320 0.499990 -0.599142
O52   O     O_R   0.321670 0.269930 0.500010 -0.618223
O53   O     O_R   0.269940 0.678320 0.500010 -0.607201
O54   O     O_R   0.230060 0.178320 0.499990 -0.595868
O55   O     O_R   0.769940 0.178320 0.500010 -0.607690
O56   O     O_R   0.678300 0.730040 0.500010 -0.617878
O57   O     O_R   0.321700 0.730040 0.499990 -0.611693
O58   O     O_R   0.178300 0.230040 0.500010 -0.605746
O59   O     O_R   0.821700 0.230040 0.499990 -0.610495
O60   O     O_R   0.831300 0.724120 0.610880 -0.596033
O61   O     O_R   0.168700 0.724120 0.389120 -0.629559
O62   O     O_R   0.331300 0.224120 0.610880 -0.604369
O63   O     O_R   0.678330 0.269930 0.499990 -0.616189
O64   O     O_R   0.668700 0.224120 0.389120 -0.632025
O65   O     O_R   0.779550 0.775850 0.610900 -0.601638
O66   O     O_R   0.220450 0.775850 0.389100 -0.598301
O67   O     O_R   0.279550 0.275850 0.610900 -0.597678
O68   O     O_R   0.720450 0.275850 0.389100 -0.578414
O69   O     O_R   0.422810 0.545810 0.437360 -0.609978
O70   O     O_R   0.577190 0.545810 0.562640 -0.597287
O71   O     O_R   0.922810 0.045810 0.437360 -0.608885
O72   O     O_R   0.077190 0.045810 0.562640 -0.595045
O73   O     O_2   0.420172 0.838495 0.934996 -0.558205
O74   O     O_R   0.485380 0.545840 0.562560 -0.590897
O75   O     O_R   0.431358 0.873623 0.860762 -0.752638
O76   O     O_2   0.656521 0.706674 0.113766 -0.578562
O77   O     O_R   0.612956 0.769183 0.049316 -0.774470
O78   O     O_2   0.943874 0.346059 0.935832 -0.557464
O79   O     O_R   0.964066 0.369105 0.863791 -0.747010
O80   O     O_2   0.159277 0.200756 0.118335 -0.578615
O81   O     O_R   0.119851 0.263312 0.052135 -0.770561
O82   O     O_2   0.185450 0.772015 0.138556 -0.577059
O83   O     O_R   0.114652 0.726701 0.046232 -0.810975
O84   O     O_2   0.850037 0.820173 0.879337 -0.592365
O85   O     O_R   0.514620 0.545840 0.437440 -0.619158
O86   O     O_R   0.879930 0.758752 0.949024 -0.796404
O87   O     O_2   0.687716 0.268590 0.140140 -0.576392
O88   O     O_R   0.615977 0.223955 0.047447 -0.811144
O89   O     O_2   0.347653 0.321136 0.876028 -0.610624
O90   O     O_R   0.385646 0.262482 0.952600 -0.794672
O91   O     O_2   0.692170 0.574651 0.685953 -0.596925
O92   O     O_R   0.767684 0.531792 0.724802 -0.706810
O93   O     O_2   0.236628 0.520999 0.307770 -0.485582
O94   O     O_R   0.304768 0.561836 0.321471 -0.780127
O95   O     O_2   0.177102 0.089974 0.685700 -0.598650
O96   O     O_R   0.985380 0.045840 0.562560 -0.588229
O97   O     O_R   0.261870 0.053465 0.750581 -0.708283
O98   O     O_2   0.735895 0.019359 0.313414 -0.485472
O99   O     O_R   0.803671 0.058764 0.324159 -0.780833
O100  O     O_2   0.642648 0.505628 0.498589 -0.669639
O101  O     O_R   0.736210 0.486846 0.592140 -0.700887
O102  O     O_2   0.286932 0.483350 0.451237 -0.523741
O103  O     O_R   0.377859 0.508671 0.544486 -0.805258
O104  O     O_2   0.193753 0.014147 0.532668 -0.557539
O105  O     O_R   0.211471 0.987371 0.635480 -0.749910
O106  O     O_2   0.789331 0.982879 0.459255 -0.524871
O107  O     O_R   0.014620 0.045840 0.437440 -0.619114
O108  O     O_R   0.880679 0.008486 0.549306 -0.804343
O109  O     O_2   0.829339 0.600330 0.705942 -0.521131
O110  O     O_R   0.774082 0.660302 0.672865 -0.835881
O111  O     O_2   0.172027 0.585096 0.323626 -0.521190
O112  O     O_R   0.217840 0.647539 0.337612 -0.841776
O113  O     O_2   0.323765 0.122926 0.732169 -0.531594
O114  O     O_R   0.254637 0.175050 0.673396 -0.811854
O115  O     O_2   0.672588 0.083682 0.330576 -0.520865
O116  O     O_R   0.717522 0.145614 0.340401 -0.840182
O117  O     O_2   0.302160 0.846368 0.725120 -0.639951
O118  O     O_R   0.922870 0.954190 0.437400 -0.614340
O119  O     O_R   0.346590 0.852438 0.677272 -0.728244
O120  O     O_2   0.742822 0.753348 0.266877 -0.565844
O121  O     O_R   0.730387 0.686277 0.294667 -0.742282
O122  O     O_2   0.820696 0.352544 0.709457 -0.641179
O123  O     O_R   0.889274 0.351805 0.698602 -0.720226
O124  O     O_2   0.247218 0.248703 0.274628 -0.566977
O125  O     O_R   0.228048 0.181567 0.293968 -0.740154
O126  O     O_2   0.797466 0.556552 0.576191 -0.533668
O127  O     O_R   0.720070 0.587203 0.467338 -0.766035
O128  O     O_2   0.289844 0.591000 0.551980 -0.608158
Zn1   Zn    Zn3+2 0.784540 0.715450 0.500000 1.057226
Zn2   Zn    Zn3+2 0.541810 0.500000 0.583590 1.029512
Zn3   Zn    Zn3+2 0.958190 0.000000 0.416410 1.045984
Zn4   Zn    Zn3+2 0.041810 0.000000 0.583590 1.045787
Zn5   Zn    Zn3+2 0.215460 0.715450 0.500000 1.026577
Zn6   Zn    Zn3+2 0.284540 0.215450 0.500000 1.056601
Zn7   Zn    Zn3+2 0.715460 0.215450 0.500000 1.017373
Zn8   Zn    Zn3+2 0.715430 0.784520 0.500020 1.048579
Zn9   Zn    Zn3+2 0.284570 0.784520 0.499980 1.065942
Zn10  Zn    Zn3+2 0.215430 0.284520 0.500020 1.046227
Zn11  Zn    Zn3+2 0.784570 0.284520 0.499980 1.083133
Zn12  Zn    Zn3+2 0.458190 0.500000 0.416410 1.084780

loop_
_geom_bond_atom_site_label_1
_geom_bond_atom_site_label_2
_ccdc_geom_bond_type
C33   C55   S    
H57   N9    S    
C105  C110  A    
C135  N29   S    
C127  O45   A    
C129  H1    S    
C47   N17   S    
C14   C71   S    
C142  C146  A    
H104  O22   S    
C10   C63   S    
C88   O19   D    
C136  C140  A    
H54   N7    S    
C130  C174  S    
C135  C139  A    
H26   N27   S    
H59   N9    S    
H74   O108  S    
H108  O31   S    
C79   C99   A    
C62   O94   S    
C94   O31   S    
C154  C158  S    
C138  C143  A    
H16   N26   S    
C69   O106  D    
C19   O96   A    
C22   O2    A    
H17   O81   S    
C100  C104  A    
C107  C112  A    
C55   O81   S    
C29   O68   A    
O36   Zn2   S    
C70   O109  D    
C146  C150  A    
C116  N18   S    
C172  N8    S    
C3    C19   S    
C87   C99   S    
O44   Zn5   S    
C20   C184  S    
O52   Zn6   S    
H62   N11   S    
C96   C108  S    
C180  N11   S    
H112  N19   S    
H23   N23   S    
C173  O51   A    
H92   N15   S    
C59   C149  S    
O67   Zn10  S    
C165  C169  A    
H39   N2    S    
C116  H58   S    
C27   C138  S    
C116  C121  S    
C91   O23   D    
C74   O119  S    
C85   O12   D    
C164  C168  A    
C25   O24   A    
C26   C139  S    
H15   N26   S    
C167  C171  A    
C173  O56   A    
C98   C102  A    
C77   O125  S    
C9    C62   S    
C6    C184  A    
C5    C161  A    
C52   O73   D    
C57   C123  S    
C82   O6    D    
C22   C109  S    
C29   O64   A    
C166  C175  S    
C92   O26   D    
H76   O112  S    
C178  C182  A    
C77   O124  D    
C81   O4    D    
C158  C159  T    
C97   O39   A    
C83   O8    D    
C148  C153  A    
O48   Zn9   S    
C23   C110  S    
C123  N25   S    
C95   O33   S    
C89   C101  S    
H107  O29   S    
H10   N24   S    
C140  C145  A    
H71   O101  S    
H94   N16   S    
C145  N3    S    
C125  O43   A    
C146  N4    S    
C33   C38   A    
H42   N4    S    
C14   C161  S    
H7    N21   S    
C45   C50   A    
O54   Zn6   S    
C73   O115  D    
H50   N5    S    
H48   O90   S    
C68   C98   A    
C125  O47   A    
C18   O70   A    
C92   O27   S    
O74   Zn2   S    
H103  O20   S    
C67   O105  S    
C41   C45   A    
C31   C36   A    
C46   C122  S    
C103  C107  A    
H70   O99   S    
H31   N30   S    
H67   O94   S    
C97   O41   A    
H68   O97   S    
C108  O40   A    
C137  C142  A    
C122  N24   S    
C74   O117  D    
H2    O77   S    
H83   O125  S    
C60   O89   D    
C16   C164  S    
C15   C72   S    
C176  O58   A    
H63   N11   S    
H35   N32   S    
C75   O121  S    
C49   C84   S    
H29   N29   S    
C82   O7    S    
C36   C75   S    
H28   N28   S    
C52   O75   S    
C66   O103  S    
C133  C137  A    
H13   O79   S    
H78   O116  S    
C26   O60   A    
C95   O32   D    
C4    C8    S    
C169  N5    S    
C19   O71   A    
O72   Zn4   S    
H73   O105  S    
C71   O112  S    
H84   O127  S    
C127  O49   A    
H100  O16   S    
C132  C154  A    
H12   N25   S    
H51   N6    S    
C179  N10   S    
C110  C114  A    
C132  C136  A    
C75   O120  D    
C8    C65   S    
H49   N5    S    
C122  N12   S    
C143  N32   S    
H77   O114  S    
C23   O36   A    
C16   C82   S    
C106  C111  A    
C126  O44   A    
C30   C34   A    
H30   N29   S    
C155  C159  S    
C34   C39   A    
H37   N32   S    
C99   C103  A    
C87   O18   S    
C60   C150  S    
C120  N21   S    
O1    Zn1   S    
C57   C96   A    
C132  H36   S    
C31   C141  A    
C147  C151  A    
C117  C122  S    
O39   Zn9   S    
C5    C9    S    
C95   C106  S    
C71   O111  D    
C32   C152  A    
C8    C12   S    
C55   O80   D    
C114  C118  S    
C32   C37   A    
H3    N19   S    
O69   Zn12  S    
C113  C117  S    
C124  N27   S    
C81   O5    S    
H56   N8    S    
C166  C170  A    
C150  C155  A    
C58   O86   S    
C86   O16   S    
C63   O97   S    
O57   Zn9   S    
C80   O128  D    
O13   Zn12  S    
C112  C116  S    
C117  N19   S    
C29   C140  S    
C118  N20   S    
H18   N1    S    
C46   C113  A    
C88   O20   S    
C45   N16   S    
H52   N6    S    
O64   Zn7   S    
O38   Zn8   S    
H53   N7    S    
O24   Zn2   S    
H43   N4    S    
H64   N13   S    
O66   Zn9   S    
C48   C83   S    
C170  C179  A    
C56   C147  S    
C1    O1    A    
H82   O123  S    
C56   O83   S    
C40   C125  S    
O43   Zn1   S    
C35   C79   A    
H46   O88   S    
C53   O76   D    
C37   C41   A    
C27   O66   A    
O58   Zn10  S    
C25   C111  S    
C180  C184  A    
C40   C44   A    
H66   O92   S    
O85   Zn12  S    
C93   O29   S    
C18   O85   A    
C126  O48   A    
C35   C112  A    
O71   Zn3   S    
C94   C105  S    
H98   O11   S    
C76   O123  S    
C181  N13   S    
C1    O38   A    
C59   O88   S    
C43   N14   S    
C136  N30   S    
C67   O104  D    
H102  O75   S    
C93   O28   D    
O60   Zn1   S    
C17   O69   A    
C129  C151  A    
C3    C7    A    
H81   O121  S    
C176  O54   A    
C168  C177  S    
H44   O83   S    
H32   N30   S    
O55   Zn7   S    
C12   C70   S    
C50   C85   S    
C65   O101  S    
C86   O15   D    
H87   O7    S    
H85   O3    S    
H40   N3    S    
C49   C141  A    
C131  H25   S    
C121  N1    S    
C51   C163  A    
C90   C97   S    
C144  C148  A    
C17   O74   A    
C39   C126  S    
C96   C101  A    
H97   O9    S    
C44   N15   S    
C48   C130  A    
C21   O118  A    
C83   O9    S    
C51   C86   S    
C32   C54   S    
H45   O86   S    
H6    N21   S    
C84   O10   D    
H33   N31   S    
O51   Zn1   S    
O63   Zn7   S    
C80   O3    S    
C35   C121  S    
C62   O93   D    
H9    N22   S    
C94   O30   D    
O45   Zn6   S    
C23   O13   A    
H11   N24   S    
H72   O103  S    
C47   C51   A    
C78   O126  D    
C30   C130  A    
H111  N18   S    
C123  N23   S    
C91   O25   S    
O96   Zn4   S    
O41   Zn5   S    
O42   Zn11  S    
H99   O14   S    
C7    C11   S    
C9    C14   S    
H109  O33   S    
C11   C16   S    
C17   C183  S    
C26   O65   A    
C72   O114  S    
H106  O27   S    
C151  C156  S    
H27   N28   S    
C3    C181  A    
C88   C100  S    
C58   O84   D    
C42   C127  S    
C34   C74   S    
C37   C76   S    
O107  Zn3   S    
C175  O53   A    
C69   O108  S    
C170  N6    S    
C24   C163  S    
H65   N13   S    
C124  N26   S    
C121  N22   S    
H95   N17   S    
H24   N27   S    
C33   C163  A    
C13   C152  S    
C6    C10   S    
C60   O90   S    
C11   C69   S    
C46   C90   A    
C38   C77   S    
C7    C164  A    
C25   O37   A    
C64   O98   D    
C160  C165  A    
H4    N20   S    
C53   O77   S    
C177  O59   A    
C28   O67   A    
O2    Zn4   S    
C108  O52   A    
O53   Zn5   S    
H105  O25   S    
C118  C123  S    
C153  C157  S    
O118  Zn3   S    
H75   O110  S    
H88   N14   S    
H21   N12   S    
C68   C115  A    
C129  C134  A    
C50   C152  A    
C168  C172  A    
C118  H80   S    
C56   O82   D    
O56   Zn8   S    
C4    C182  A    
O61   Zn5   S    
H89   N14   S    
C5    C183  A    
H5    N20   S    
C145  C149  A    
C137  N31   S    
O68   Zn11  S    
C30   C52   S    
O65   Zn8   S    
C44   C49   A    
C15   C162  S    
C149  C154  A    
C68   C124  S    
C98   C119  S    
C15   C81   S    
C10   C67   S    
C143  C147  A    
C76   O122  D    
O70   Zn2   S    
C156  C157  T    
C38   C42   A    
C131  C135  A    
C10   C15   S    
C87   O17   D    
C104  C109  A    
C58   C148  S    
O62   Zn6   S    
C18   C182  S    
C165  C173  S    
C73   O116  S    
H86   O5    S    
C20   O72   A    
C9    C66   S    
C89   O22   S    
C36   C40   A    
C92   C103  S    
H110  N18   S    
C128  O50   A    
H22   N23   S    
C6    C162  A    
H96   N17   S    
C12   C78   S    
O35   Zn3   S    
H8    N22   S    
C14   C80   S    
C43   C48   A    
C161  C166  A    
C109  C113  A    
C8    C61   S    
C64   O99   S    
C84   O11   S    
C61   O91   D    
H38   N2    S    
C41   C128  S    
H79   O119  S    
C171  N7    S    
H14   N25   S    
C172  C181  A    
C93   C104  S    
C90   C100  A    
H101  O18   S    
H34   N31   S    
C179  C183  A    
C101  C105  A    
C72   O113  D    
C117  H69   S    
C16   C73   S    
C131  C153  A    
C178  N9    S    
C11   C64   S    
C66   O102  D    
C39   C43   A    
O49   Zn10  S    
C12   C160  S    
H55   N8    S    
C13   C24   T    
O40   Zn10  S    
C133  H47   S    
H19   N1    S    
H60   N10   S    
C61   O92   S    
C139  C144  A    
C128  O46   A    
C134  N28   S    
C54   O78   D    
C31   C53   S    
C21   C107  S    
H90   N15   S    
C28   O62   A    
O59   Zn11  S    
C177  O55   A    
C119  O42   A    
C171  C180  A    
C28   C142  S    
C91   C102  S    
C22   O35   A    
O37   Zn12  S    
C169  C178  A    
H61   N10   S    
C120  H91   S    
C85   O14   S    
C133  C155  A    
C59   O87   D    
C70   O110  S    
H20   N12   S    
C134  C138  A    
H93   N16   S    
C57   C114  A    
C21   O34   A    
H41   N3    S    
C63   O95   D    
O46   Zn7   S    
C78   O127  S    
C2    C174  T    
C4    C160  A    
C175  O57   A    
C1    C79   S    
C102  C106  A    
C20   O107  A    
C42   C47   A    
C54   O79   S    
C65   O100  D    
O34   Zn4   S    
C162  C167  A    
C27   O61   A    
C144  N2    S    
C89   O21   D    
C115  C120  S    
C2    C141  S    
O50   Zn11  S    
C111  C115  A    
O47   Zn8   S    
C119  O63   A    
C120  C124  S    
C167  C176  S    
