data_mof_unit_64799.cif
_audit_creation_date              2012-12-10T19:50:09-0500
_audit_creation_method            fapswitch 2.2
_symmetry_space_group_name_H-M    P1
_symmetry_Int_Tables_number       1
_space_group_crystal_system       triclinic
_cell_length_a                    36.781546
_cell_length_b                    18.260757
_cell_length_c                    18.264177
_cell_angle_alpha                 89.883315
_cell_angle_beta                  119.703172
_cell_angle_gamma                 90.129547
_cell_volume                      10655.390715

loop_
_atom_site_label
_atom_site_type_symbol
_atom_type_description
_atom_site_fract_x
_atom_site_fract_y
_atom_site_fract_z
_atom_type_partial_charge
C1    C     C_R   0.499988 0.000063 0.358755 0.936237
C2    C     C_R   0.500004 0.999936 0.641238 0.938159
C3    C     C_R   0.000017 0.500066 0.358784 0.936144
C4    C     C_R   0.000002 0.499939 0.641235 0.938248
C5    C     C_1   0.837175 0.998291 0.838710 0.109503
C6    C     C_1   0.162816 0.997909 0.162068 0.108484
C7    C     C_1   0.337174 0.501057 0.839023 0.108844
C8    C     C_1   0.662846 0.499812 0.160357 0.114267
C9    C     C_1   0.662901 0.000123 0.664406 0.230078
C10   C     C_1   0.337089 0.999366 0.335920 0.230474
C11   C     C_1   0.162909 0.500957 0.662714 0.231096
C12   C     C_1   0.837090 0.500410 0.337518 0.231872
C13   C     C_1   0.625481 0.000017 0.626167 -0.114013
C14   C     C_1   0.374511 0.999648 0.374051 -0.111676
C15   C     C_1   0.125486 0.500292 0.625418 -0.109964
C16   C     C_1   0.874513 0.499941 0.374965 -0.112586
C17   C     C_1   0.499950 0.000170 0.282304 -0.161745
C18   C     C_1   0.500040 0.999823 0.717687 -0.162479
C19   C     C_1   0.999984 0.500188 0.282336 -0.163594
C20   C     C_1   0.000040 0.499838 0.717687 -0.160625
C21   C     C_1   0.499940 0.000138 0.217541 -0.160132
C22   C     C_1   0.500054 0.999843 0.782454 -0.161735
C23   C     C_1   0.999959 0.500172 0.217560 -0.163968
C24   C     C_1   0.000056 0.499874 0.782455 -0.160989
C25   C     C_R   0.999978 0.141048 0.999917 0.935429
C26   C     C_R   0.000049 0.858949 0.000113 0.923777
C27   C     C_R   0.499935 0.641050 0.999868 0.915851
C28   C     C_R   0.500021 0.358951 0.000083 0.950316
C29   C     C_R   0.918865 0.000168 0.918876 0.892635
C30   C     C_R   0.081134 0.000361 0.081132 0.894287
C31   C     C_R   0.418864 0.499775 0.918891 0.898854
C32   C     C_R   0.581141 0.500015 0.081092 0.894186
C33   C     C_R   0.499967 0.858738 0.999892 0.923417
C34   C     C_R   0.500025 0.141260 0.000067 0.926090
C35   C     C_R   0.999975 0.358740 0.999936 0.927497
C36   C     C_R   0.000031 0.641262 0.000086 0.923822
C37   C     C_R   0.499978 0.000038 0.141163 0.924506
C38   C     C_R   0.500020 0.999937 0.858836 0.923362
C39   C     C_R   0.999982 0.500074 0.141167 0.925138
C40   C     C_R   0.000021 0.499971 0.858837 0.924872
C41   C     C_1   0.999940 0.217503 0.999776 -0.165039
C42   C     C_1   0.000097 0.782496 0.000275 -0.185740
C43   C     C_1   0.499883 0.717504 0.999692 -0.190131
C44   C     C_1   0.500059 0.282497 0.000226 -0.154748
C45   C     C_R   0.581158 0.000025 0.581166 0.893590
C46   C     C_R   0.418839 0.999925 0.418882 0.887547
C47   C     C_R   0.081159 0.500056 0.581152 0.885841
C48   C     C_R   0.918841 0.499955 0.419052 0.894331
C49   C     C_1   0.499893 0.782283 0.999717 -0.181211
C50   C     C_1   0.500069 0.217717 0.000206 -0.151816
C51   C     C_1   0.999931 0.282283 0.999797 -0.160427
C52   C     C_1   0.000095 0.717718 0.000250 -0.179095
C53   C     C_3   0.726293 0.081546 0.718182 0.609656
C54   C     C_3   0.275047 0.971841 0.351863 0.660904
C55   C     C_3   0.273854 0.078873 0.253118 0.609016
C56   C     C_3   0.724869 0.947342 0.663052 0.664777
C57   C     C_3   0.226378 0.514965 0.645468 0.606630
C58   C     C_3   0.774969 0.418366 0.284258 0.661929
C59   C     C_3   0.773515 0.552589 0.336582 0.610822
C60   C     C_3   0.224833 0.425307 0.757696 0.663680
C61   C     C_3   0.773471 0.937950 0.722498 0.094351
C62   C     C_3   0.225180 0.076550 0.218752 0.207117
C63   C     C_3   0.226436 0.959051 0.296222 0.092401
C64   C     C_3   0.774995 0.074383 0.754524 0.210663
C65   C     C_3   0.273460 0.433050 0.818291 0.090232
C66   C     C_3   0.724726 0.539406 0.290809 0.211258
C67   C     C_3   0.726331 0.419105 0.221374 0.085755
C68   C     C_3   0.275091 0.501430 0.697800 0.211245
C69   C     C_1   0.874586 0.999467 0.874834 -0.155459
C70   C     C_1   0.125411 0.999557 0.125317 -0.155793
C71   C     C_1   0.374583 0.500137 0.874957 -0.156110
C72   C     C_1   0.625434 0.499908 0.124866 -0.154570
C73   C     C_3   0.708690 0.999888 0.711059 -0.314524
C74   C     C_3   0.291297 0.998737 0.289502 -0.315703
C75   C     C_3   0.208699 0.501778 0.708998 -0.317235
C76   C     C_3   0.791302 0.500812 0.290708 -0.310754
C77   C     C_3   0.791389 0.996514 0.795351 -0.322291
C78   C     C_3   0.208595 0.995134 0.206442 -0.321192
C79   C     C_3   0.291392 0.502594 0.795703 -0.321700
C80   C     C_3   0.708629 0.499519 0.203415 -0.310515
C81   C     C_3   0.774448 0.980930 0.860198 0.692234
C82   C     C_3   0.225461 0.952126 0.152185 0.693158
C83   C     C_3   0.274419 0.576471 0.816711 0.693048
C84   C     C_3   0.725965 0.544314 0.150909 0.691309
C85   C     C_3   0.725166 0.968417 0.804518 0.585722
C86   C     C_3   0.274697 0.942401 0.211919 0.585372
C87   C     C_3   0.225116 0.566814 0.777134 0.584002
C88   C     C_3   0.775233 0.531459 0.197127 0.584513
H1    H     H_    0.778212 0.883755 0.751330 0.087749
H2    H     H_    0.209723 0.104330 0.156375 0.157662
H3    H     H_    0.221756 0.899855 0.287589 0.086237
H4    H     H_    0.790457 0.116606 0.804388 0.160095
H5    H     H_    0.278282 0.440409 0.881862 0.086319
H6    H     H_    0.709283 0.593965 0.278318 0.165309
H7    H     H_    0.721444 0.395820 0.162091 0.084644
H8    H     H_    0.290615 0.546728 0.682832 0.160193
O1    O     O_R   0.500010 0.060620 0.392670 -0.615262
O2    O     O_R   0.499990 0.939380 0.607330 -0.617924
O3    O     O_R   0.499990 0.060620 0.607330 -0.612213
O4    O     O_R   0.500010 0.939380 0.392670 -0.615536
O5    O     O_R   0.000010 0.560620 0.392670 -0.620075
O6    O     O_R   0.999990 0.439380 0.607330 -0.614515
O7    O     O_R   0.999990 0.560620 0.607330 -0.615830
O8    O     O_R   0.000010 0.439380 0.392670 -0.609723
O9    O     O_R   0.561430 0.060620 0.561430 -0.622280
O10   O     O_R   0.438570 0.939380 0.438570 -0.599074
O11   O     O_R   0.438570 0.060620 0.438570 -0.614839
O12   O     O_R   0.561430 0.939380 0.561430 -0.601105
O13   O     O_R   0.061430 0.560620 0.561430 -0.611929
O14   O     O_R   0.938570 0.439380 0.438570 -0.601509
O15   O     O_R   0.938570 0.560620 0.438570 -0.623762
O16   O     O_R   0.061430 0.439380 0.561430 -0.599810
O17   O     O_R   1.000000 0.107140 0.939380 -0.613969
O18   O     O_R   1.000000 0.892860 0.060620 -0.618837
O19   O     O_R   0.000000 0.107140 0.060620 -0.611598
O20   O     O_R   1.000000 0.892860 0.939380 -0.614789
O21   O     O_R   0.500000 0.607140 0.939380 -0.622271
O22   O     O_R   0.500000 0.392860 0.060620 -0.608914
O23   O     O_R   0.500000 0.607140 0.060620 -0.618622
O24   O     O_R   0.500000 0.392860 0.939380 -0.611773
O25   O     O_R   0.938580 0.000000 0.877970 -0.577767
O26   O     O_R   0.061420 0.000000 0.122030 -0.579556
O27   O     O_R   0.438580 0.500000 0.877970 -0.599015
O28   O     O_R   0.561420 0.500000 0.122030 -0.585665
O29   O     O_R   0.938570 1.000000 0.999140 -0.641422
O30   O     O_R   0.061430 0.000000 0.000860 -0.640399
O31   O     O_R   0.438570 0.500000 0.999140 -0.626625
O32   O     O_R   0.561430 0.500000 0.000860 -0.635879
O33   O     O_R   0.534690 0.892630 0.034650 -0.619571
O34   O     O_R   0.465310 0.107370 0.965350 -0.605394
O35   O     O_R   0.465310 0.892630 0.965350 -0.621345
O36   O     O_R   0.534690 0.107370 0.034650 -0.610577
O37   O     O_R   0.034690 0.392630 0.034650 -0.609688
O38   O     O_R   0.965310 0.607370 0.965350 -0.616253
O39   O     O_R   0.965310 0.392630 0.965350 -0.612271
O40   O     O_R   0.034690 0.607370 0.034650 -0.624599
O41   O     O_R   0.534680 0.000000 0.141990 -0.607332
O42   O     O_R   0.465320 0.000000 0.858010 -0.611344
O43   O     O_R   0.034680 0.500000 0.141990 -0.613599
O44   O     O_R   0.965320 0.500000 0.858010 -0.607249
O45   O     O_R   0.465320 0.000000 0.072630 -0.615756
O46   O     O_R   0.534680 0.000000 0.927370 -0.614391
O47   O     O_R   0.965320 0.500000 0.072630 -0.612244
O48   O     O_R   0.034680 0.500000 0.927370 -0.617786
Zn1   Zn    Zn3+2 0.500000 0.080950 0.500000 1.010253
Zn2   Zn    Zn3+2 0.500000 0.919050 0.500000 1.020467
Zn3   Zn    Zn3+2 0.000000 0.580950 0.500000 1.004876
Zn4   Zn    Zn3+2 0.000000 0.419050 0.500000 1.029406
Zn5   Zn    Zn3+2 0.000010 0.000000 0.919080 1.008367
Zn6   Zn    Zn3+2 0.999990 0.000000 0.080920 1.006694
Zn7   Zn    Zn3+2 0.500010 0.500000 0.919080 0.995280
Zn8   Zn    Zn3+2 0.499990 0.500000 0.080920 1.010411
Zn9   Zn    Zn3+2 0.546310 0.000000 0.046300 1.026220
Zn10  Zn    Zn3+2 0.453690 0.000000 0.953700 1.020197
Zn11  Zn    Zn3+2 0.046310 0.500000 0.046300 1.009116
Zn12  Zn    Zn3+2 0.953690 0.500000 0.953700 1.025899
Cl1   Cl    Cl    0.793536 0.100702 0.683273 -0.372326
Cl2   Cl    Cl    0.197080 0.980443 0.348681 -0.473971
Cl3   Cl    Cl    0.206865 0.132164 0.275625 -0.371285
Cl4   Cl    Cl    0.802772 0.930090 0.667448 -0.500119
Cl5   Cl    Cl    0.293768 0.423101 0.665798 -0.365788
Cl6   Cl    Cl    0.696833 0.355990 0.248284 -0.467970
Cl7   Cl    Cl    0.705466 0.497542 0.354794 -0.397234
Cl8   Cl    Cl    0.302705 0.350039 0.831002 -0.485439
Cl9   Cl    Cl    0.702462 0.131837 0.618160 -0.476300
Cl10  Cl    Cl    0.287997 0.037434 0.435752 -0.410671
Cl11  Cl    Cl    0.297907 0.152559 0.330636 -0.482098
Cl12  Cl    Cl    0.711838 0.983941 0.560492 -0.432795
Cl13  Cl    Cl    0.202633 0.455843 0.552201 -0.483256
Cl14  Cl    Cl    0.788029 0.382352 0.387056 -0.407452
Cl15  Cl    Cl    0.796819 0.535477 0.449960 -0.510611
Cl16  Cl    Cl    0.211672 0.349686 0.684514 -0.408808
O49   O     O_3   0.703143 0.879012 0.647119 -0.617779
C89   C     C_3   0.717287 0.823605 0.612778 0.156211
H9    H     H_    0.741061 0.789451 0.664905 0.147115
H10   H     H_    0.731261 0.845192 0.575365 0.205260
C90   C     C_3   0.680269 0.774729 0.555407 -0.338214
H11   H     H_    0.666474 0.750746 0.592182 0.249546
H12   H     H_    0.655920 0.808315 0.503490 0.246569
C91   C     C_3   0.693646 0.712927 0.517700 -0.873978
H13   H     H_    0.706789 0.735675 0.479230 0.270226
H14   H     H_    0.666083 0.678469 0.476509 0.280217
H15   H     H_    0.717556 0.677955 0.568526 0.278085
O50   O     O_3   0.278369 0.094747 0.181043 -0.630712
C92   C     C_3   0.317055 0.125772 0.196832 0.203683
H16   H     H_    0.327943 0.095365 0.158750 0.191528
H17   H     H_    0.342739 0.121370 0.263070 0.146360
C93   C     C_3   0.310289 0.205504 0.166864 -0.342539
H18   H     H_    0.286841 0.207442 0.098539 0.226684
H19   H     H_    0.297896 0.237753 0.201154 0.270131
C94   C     C_3   0.350941 0.240542 0.180852 -0.911027
H20   H     H_    0.374611 0.240538 0.249028 0.277832
H21   H     H_    0.344902 0.298045 0.158024 0.271503
H22   H     H_    0.363482 0.210149 0.145543 0.269197
O51   O     O_3   0.296775 0.905944 0.392269 -0.622106
C95   C     C_3   0.282579 0.870714 0.442902 0.158689
H23   H     H_    0.258231 0.829697 0.404144 0.143811
H24   H     H_    0.269337 0.908925 0.470799 0.209339
C96   C     C_3   0.319364 0.830477 0.514809 -0.308657
H25   H     H_    0.332542 0.790629 0.488241 0.248115
H26   H     H_    0.344220 0.870662 0.553862 0.243360
C97   C     C_3   0.305960 0.789648 0.570626 -0.941386
H27   H     H_    0.293414 0.828659 0.599179 0.278071
H28   H     H_    0.333369 0.761094 0.622087 0.270097
H29   H     H_    0.281596 0.748268 0.533158 0.267719
O52   O     O_3   0.721674 0.123281 0.779576 -0.629958
C98   C     C_3   0.682788 0.159574 0.751059 0.195093
H30   H     H_    0.671866 0.148163 0.796714 0.189341
H31   H     H_    0.657251 0.140721 0.689052 0.150906
C99   C     C_3   0.689049 0.242457 0.750672 -0.320705
H32   H     H_    0.711657 0.260932 0.815650 0.227627
H33   H     H_    0.702244 0.256367 0.709319 0.278244
C100  C     C_3   0.647850 0.283363 0.719652 -0.933550
H34   H     H_    0.625163 0.267209 0.653855 0.284775
H35   H     H_    0.653517 0.343230 0.721156 0.278611
H36   H     H_    0.634265 0.271101 0.760755 0.262590
O53   O     O_3   0.203137 0.411542 0.803232 -0.622675
C101  C     C_3   0.217183 0.349303 0.856957 0.153898
H37   H     H_    0.240665 0.367008 0.921638 0.143691
H38   H     H_    0.231512 0.306397 0.836370 0.208222
C102  C     C_3   0.179990 0.315294 0.860127 -0.303545
H39   H     H_    0.165623 0.356901 0.882313 0.245841
H40   H     H_    0.156098 0.297673 0.795704 0.246434
C103  C     C_3   0.193295 0.249221 0.919180 -0.944286
H41   H     H_    0.207348 0.206490 0.897696 0.276146
H42   H     H_    0.165538 0.225500 0.919459 0.272230
H43   H     H_    0.216426 0.265990 0.984442 0.267020
O54   O     O_3   0.778514 0.628456 0.322852 -0.626785
C104  C     C_3   0.817134 0.661879 0.380794 0.204496
H44   H     H_    0.828429 0.693691 0.344129 0.191743
H45   H     H_    0.842624 0.622921 0.419610 0.145245
C105  C     C_3   0.810111 0.716051 0.436510 -0.343535
H46   H     H_    0.787419 0.758611 0.396070 0.238348
H47   H     H_    0.796641 0.687370 0.471280 0.266897
C106  C     C_3   0.850927 0.753102 0.499887 -0.885145
H48   H     H_    0.873768 0.711622 0.542228 0.271601
H49   H     H_    0.844718 0.792299 0.538798 0.293056
H50   H     H_    0.864590 0.783610 0.466558 0.263132
O55   O     O_3   0.796602 0.373171 0.254405 -0.621696
C107  C     C_3   0.782368 0.299577 0.236693 0.162208
H51   H     H_    0.759720 0.294313 0.168204 0.143634
H52   H     H_    0.766957 0.280204 0.272288 0.211852
C108  C     C_3   0.819670 0.249692 0.258568 -0.320471
H53   H     H_    0.834972 0.266719 0.221838 0.239800
H54   H     H_    0.842822 0.255102 0.326781 0.254100
C109  C     C_3   0.806120 0.169718 0.239047 -0.923276
H55   H     H_    0.790377 0.151707 0.274541 0.292672
H56   H     H_    0.834009 0.134646 0.258047 0.270994
H57   H     H_    0.784368 0.162516 0.170439 0.268072
O56   O     O_3   0.221748 0.590125 0.619222 -0.630665
C110  C     C_3   0.183036 0.610098 0.547850 0.208271
H58   H     H_    0.172060 0.661314 0.563198 0.193789
H59   H     H_    0.157419 0.569787 0.530072 0.139342
C111  C     C_3   0.189718 0.626728 0.473120 -0.336870
H60   H     H_    0.212782 0.672010 0.490391 0.223557
H61   H     H_    0.202561 0.577900 0.457704 0.272300
C112  C     C_3   0.148873 0.649035 0.395224 -0.920380
H62   H     H_    0.125615 0.603886 0.375700 0.277063
H63   H     H_    0.154842 0.661196 0.342497 0.270750
H64   H     H_    0.135833 0.698830 0.408512 0.268631
Cl17  Cl    Cl    0.698358 0.008324 0.855085 -0.509350
Cl18  Cl    Cl    0.288834 0.849108 0.246859 -0.535460
Cl19  Cl    Cl    0.301656 0.952636 0.152416 -0.496100
Cl20  Cl    Cl    0.710580 0.873925 0.803450 -0.546279
Cl21  Cl    Cl    0.198492 0.652388 0.733417 -0.487987
Cl22  Cl    Cl    0.790397 0.472970 0.137391 -0.544712
Cl23  Cl    Cl    0.801920 0.614413 0.196263 -0.513768
Cl24  Cl    Cl    0.210236 0.553147 0.856569 -0.537538
O57   O     O_3   0.779641 0.046382 0.907615 -0.583892
C113  C     C_3   0.821302 0.061391 0.971892 0.160219
H65   H     H_    0.836630 0.097279 0.946018 0.116799
H66   H     H_    0.840996 0.011812 0.999087 0.166265
C114  C     C_3   0.820050 0.102977 0.043076 -0.298640
H67   H     H_    0.800577 0.152994 0.017187 0.241210
H68   H     H_    0.805586 0.067788 0.071479 0.247164
C115  C     C_3   0.863957 0.125306 0.111253 -0.960618
H69   H     H_    0.883519 0.075973 0.140389 0.269856
H70   H     H_    0.862070 0.157015 0.160988 0.275641
H71   H     H_    0.879050 0.160241 0.083991 0.274334
O58   O     O_3   0.207316 0.882560 0.113603 -0.604653
C116  C     C_3   0.188147 0.836978 0.147693 0.038004
H72   H     H_    0.166603 0.865980 0.162958 0.138371
H73   H     H_    0.212019 0.807410 0.204073 0.198579
C117  C     C_3   0.162004 0.779363 0.081681 -0.291381
H74   H     H_    0.138487 0.807172 0.022965 0.222276
H75   H     H_    0.182720 0.745982 0.066715 0.264205
C118  C     C_3   0.139239 0.728888 0.112624 -0.922059
H76   H     H_    0.162095 0.699989 0.171027 0.268270
H77   H     H_    0.120910 0.687479 0.063459 0.279999
H78   H     H_    0.117358 0.760892 0.125490 0.261815
O59   O     O_3   0.220582 0.998968 0.084911 -0.583311
C119  C     C_3   0.179139 0.005125 0.016179 0.152066
H79   H     H_    0.164055 0.054054 0.025555 0.117500
H80   H     H_    0.158958 0.956789 0.007425 0.165156
C120  C     C_3   0.181207 0.016464 0.935462 -0.282859
H81   H     H_    0.201294 0.064693 0.943091 0.239621
H82   H     H_    0.195452 0.967407 0.923815 0.258153
C121  C     C_3   0.137789 0.029087 0.859686 -0.945957
H83   H     H_    0.117271 0.981116 0.850083 0.271119
H84   H     H_    0.140425 0.036866 0.802183 0.285077
H85   H     H_    0.123395 0.078896 0.869359 0.264819
O60   O     O_3   0.792352 0.922707 0.921590 -0.608552
C122  C     C_3   0.811041 0.861236 0.906294 0.037911
H86   H     H_    0.833270 0.875568 0.884753 0.139478
H87   H     H_    0.786923 0.823203 0.861002 0.199405
C123  C     C_3   0.835973 0.819595 0.989234 -0.298160
H88   H     H_    0.860078 0.856514 0.037108 0.220104
H89   H     H_    0.814584 0.801775 0.012547 0.263573
C124  C     C_3   0.857577 0.752455 0.978539 -0.894785
H90   H     H_    0.834057 0.714284 0.931597 0.275036
H91   H     H_    0.875126 0.723396 0.039780 0.279134
H92   H     H_    0.879981 0.769168 0.957410 0.259079
O61   O     O_3   0.279959 0.635491 0.771357 -0.583226
C125  C     C_3   0.321529 0.662665 0.806904 0.147603
H93   H     H_    0.335557 0.641430 0.769521 0.119422
H94   H     H_    0.342547 0.646986 0.873805 0.150785
C126  C     C_3   0.320179 0.746144 0.801065 -0.281373
H95   H     H_    0.299734 0.762968 0.734376 0.240925
H96   H     H_    0.306682 0.768230 0.839101 0.259491
C127  C     C_3   0.363832 0.778406 0.833294 -0.950168
H97   H     H_    0.384650 0.763339 0.900425 0.269789
H98   H     H_    0.361752 0.839028 0.828213 0.282451
H99   H     H_    0.377623 0.757963 0.795149 0.261744
O62   O     O_3   0.708543 0.531792 0.061551 -0.621114
C128  C     C_3   0.689876 0.463720 0.025447 0.047567
H100  H     H_    0.667197 0.444554 0.043978 0.143870
H101  H     H_    0.714039 0.421397 0.039914 0.196604
C129  C     C_3   0.665629 0.473048 0.929748 -0.292480
H102  H     H_    0.641151 0.515642 0.912670 0.221832
H103  H     H_    0.687338 0.491552 0.907512 0.252782
C130  C     C_3   0.644819 0.401564 0.885467 -0.950539
H104  H     H_    0.668823 0.358649 0.899976 0.273327
H105  H     H_    0.627259 0.410562 0.816260 0.271427
H106  H     H_    0.622539 0.382446 0.905907 0.273455
O63   O     O_3   0.720313 0.620571 0.160555 -0.595905
C131  C     C_3   0.680658 0.649684 0.101449 0.148177
H107  H     H_    0.667884 0.678622 0.137236 0.132290
H108  H     H_    0.656961 0.608145 0.061697 0.138881
C132  C     C_3   0.686212 0.704781 0.044612 -0.252663
H109  H     H_    0.708316 0.748496 0.084023 0.246353
H110  H     H_    0.699697 0.676623 0.009624 0.266590
C133  C     C_3   0.644569 0.739534 0.981528 -0.936505
H111  H     H_    0.622306 0.696859 0.940213 0.262004
H112  H     H_    0.649712 0.779371 0.941522 0.301135
H113  H     H_    0.630754 0.768913 0.015127 0.266382
O64   O     O_3   0.292124 0.601594 0.902673 -0.605287
C134  C     C_3   0.310671 0.551380 0.970572 0.033680
H114  H     H_    0.333129 0.513934 0.967005 0.144297
H115  H     H_    0.286461 0.519827 0.976317 0.197600
C135  C     C_3   0.335205 0.595064 0.052008 -0.280108
H116  H     H_    0.359632 0.628318 0.048384 0.221499
H117  H     H_    0.313653 0.632925 0.059542 0.266356
C136  C     C_3   0.356170 0.544814 0.128830 -0.918562
H118  H     H_    0.332286 0.511690 0.134412 0.272277
H119  H     H_    0.373544 0.578331 0.186744 0.277762
H120  H     H_    0.378617 0.507589 0.123572 0.265403

loop_
_geom_bond_atom_site_label_1
_geom_bond_atom_site_label_2
_ccdc_geom_bond_type
C38   O46   A    
C64   C77   S    
O59   C119  S    
C122  H87   S    
C116  C117  S    
C84   O62   S    
C93   C94   S    
C117  H74   S    
C131  C132  S    
C59   C66   S    
O30   Zn5   S    
O45   Zn10  S    
C54   C63   S    
C22   C38   S    
C55   C62   S    
C114  C115  S    
C9    C13   T    
C111  H61   S    
C54   C74   S    
C55   C74   S    
C11   C15   T    
C12   C16   T    
O62   C128  S    
C4    O6    A    
C64   Cl1   S    
C98   C99   S    
C118  H77   S    
C3    C19   S    
C45   O12   A    
C87   Cl24  S    
O42   Zn10  S    
C96   H25   S    
C59   Cl15  S    
O54   C104  S    
C136  H119  S    
C91   H14   S    
O12   Zn2   S    
C100  H35   S    
C97   H27   S    
C94   H20   S    
C127  H99   S    
C14   C46   S    
C25   C41   S    
C133  H111  S    
C131  H107  S    
C125  H93   S    
C100  H34   S    
C28   C44   S    
C17   C21   T    
C126  C127  S    
C19   C23   T    
C26   O18   A    
C104  H44   S    
C78   C82   S    
C122  H86   S    
C105  H47   S    
C123  H88   S    
C38   O42   A    
O41   Zn9   S    
C59   O54   S    
C89   C90   S    
C97   H28   S    
O44   Zn12  S    
C60   C65   S    
C10   C14   T    
C113  H66   S    
C121  H83   S    
O18   Zn6   S    
C5    C77   S    
C7    C79   S    
C44   C50   T    
C56   C73   S    
O1    Zn1   S    
C117  C118  S    
C82   O58   S    
C84   C88   S    
C95   H23   S    
C133  H113  S    
C119  H80   S    
C94   H22   S    
C28   O22   A    
C13   C45   S    
C67   Cl6   S    
O5    Zn3   S    
C40   O44   A    
C53   C64   S    
O25   Zn5   S    
C135  H116  S    
C82   O59   S    
O51   C95   S    
C4    C20   S    
C58   C67   S    
C63   H3    S    
C125  H94   S    
C41   C51   T    
C42   C52   T    
C56   C61   S    
C48   O14   A    
C65   C79   S    
C29   O29   A    
C31   O31   A    
C92   H16   S    
C58   C76   S    
C120  H82   S    
C104  C105  S    
C6    C78   S    
O50   C92   S    
C93   H19   S    
C112  H62   S    
C128  H101  S    
C89   H9    S    
C61   C77   S    
C90   H12   S    
C96   C97   S    
C55   O50   S    
C36   C52   S    
C3    O5    A    
C68   C79   S    
C31   C71   S    
O3    Zn1   S    
C67   H7    S    
O13   Zn3   S    
C95   C96   S    
O14   Zn4   S    
O20   Zn5   S    
C45   O9    A    
C114  H67   S    
C124  H91   S    
C30   O26   A    
O58   C116  S    
O21   Zn7   S    
C28   O24   A    
C61   Cl4   S    
C35   O39   A    
O40   Zn11  S    
C110  C111  S    
C111  C112  S    
O53   C101  S    
C47   O13   A    
O39   Zn12  S    
O63   C131  S    
C127  H98   S    
C102  H39   S    
C101  H38   S    
O43   Zn11  S    
C108  C109  S    
C53   O52   S    
O34   Zn10  S    
O22   Zn8   S    
C73   C85   S    
C75   C87   S    
C2    O3    A    
C99   H33   S    
C106  H50   S    
C57   C68   S    
C58   O55   S    
C26   C42   S    
C101  C102  S    
O23   Zn8   S    
C109  H55   S    
C83   O61   S    
O24   Zn7   S    
C18   C22   T    
C62   C78   S    
O35   Zn10  S    
C115  H70   S    
C129  H102  S    
C36   O38   A    
C116  H73   S    
C99   C100  S    
C66   C80   S    
C1    C17   S    
C112  H64   S    
C57   C75   S    
C117  H75   S    
C11   C75   S    
C134  C135  S    
O33   Zn9   S    
C46   O10   A    
C107  H51   S    
C114  H68   S    
C86   Cl18  S    
C130  H106  S    
C132  C133  S    
C115  H69   S    
C98   H31   S    
C59   C76   S    
C81   C85   S    
C63   C78   S    
C83   C87   S    
O8    Zn4   S    
O55   C107  S    
C55   Cl11  S    
C80   C84   S    
C103  H41   S    
C35   O37   A    
C136  H118  S    
O47   Zn12  S    
C110  H58   S    
C32   C72   S    
C68   Cl5   S    
C84   O63   S    
C68   H8    S    
C37   O45   A    
O26   Zn6   S    
C102  C103  S    
C133  H112  S    
C33   C49   S    
C108  H53   S    
C126  H96   S    
C83   O64   S    
C5    C69   T    
O38   Zn12  S    
C97   H29   S    
C29   O25   A    
C123  H89   S    
C106  H48   S    
C29   C69   S    
C125  C126  S    
C27   O21   A    
O57   C113  S    
C113  C114  S    
C121  H84   S    
C54   Cl10  S    
C129  C130  S    
C36   O40   A    
C1    O4    A    
C30   C70   S    
C122  C123  S    
C39   O43   A    
O27   Zn7   S    
C8    C72   T    
C123  C124  S    
O7    Zn3   S    
C98   H30   S    
C131  H108  S    
C120  H81   S    
C135  C136  S    
O56   C110  S    
O49   C89   S    
C107  C108  S    
C121  H85   S    
C130  H104  S    
C94   H21   S    
C111  H60   S    
C25   O17   A    
C132  H109  S    
C115  H71   S    
C77   C81   S    
O9    Zn1   S    
C81   O57   S    
C118  H78   S    
C135  H117  S    
C87   Cl21  S    
C53   Cl9   S    
C12   C76   S    
C64   H4    S    
C85   Cl20  S    
C103  H43   S    
C86   Cl19  S    
C134  H114  S    
C136  H120  S    
C91   H13   S    
C100  H36   S    
C33   O33   A    
C6    C70   T    
C54   O51   S    
O52   C98   S    
C67   C80   S    
C88   Cl23  S    
C60   C75   S    
C56   O49   S    
C104  H45   S    
C82   C86   S    
C79   C83   S    
C32   O32   A    
O61   C125  S    
C105  H46   S    
C128  H100  S    
C89   H10   S    
C92   H17   S    
O29   Zn6   S    
C27   C43   S    
C21   C37   S    
C90   H11   S    
C96   H26   S    
C113  H65   S    
C57   O56   S    
C3    O8    A    
C30   O30   A    
C2    C18   S    
C32   O28   A    
C15   C47   S    
C81   O60   S    
C16   C48   S    
O64   C134  S    
C124  H90   S    
C119  H79   S    
C58   Cl14  S    
O15   Zn3   S    
C25   O19   A    
C7    C71   T    
O11   Zn1   S    
C110  H59   S    
C47   O16   A    
C4    O7    A    
C65   Cl8   S    
O6    Zn4   S    
C118  H76   S    
O4    Zn2   S    
C108  H54   S    
C76   C88   S    
C91   H15   S    
C66   H6    S    
C33   O35   A    
O28   Zn8   S    
C34   O36   A    
C37   O41   A    
C106  H49   S    
C9    C73   S    
C61   H1    S    
C120  C121  S    
C57   Cl13  S    
C109  H56   S    
C34   C50   S    
C60   Cl16  S    
O17   Zn5   S    
C129  H103  S    
C1    O1    A    
C43   C49   T    
C92   C93   S    
O2    Zn2   S    
C116  H72   S    
C105  C106  S    
O16   Zn4   S    
C93   H18   S    
C112  H63   S    
C128  C129  S    
O31   Zn8   S    
C134  H115  S    
O32   Zn7   S    
C90   C91   S    
C46   O11   A    
C56   Cl12  S    
C107  H52   S    
O36   Zn9   S    
C74   C86   S    
C130  H105  S    
C34   O34   A    
C132  H110  S    
C39   O47   A    
C40   O48   A    
C124  H92   S    
O60   C122  S    
O37   Zn11  S    
C119  C120  S    
C53   C73   S    
C85   Cl17  S    
C103  H42   S    
C27   O23   A    
O10   Zn2   S    
C127  H97   S    
O48   Zn11  S    
C31   O27   A    
C102  H40   S    
C60   O53   S    
C35   C51   S    
C10   C74   S    
C88   Cl22  S    
C101  H37   S    
C23   C39   S    
C62   H2    S    
O19   Zn6   S    
C65   H5    S    
C24   C40   S    
C66   Cl7   S    
O46   Zn9   S    
C126  H95   S    
C20   C24   T    
C26   O20   A    
C95   H24   S    
C48   O15   A    
C2    O2    A    
C99   H32   S    
C8    C80   S    
C62   Cl3   S    
C63   Cl2   S    
C109  H57   S    
