data_mof_unit_64243.cif
_audit_creation_date              2012-12-10T16:56:10-0500
_audit_creation_method            fapswitch 2.2
_symmetry_space_group_name_H-M    P1
_symmetry_Int_Tables_number       1
_space_group_crystal_system       triclinic
_cell_length_a                    9.722334
_cell_length_b                    10.937785
_cell_length_c                    13.889525
_cell_angle_alpha                 90.070296
_cell_angle_beta                  84.444582
_cell_angle_gamma                 89.958692
_cell_volume                      1470.0840202

loop_
_atom_site_label
_atom_site_type_symbol
_atom_type_description
_atom_site_fract_x
_atom_site_fract_y
_atom_site_fract_z
_atom_type_partial_charge
C1    C     C_R   0.500070 0.734557 0.498850 0.844956
C2    C     C_1   0.462498 0.500195 0.786129 -0.144379
C3    C     C_2   0.613162 0.066893 0.497667 -0.146761
C4    C     C_2   0.496849 0.133454 0.505884 -0.300383
C5    C     C_2   0.612528 0.932946 0.501951 -0.148387
C6    C     C_2   0.498354 0.866544 0.494064 -0.301519
C7    C     C_2   0.071464 0.580653 0.545906 -0.031919
C8    C     C_2   0.916363 0.566788 0.557529 0.052389
C9    C     C_R   0.477180 0.500025 0.682913 0.822922
C10   C     C_R   0.499787 0.265440 0.501096 0.849498
C11   C     C_R   0.522781 0.499972 0.317098 0.814403
C12   C     C_1   0.536643 0.499932 0.213908 -0.105796
C13   C     C_2   0.551037 0.499816 0.023314 -0.315608
C14   C     C_2   0.436230 0.500581 0.976829 0.470812
C15   C     C_1   0.450074 0.500371 0.873022 -0.041719
C16   C     C_1   0.545215 0.499883 0.127058 0.132870
Cu1   Cu    Cu3+1 0.361370 0.499980 0.499980 0.989407
Cu2   Cu    Cu3+1 0.638630 0.500020 0.500020 0.949194
H1    H     H_    0.652372 0.499068 0.982690 0.134671
H2    H     H_    0.713420 0.111454 0.488937 0.171375
H3    H     H_    0.395431 0.092593 0.518371 0.150948
H4    H     H_    0.710453 0.888241 0.510404 0.168534
H5    H     H_    0.400283 0.907515 0.481823 0.152353
H6    H     H_    0.116148 0.658253 0.580213 0.141583
H7    H     H_    0.111325 0.418556 0.484283 0.242863
H8    H     H_    0.859867 0.616231 0.616491 0.113099
N1    N     N_2   0.152970 0.501340 0.501040 -0.262330
N2    N     N_2   0.846830 0.501370 0.501060 -0.132481
O1    O     O_R   0.382960 0.678040 0.499980 -0.580179
O2    O     O_R   0.617100 0.678080 0.500020 -0.582205
O3    O     O_R   0.366380 0.499950 0.637830 -0.561503
O4    O     O_R   0.600520 0.499990 0.637860 -0.582210
O5    O     O_R   0.382900 0.321920 0.499980 -0.583299
O6    O     O_R   0.617040 0.321960 0.500020 -0.576898
O7    O     O_R   0.399480 0.500010 0.362140 -0.531073
O8    O     O_R   0.633620 0.500050 0.362170 -0.599147
S1    S     S_3+6 0.268022 0.501834 0.038103 0.025537
O9    O     O_2   0.248645 0.389931 0.100645 -0.281189
O10   O     O_2   0.250548 0.614030 0.100709 -0.281132
O11   O     O_3   0.149598 0.502695 0.957489 -0.525305
H9    H     H_    0.059200 0.503396 0.997085 0.372028
N3    N     N_3   0.914456 0.472435 0.411087 -0.490712
H10   H     H_    0.871863 0.390728 0.388775 0.248170
H11   H     H_    0.890611 0.540617 0.362720 0.258521

loop_
_geom_bond_atom_site_label_1
_geom_bond_atom_site_label_2
_ccdc_geom_bond_type
C11   C12   S    
N3    H11   S    
S1    O9    D    
C2    C15   T    
C7    H6    S    
C10   O5    A    
Cu1   O1    S    
C1    O1    A    
Cu1   Cu2   S    
Cu2   N2    S    
C3    H2    S    
S1    O10   D    
C13   C14   D    
C1    O2    A    
C14   S1    S    
C4    H3    S    
Cu2   O6    S    
Cu1   O5    S    
Cu1   O3    S    
C6    H5    S    
N2    N3    S    
O11   H9    S    
S1    O11   S    
C5    C6    D    
C8    N2    D    
Cu2   O4    S    
N3    H10   S    
C8    H8    S    
Cu2   O2    S    
C4    C10   S    
C3    C4    D    
Cu1   N1    S    
C12   C16   T    
C7    C8    S    
C7    N1    D    
C10   O6    A    
C13   C16   S    
C9    O3    A    
C14   C15   S    
C11   O8    A    
C13   H1    S    
Cu1   O7    S    
C9    O4    A    
C2    C9    S    
Cu2   O8    S    
C11   O7    A    
C5    H4    S    
C1    C6    S    
C3    C5    S    
H7    N1    S    
