data_mof_unit_47491.cif
_audit_creation_date              2012-12-10T17:24:16-0500
_audit_creation_method            fapswitch 2.2
_symmetry_space_group_name_H-M    P1
_symmetry_Int_Tables_number       1
_space_group_crystal_system       triclinic
_cell_length_a                    10.179794
_cell_length_b                    10.910066
_cell_length_c                    16.757062
_cell_angle_alpha                 90.574607
_cell_angle_beta                  76.988359
_cell_angle_gamma                 94.973804
_cell_volume                      1806.37778105

loop_
_atom_site_label
_atom_site_type_symbol
_atom_type_description
_atom_site_fract_x
_atom_site_fract_y
_atom_site_fract_z
_atom_type_partial_charge
C1    C     C_R   0.556758 0.731689 0.491508 0.947341
C2    C     C_R   0.517112 0.496619 0.345222 0.882661
C3    C     C_R   0.462066 0.453786 0.739559 -0.093152
C4    C     C_R   0.521829 0.480549 0.258456 -0.102741
C5    C     C_R   0.561594 0.387629 0.760853 -0.307734
C6    C     C_R   0.412259 0.509517 0.226756 -0.272525
C7    C     C_R   0.540178 0.332605 0.837730 0.206944
C8    C     C_R   0.407729 0.480309 0.146290 0.202412
C9    C     C_R   0.421085 0.352588 0.896416 0.105939
C10   C     C_R   0.516222 0.423299 0.096819 0.074655
C11   C     C_R   0.316488 0.410589 0.873721 0.225429
C12   C     C_R   0.443352 0.268448 0.506524 0.939407
C13   C     C_R   0.628057 0.396942 0.127997 0.204737
C14   C     C_R   0.338247 0.461922 0.795345 -0.286816
C15   C     C_R   0.630290 0.426337 0.208683 -0.280268
C16   C     C_2   0.420278 0.343596 0.983524 -0.181222
C17   C     C_2   0.521705 0.404175 0.010101 -0.149820
C18   C     C_3   0.100816 0.311649 0.940860 -0.818706
C19   C     C_3   0.713758 0.207544 0.073207 -0.781003
C20   C     C_3   0.168059 0.453944 0.149176 -0.795388
C21   C     C_3   0.602248 0.136119 0.877824 -0.796810
C22   C     C_3   0.539074 0.117748 0.650195 -0.765518
C23   C     C_2   0.587816 0.862860 0.490105 -0.400113
C24   C     C_3   0.414739 0.899526 0.356341 -0.791464
C25   C     C_2   0.411420 0.138718 0.501149 -0.407200
C26   C     C_2   0.492112 0.936026 0.481955 0.219262
C27   C     C_2   0.496372 0.059351 0.516501 0.187477
C28   C     C_2   0.926656 0.509099 0.506060 -0.098595
C29   C     C_2   0.073087 0.490094 0.494481 -0.096839
C30   C     C_R   0.480819 0.495148 0.654813 0.878261
H1    H     H_    0.655136 0.375119 0.716828 0.170064
H2    H     H_    0.882514 0.577027 0.549122 0.142281
H3    H     H_    0.144422 0.499101 0.921301 0.224225
H4    H     H_    0.067774 0.290261 0.883014 0.243448
H5    H     H_    0.010653 0.325232 0.989933 0.246213
H6    H     H_    0.150269 0.232565 0.958577 0.239530
H7    H     H_    0.829231 0.364621 0.093995 0.213881
H8    H     H_    0.704910 0.163879 0.134054 0.231806
H9    H     H_    0.799367 0.171121 0.028853 0.237454
H10   H     H_    0.619527 0.182751 0.051706 0.262005
H11   H     H_    0.296499 0.610421 0.111961 0.223177
H12   H     H_    0.329608 0.554375 0.264566 0.170583
H13   H     H_    0.094135 0.476952 0.113208 0.247242
H14   H     H_    0.131705 0.483762 0.213361 0.222930
H15   H     H_    0.172954 0.352608 0.148161 0.243070
H16   H     H_    0.735894 0.277714 0.817572 0.219854
H17   H     H_    0.687180 0.092983 0.894734 0.237479
H18   H     H_    0.576029 0.086845 0.824516 0.235218
H19   H     H_    0.513892 0.125670 0.930625 0.245547
H20   H     H_    0.679316 0.145434 0.536739 0.250723
H21   H     H_    0.481917 0.200665 0.656362 0.241653
H22   H     H_    0.623694 0.134279 0.681761 0.231909
H23   H     H_    0.715016 0.402830 0.233015 0.172323
H24   H     H_    0.471188 0.037903 0.679952 0.242345
H25   H     H_    0.288424 0.914023 0.472960 0.219076
H26   H     H_    0.328543 0.855257 0.333039 0.234591
H27   H     H_    0.506008 0.850953 0.329954 0.241606
H28   H     H_    0.432387 0.997506 0.336257 0.230875
H29   H     H_    0.028821 0.603379 0.635278 0.162171
H30   H     H_    0.068714 0.710557 0.556766 0.166044
H31   H     H_    0.972132 0.400441 0.363944 0.164235
H32   H     H_    0.932042 0.290296 0.440599 0.160980
H33   H     H_    0.258305 0.507742 0.778147 0.165157
H34   H     H_    0.610488 0.445571 0.967114 0.170540
H35   H     H_    0.330771 0.304112 0.026366 0.178722
H36   H     H_    0.328974 0.111760 0.471789 0.125316
H37   H     H_    0.679265 0.897696 0.508986 0.142336
H38   H     H_    0.116929 0.421291 0.452033 0.141151
N1    N     N_2   0.846390 0.448330 0.467170 -0.055186
N2    N     N_3   0.895474 0.359137 0.410631 -0.371899
N3    N     N_2   0.153610 0.551670 0.532830 -0.050963
N4    N     N_2   0.191877 0.422513 0.930853 -0.297741
N5    N     N_2   0.738092 0.339646 0.078640 -0.308407
N6    N     N_2   0.299354 0.516228 0.113436 -0.292377
N7    N     N_2   0.642503 0.264649 0.857566 -0.298836
N8    N     N_2   0.593242 0.091992 0.564954 -0.311238
N9    N     N_2   0.383791 0.891090 0.444735 -0.271341
N10   N     N_3   0.105293 0.643003 0.587824 -0.364450
O1    O     O_R   0.430310 0.692580 0.506610 -0.557038
O2    O     O_R   0.569690 0.307420 0.493390 -0.592231
O3    O     O_R   0.652740 0.659410 0.485540 -0.627077
O4    O     O_R   0.347260 0.340590 0.514460 -0.624813
O5    O     O_R   0.375640 0.518570 0.627580 -0.599693
O6    O     O_R   0.624360 0.481430 0.372420 -0.601400
O7    O     O_R   0.598070 0.485390 0.606510 -0.626275
O8    O     O_R   0.401930 0.514610 0.393490 -0.621831
Zn1   Zn    Zn3+2 0.351480 0.522150 0.514070 0.971519
Zn2   Zn    Zn3+2 0.648520 0.477850 0.485930 0.954906

loop_
_geom_bond_atom_site_label_1
_geom_bond_atom_site_label_2
_ccdc_geom_bond_type
H31   N2    S    
O5    Zn1   S    
C2    O6    A    
C28   N1    D    
C22   N8    S    
O1    Zn1   S    
C22   H24   S    
H30   N10   S    
C26   C27   S    
C15   H23   S    
C28   C29   S    
C9    C16   S    
C17   H34   S    
H25   N9    S    
C11   C14   A    
C10   C17   S    
C1    O3    A    
O4    Zn1   S    
H32   N2    S    
C23   C26   D    
C23   H37   S    
C30   O5    A    
H3    N4    S    
H11   N6    S    
C24   H27   S    
C18   H5    S    
C20   H15   S    
C21   H18   S    
H29   N10   S    
C21   H19   S    
H16   N7    S    
C20   H14   S    
C18   N4    S    
C26   N9    S    
C12   O4    A    
C19   N5    S    
C4    C6    A    
C5    C7    A    
O8    Zn1   S    
C16   C17   D    
C6    C8    A    
C3    C30   S    
C2    C4    S    
C19   H8    S    
H20   N8    S    
C29   H38   S    
C9    C11   A    
C28   H2    S    
C8    N6    S    
C20   N6    S    
C30   O7    A    
C18   H4    S    
N1    Zn2   S    
C19   H9    S    
N3    Zn1   S    
C24   H28   S    
C13   N5    S    
C1    C23   S    
C13   C15   A    
C1    O1    A    
C25   C27   D    
C27   N8    S    
C20   H13   S    
C22   H22   S    
O7    Zn2   S    
C7    C9    A    
H7    N5    S    
C11   N4    S    
C25   H36   S    
O6    Zn2   S    
C29   N3    D    
C3    C5    A    
C10   C13   A    
C7    N7    S    
C3    C14   A    
C24   H26   S    
C21   N7    S    
C12   C25   S    
C4    C15   A    
O2    Zn2   S    
C14   H33   S    
C12   O2    A    
C2    O8    A    
N1    N2    S    
O3    Zn2   S    
C19   H10   S    
C24   N9    S    
C8    C10   A    
C6    H12   S    
C16   H35   S    
C5    H1    S    
C18   H6    S    
N3    N10   S    
C22   H21   S    
C21   H17   S    
