data_mof_unit_61753.cif
_audit_creation_date              2012-12-10T17:26:35-0500
_audit_creation_method            fapswitch 2.2
_symmetry_space_group_name_H-M    P1
_symmetry_Int_Tables_number       1
_space_group_crystal_system       monoclinic
_cell_length_a                    42.552142
_cell_length_b                    29.422152
_cell_length_c                    30.738666
_cell_angle_alpha                 90.0
_cell_angle_beta                  136.253063
_cell_angle_gamma                 90.0
_cell_volume                      26610.7433979

loop_
_atom_site_label
_atom_site_type_symbol
_atom_type_description
_atom_site_fract_x
_atom_site_fract_y
_atom_site_fract_z
_atom_type_partial_charge
C1    C     C_R   0.585494 0.500000 0.585944 0.825404
C2    C     C_R   0.085494 1.000000 0.585944 0.825404
C3    C     C_3   0.450484 0.499522 0.172217 -0.377760
C4    C     C_3   0.950482 0.999707 0.172216 -0.377759
C5    C     C_3   0.450481 0.499522 0.222347 -0.380890
C6    C     C_3   0.950479 0.999707 0.222346 -0.380892
C7    C     C_1   0.500008 0.500000 0.158340 -0.116721
C8    C     C_1   0.000009 1.000000 0.158340 -0.116721
C9    C     C_1   0.499998 0.500000 0.335275 -0.116963
C10   C     C_1   0.999998 0.000000 0.335275 -0.116963
C11   C     C_1   0.499994 0.500000 0.373628 -0.189596
C12   C     C_1   0.999994 0.000000 0.373628 -0.189596
C13   C     C_1   0.636539 0.500000 0.636903 -0.206758
C14   C     C_1   0.136539 1.000000 0.636903 -0.206758
C15   C     C_1   0.678860 0.500000 0.679152 0.002178
C16   C     C_1   0.178860 1.000000 0.679152 0.002178
C17   C     C_1   0.729023 0.500000 0.729233 0.003841
C18   C     C_1   0.229023 1.000000 0.729233 0.003841
C19   C     C_1   0.771344 0.500000 0.771488 0.003830
C20   C     C_1   0.271344 1.000000 0.771488 0.003830
C21   C     C_1   0.821507 0.500000 0.821581 0.003161
C22   C     C_1   0.321507 1.000000 0.821581 0.003161
C23   C     C_R   0.499989 0.500000 0.418792 0.868231
C24   C     C_R   0.999989 0.000000 0.418792 0.868231
C25   C     C_1   0.863828 0.500000 0.863858 -0.199414
C26   C     C_1   0.363828 1.000000 0.863858 -0.199414
C27   C     C_1   0.499984 0.500000 0.635288 -0.204132
C28   C     C_1   0.999984 1.000000 0.635288 -0.204132
C29   C     C_1   0.499993 0.500000 0.676681 0.012836
C30   C     C_1   0.999993 1.000000 0.676681 0.012836
C31   C     C_1   0.500005 0.500000 0.726116 0.002097
C32   C     C_1   0.000005 1.000000 0.726116 0.002097
C33   C     C_1   0.500014 0.500000 0.767510 0.002084
C34   C     C_1   0.000014 1.000000 0.767510 0.002084
C35   C     C_1   0.500025 0.500000 0.816944 0.012611
C36   C     C_1   0.000025 1.000000 0.816944 0.012611
C37   C     C_1   0.500031 0.500000 0.858333 -0.203266
C38   C     C_1   0.000031 1.000000 0.858333 -0.203266
C39   C     C_1   0.363416 0.500000 0.363770 -0.206768
C40   C     C_1   0.863416 0.000000 0.363770 -0.206768
C41   C     C_1   0.321097 0.500000 0.321383 0.002179
C42   C     C_1   0.821096 0.000000 0.321383 0.002179
C43   C     C_1   0.270936 0.500000 0.271145 0.003867
C44   C     C_1   0.770936 0.000000 0.271145 0.003867
C45   C     C_R   0.414458 0.500000 0.414897 0.825461
C46   C     C_R   0.914458 0.000000 0.414897 0.825461
C47   C     C_1   0.228617 0.500000 0.228766 0.003853
C48   C     C_1   0.728617 0.000000 0.228766 0.003853
C49   C     C_1   0.178457 0.500000 0.178541 0.003169
C50   C     C_1   0.678457 0.000000 0.178541 0.003169
C51   C     C_1   0.136138 0.500000 0.136180 -0.199426
C52   C     C_1   0.636138 0.000000 0.136180 -0.199426
C53   C     C_R   0.500033 0.585446 0.994562 0.825085
C54   C     C_R   0.500033 0.414554 0.994562 0.825083
C55   C     C_R   0.000033 0.085446 0.994562 0.825085
C56   C     C_R   0.000033 0.914554 0.994562 0.825083
C57   C     C_R   0.500018 0.500000 0.074824 0.868395
C58   C     C_R   0.000018 0.000000 0.074824 0.868395
C59   C     C_R   0.500032 0.500000 0.908670 0.812538
C60   C     C_R   0.000032 1.000000 0.908670 0.812538
C61   C     C_R   0.000015 0.414863 0.999130 0.816114
C62   C     C_R   0.000015 0.585137 0.999130 0.816115
C63   C     C_R   0.500015 0.914862 0.999130 0.816114
C64   C     C_R   0.500015 0.085137 0.999130 0.816115
C65   C     C_R   0.914873 0.500000 0.914885 0.816266
C66   C     C_R   0.414873 1.000000 0.914885 0.816266
C67   C     C_R   0.085095 0.500000 0.085119 0.816321
C68   C     C_R   0.585095 0.000000 0.085119 0.816321
C69   C     C_1   0.500047 0.636497 0.995397 -0.206999
C70   C     C_1   0.500047 0.363503 0.995397 -0.207000
C71   C     C_1   0.000047 0.136497 0.995397 -0.206999
C72   C     C_1   0.000047 0.863503 0.995397 -0.207000
C73   C     C_R   0.499975 0.500000 0.584943 0.812679
C74   C     C_R   0.999975 0.000000 0.584943 0.812679
C75   C     C_1   0.500049 0.678819 0.996119 0.002214
C76   C     C_1   0.500049 0.321180 0.996119 0.002214
C77   C     C_1   0.000049 0.178819 0.996119 0.002214
C78   C     C_1   0.000049 0.821180 0.996119 0.002214
C79   C     C_1   0.500046 0.728987 0.996977 0.003770
C80   C     C_1   0.500046 0.271013 0.996977 0.003769
C81   C     C_1   0.000046 0.228987 0.996977 0.003770
C82   C     C_1   0.000046 0.771013 0.996977 0.003769
C83   C     C_1   0.000041 0.271309 0.997674 0.003770
C84   C     C_1   0.000041 0.728690 0.997674 0.003769
C85   C     C_1   0.500041 0.771309 0.997674 0.003770
C86   C     C_1   0.500041 0.228690 0.997674 0.003769
C87   C     C_1   0.000033 0.321479 0.998423 0.003210
C88   C     C_1   0.000033 0.678521 0.998423 0.003209
C89   C     C_1   0.500033 0.821479 0.998423 0.003210
C90   C     C_1   0.500033 0.178521 0.998423 0.003209
C91   C     C_1   0.000026 0.363805 0.998907 -0.199394
C92   C     C_1   0.000026 0.636195 0.998907 -0.199394
C93   C     C_1   0.500026 0.863805 0.998907 -0.199394
C94   C     C_1   0.500026 0.136195 0.998907 -0.199394
C95   C     C_3   0.524348 0.543127 0.296221 -0.378510
C96   C     C_3   0.525176 0.457350 0.297048 -0.378564
C97   C     C_3   0.024509 0.043036 0.296382 -0.378522
C98   C     C_3   0.025016 0.957257 0.296889 -0.378554
C99   C     C_3   0.525178 0.457350 0.246918 -0.380078
C100  C     C_3   0.524351 0.543127 0.246091 -0.380131
C101  C     C_3   0.025019 0.957257 0.246759 -0.380088
C102  C     C_3   0.024512 0.043036 0.246252 -0.380121
C103  C     C_1   0.500012 0.500000 0.119988 -0.190606
C104  C     C_1   0.000012 0.000000 0.119988 -0.190606
C105  C     C_3   0.500000 0.500000 0.288840 0.333208
C106  C     C_3   0.000001 0.000000 0.288840 0.333208
C107  C     C_3   0.500005 0.500000 0.204775 0.333238
C108  C     C_3   0.000005 0.000000 0.204775 0.333238
Cu1   Cu    Cu3+1 0.499970 0.542470 0.500570 0.957553
Cu2   Cu    Cu3+1 0.499970 0.457530 0.500570 0.957553
Cu3   Cu    Cu3+1 0.999970 0.042470 0.500570 0.957552
Cu4   Cu    Cu3+1 0.999970 0.957530 0.500570 0.957553
Cu5   Cu    Cu3+1 0.542500 0.500000 0.035600 0.957514
Cu6   Cu    Cu3+1 0.042500 0.000000 0.035600 0.957514
Cu7   Cu    Cu3+1 0.457550 0.500000 0.950640 0.957582
Cu8   Cu    Cu3+1 0.957550 0.000000 0.950640 0.957582
Cu9   Cu    Cu3+1 0.999990 0.500000 0.958110 0.962696
Cu10  Cu    Cu3+1 0.499990 0.000000 0.958110 0.962696
Cu11  Cu    Cu3+1 0.999980 0.500000 0.041890 0.959200
Cu12  Cu    Cu3+1 0.499980 0.000000 0.041890 0.959200
H1    H     H_    0.559997 0.544168 0.269614 0.166909
H2    H     H_    0.560837 0.456998 0.270455 0.166929
H3    H     H_    0.060161 0.043943 0.269779 0.166913
H4    H     H_    0.060676 0.956771 0.270294 0.166925
H5    H     H_    0.559993 0.544167 0.343994 0.165823
H6    H     H_    0.560833 0.456998 0.344835 0.165803
H7    H     H_    0.060157 0.043943 0.344158 0.165819
H8    H     H_    0.060673 0.956771 0.344674 0.165807
H9    H     H_    0.508257 0.425959 0.217870 0.165626
H10   H     H_    0.506827 0.574186 0.216441 0.165634
H11   H     H_    0.007981 0.925929 0.217594 0.165627
H12   H     H_    0.007104 0.074160 0.216717 0.165632
H13   H     H_    0.431757 0.529873 0.215747 0.166174
H14   H     H_    0.432346 0.468816 0.216336 0.166203
H15   H     H_    0.931869 0.030128 0.215859 0.166181
H16   H     H_    0.932230 0.969068 0.216220 0.166198
H17   H     H_    0.431761 0.529873 0.141368 0.166558
H18   H     H_    0.432350 0.468816 0.141957 0.166530
H19   H     H_    0.931873 0.030128 0.141480 0.166552
H20   H     H_    0.932234 0.969068 0.141841 0.166535
O1    O     O_R   0.561950 0.535860 0.562460 -0.561744
O2    O     O_R   0.561950 0.464140 0.562460 -0.561743
O3    O     O_R   0.061950 0.035860 0.562460 -0.561744
O4    O     O_R   0.061950 0.964140 0.562460 -0.561743
O5    O     O_R   0.464160 0.500000 0.896130 -0.558529
O6    O     O_R   0.964160 0.000000 0.896130 -0.558529
O7    O     O_R   0.000010 0.438010 0.963800 -0.558045
O8    O     O_R   0.000010 0.561990 0.963800 -0.558046
O9    O     O_R   0.500010 0.938010 0.963800 -0.558045
O10   O     O_R   0.500010 0.061990 0.963800 -0.558046
O11   O     O_R   0.000000 0.438000 0.034540 -0.559161
O12   O     O_R   0.000000 0.562000 0.034540 -0.559161
O13   O     O_R   0.500000 0.938000 0.034540 -0.559160
O14   O     O_R   0.500000 0.062000 0.034540 -0.559161
O15   O     O_R   0.938010 0.500000 0.902650 -0.558214
O16   O     O_R   0.438010 0.000000 0.902650 -0.558214
O17   O     O_R   0.938010 0.500000 0.973390 -0.559068
O18   O     O_R   0.438010 0.000000 0.973390 -0.559068
O19   O     O_R   0.061960 0.500000 0.026610 -0.558134
O20   O     O_R   0.561960 0.000000 0.026610 -0.558134
O21   O     O_R   0.061960 0.500000 0.097350 -0.559038
O22   O     O_R   0.561960 0.000000 0.097350 -0.559038
O23   O     O_R   0.499980 0.535870 0.439370 -0.577638
O24   O     O_R   0.499980 0.464130 0.439370 -0.577638
O25   O     O_R   0.999980 0.035870 0.439370 -0.577638
O26   O     O_R   0.999980 0.964130 0.439370 -0.577638
O27   O     O_R   0.438000 0.535860 0.438500 -0.561745
O28   O     O_R   0.438000 0.464140 0.438500 -0.561745
O29   O     O_R   0.938000 0.035860 0.438500 -0.561745
O30   O     O_R   0.938000 0.964140 0.438500 -0.561745
O31   O     O_R   0.499970 0.535850 0.561590 -0.557395
O32   O     O_R   0.499970 0.464150 0.561590 -0.557395
O33   O     O_R   0.999970 0.035850 0.561590 -0.557395
O34   O     O_R   0.999970 0.964150 0.561590 -0.557395
O35   O     O_R   0.535890 0.561890 0.029840 -0.561492
O36   O     O_R   0.535890 0.438110 0.029840 -0.561491
O37   O     O_R   0.035890 0.061890 0.029840 -0.561492
O38   O     O_R   0.035890 0.938110 0.029840 -0.561491
O39   O     O_R   0.464160 0.561920 0.958100 -0.561590
O40   O     O_R   0.464160 0.438080 0.958100 -0.561589
O41   O     O_R   0.964160 0.061920 0.958100 -0.561590
O42   O     O_R   0.964160 0.938080 0.958100 -0.561589
O43   O     O_R   0.535890 0.500000 0.090110 -0.576346
O44   O     O_R   0.035890 0.000000 0.090110 -0.576346
O45   O     O_R   0.464150 0.500000 0.018360 -0.576392
O46   O     O_R   0.964150 0.000000 0.018360 -0.576392
O47   O     O_R   0.535900 0.500000 0.967880 -0.558510
O48   O     O_R   0.035900 0.000000 0.967880 -0.558510
H21   H     H_    0.508253 0.425959 0.292250 0.167085
H22   H     H_    0.506823 0.574186 0.290820 0.167076
H23   H     H_    0.007977 0.925929 0.291974 0.167084
H24   H     H_    0.007100 0.074160 0.291097 0.167079

loop_
_geom_bond_atom_site_label_1
_geom_bond_atom_site_label_2
_ccdc_geom_bond_type
Cu4   O34   S    
C96   C105  S    
C87   C91   T    
C78   C82   S    
Cu9   O19   S    
C2    O4    A    
C38   C60   S    
Cu10  O20   S    
Cu3   Cu4   S    
C8    C104  T    
C66   O18   A    
C97   H7    S    
C28   C74   S    
Cu11  O21   S    
C39   C41   T    
C5    C105  S    
C40   C46   S    
C4    C108  S    
C75   C79   S    
C60   O6    A    
Cu9   O8    S    
C35   C37   T    
C102  H12   S    
C74   O34   A    
Cu9   Cu11  S    
Cu7   O45   S    
C100  H10   S    
Cu12  O22   S    
C7    C103  T    
C58   O46   A    
C9    C105  S    
Cu5   O47   S    
C96   C99   S    
C64   O14   A    
Cu6   O48   S    
C27   C29   T    
C18   C20   T    
C58   O44   A    
C100  H1    S    
C11   C23   S    
Cu10  O10   S    
C67   O21   A    
C63   O9    A    
C6    H16   S    
C1    O2    A    
Cu1   O27   S    
C95   H22   S    
C33   C35   S    
C10   C12   T    
Cu2   O28   S    
C97   H24   S    
Cu4   O30   S    
C88   C92   T    
C56   C72   S    
Cu8   O42   S    
Cu9   O15   S    
C80   C86   T    
C31   C33   T    
Cu10  O16   S    
C3    H17   S    
C73   O31   A    
C95   C105  S    
C57   O45   A    
C97   C102  S    
C52   C68   S    
Cu3   O3    S    
C54   O36   A    
C39   C45   S    
C101  C108  S    
C98   H8    S    
C53   C69   S    
C60   O48   A    
C62   O8    A    
Cu12  O18   S    
C2    O3    A    
C41   C43   S    
C9    C11   T    
C42   C44   S    
C8    C108  S    
C81   C83   T    
C90   C94   T    
C23   O23   A    
Cu11  O11   S    
C5    H14   S    
C57   C103  S    
C101  H4    S    
C99   H9    S    
C26   C66   S    
C53   O39   A    
C84   C88   S    
C25   C65   S    
C63   O13   A    
C74   O33   A    
C4    C6    S    
C86   C90   S    
Cu2   O24   S    
C95   C100  S    
Cu1   O1    S    
C56   O38   A    
C59   O47   A    
C49   C51   T    
C55   O37   A    
Cu8   O46   S    
Cu7   O39   S    
C46   O30   A    
C62   C92   S    
Cu3   O29   S    
C32   C34   T    
C96   H21   S    
Cu10  O9    S    
C24   O26   A    
C6    H15   S    
C64   O10   A    
C30   C32   S    
C4    H20   S    
Cu2   O2    S    
C95   H5    S    
C50   C52   T    
C54   C70   S    
C77   C81   S    
Cu11  O17   S    
Cu6   O37   S    
Cu4   O26   S    
Cu8   O41   S    
Cu12  O14   S    
C55   O41   A    
C96   H6    S    
C3    H18   S    
C51   C67   S    
C73   O32   A    
C102  C108  S    
C61   O11   A    
C37   C59   S    
C62   O12   A    
Cu5   O36   S    
Cu3   O25   S    
C97   C106  S    
C59   O5    A    
C65   O17   A    
C20   C22   S    
C82   C84   T    
C45   O27   A    
Cu1   O23   S    
C7    C107  S    
C10   C106  S    
C1    C13   S    
C70   C76   T    
C102  H3    S    
C101  H11   S    
C71   C77   T    
C53   O35   A    
C23   O24   A    
Cu11  O12   S    
C15   C17   S    
C21   C25   T    
C100  C107  S    
C85   C89   S    
C19   C21   S    
Cu3   O33   S    
C99   H2    S    
C16   C18   S    
Cu6   O38   S    
C76   C80   S    
C98   H23   S    
C3    C5    S    
C83   C87   S    
Cu7   O40   S    
Cu6   Cu8   S    
C68   O22   A    
C5    H13   S    
C47   C49   S    
C98   C101  S    
C99   C107  S    
Cu7   O5    S    
C98   C106  S    
C46   O29   A    
Cu5   O35   S    
Cu9   O7    S    
C3    C107  S    
Cu4   O4    S    
C13   C15   T    
C24   O25   A    
C61   O7    A    
C64   C94   S    
C28   C30   T    
C65   O15   A    
C44   C48   T    
C27   C73   S    
Cu1   Cu2   S    
C36   C38   T    
C66   O16   A    
Cu8   O6    S    
C57   O43   A    
Cu5   O43   S    
C56   O42   A    
Cu6   O44   S    
C48   C50   S    
Cu12  O13   S    
C17   C19   T    
C79   C85   T    
C54   O40   A    
C69   C75   T    
C14   C16   T    
C89   C93   T    
C12   C24   S    
C2    C14   S    
C45   O28   A    
Cu10  Cu12  S    
C1    O1    A    
C61   C91   S    
C58   C104  S    
C34   C36   S    
C29   C31   S    
C22   C26   T    
C72   C78   T    
C40   C42   T    
C67   O19   A    
Cu5   Cu7   S    
C63   C93   S    
C68   O20   A    
C43   C47   T    
C55   C71   S    
Cu1   O31   S    
C6    C106  S    
C4    H19   S    
Cu2   O32   S    
