data_mof_unit_60248.cif
_audit_creation_date              2012-12-10T17:07:15-0500
_audit_creation_method            fapswitch 2.2
_symmetry_space_group_name_H-M    P1
_symmetry_Int_Tables_number       1
_space_group_crystal_system       triclinic
_cell_length_a                    10.041479
_cell_length_b                    10.749138
_cell_length_c                    13.627084
_cell_angle_alpha                 90.148783
_cell_angle_beta                  83.158599
_cell_angle_gamma                 90.375962
_cell_volume                      1460.36295702

loop_
_atom_site_label
_atom_site_type_symbol
_atom_type_description
_atom_site_fract_x
_atom_site_fract_y
_atom_site_fract_z
_atom_type_partial_charge
C1    C     C_R   0.501147 0.737093 0.496580 0.928312
C2    C     C_R   0.498859 0.262808 0.505150 0.882975
C3    C     C_R   0.523850 0.499837 0.314368 0.896849
C4    C     C_1   0.541781 0.499283 0.210625 -0.169013
C5    C     C_2   0.557632 0.498357 0.018999 -0.158150
C6    C     C_2   0.442077 0.498392 0.981038 -0.153833
C7    C     C_1   0.446197 0.498908 0.877166 0.014661
C8    C     C_1   0.553573 0.498787 0.122862 0.014996
C9    C     C_1   0.377280 0.082904 0.584644 0.198233
C10   C     C_1   0.156811 0.337788 0.380232 0.266297
C11   C     C_1   0.458107 0.499439 0.789397 -0.169092
C12   C     C_2   0.607803 0.066896 0.499531 -0.212304
C13   C     C_2   0.495976 0.132688 0.525809 -0.147697
C14   C     C_2   0.609875 0.933455 0.507269 -0.164420
C15   C     C_2   0.504821 0.868096 0.484408 -0.309121
C16   C     C_2   0.082709 0.423547 0.447001 0.006046
C17   C     C_2   0.931727 0.417627 0.453507 -0.167090
C18   C     C_R   0.476130 0.499989 0.685641 0.895280
H1    H     H_    0.345918 0.498438 0.027142 0.163355
H2    H     H_    0.893763 0.574824 0.529562 0.164227
H3    H     H_    0.653788 0.498439 0.972893 0.161765
H4    H     H_    0.700071 0.111233 0.466738 0.172096
H5    H     H_    0.699255 0.889629 0.528660 0.179935
H6    H     H_    0.419546 0.911483 0.456375 0.162720
H7    H     H_    0.094219 0.553847 0.550802 0.155866
H8    H     H_    0.887099 0.342044 0.415419 0.161801
N1    N     N_2   0.147970 0.498670 0.498970 -0.210524
N2    N     N_2   0.852310 0.498640 0.498940 -0.190675
N3    N     N_1   0.282747 0.043624 0.631564 -0.201503
N4    N     N_1   0.215930 0.268730 0.326462 -0.218552
O1    O     O_R   0.386960 0.680940 0.500020 -0.612572
O2    O     O_R   0.613100 0.680900 0.499980 -0.616769
O3    O     O_R   0.370650 0.500000 0.640370 -0.607244
O4    O     O_R   0.596800 0.499960 0.640330 -0.602623
O5    O     O_R   0.386900 0.319100 0.500020 -0.605174
O6    O     O_R   0.613040 0.319060 0.499980 -0.618717
O7    O     O_R   0.403200 0.500040 0.359670 -0.601975
O8    O     O_R   0.629350 0.500000 0.359630 -0.604450
Zn1   Zn    Zn3+2 0.349000 0.500030 0.500020 0.965702
Zn2   Zn    Zn3+2 0.651000 0.499970 0.499980 0.950381

loop_
_geom_bond_atom_site_label_1
_geom_bond_atom_site_label_2
_ccdc_geom_bond_type
C2    O5    A    
C14   H5    S    
C5    C8    S    
O5    Zn1   S    
C11   C18   S    
C6    C7    S    
C1    C15   S    
H7    N1    S    
C10   N4    T    
C9    N3    T    
C4    C8    T    
C16   N1    D    
O7    Zn1   S    
C10   C16   S    
C7    C11   T    
C6    H1    S    
C18   O4    A    
O3    Zn1   S    
O4    Zn2   S    
C17   H8    S    
C15   H6    S    
O8    Zn2   S    
C12   C14   S    
O2    Zn2   S    
C5    C6    D    
C18   O3    A    
N2    Zn2   S    
N1    Zn1   S    
C3    C4    S    
C12   H4    S    
C1    O1    A    
C5    H3    S    
C12   C13   D    
C3    O7    A    
C2    O6    A    
C2    C13   S    
C9    C13   S    
C14   C15   D    
O6    Zn2   S    
H2    N2    S    
C17   N2    D    
C1    O2    A    
C3    O8    A    
O1    Zn1   S    
C16   C17   S    
