data_mof_unit_41194.cif
_audit_creation_date              2012-12-11T16:13:01-0500
_audit_creation_method            fapswitch 2.2
_symmetry_space_group_name_H-M    P1
_symmetry_Int_Tables_number       1
_space_group_crystal_system       triclinic
_cell_length_a                    23.588876
_cell_length_b                    13.61075
_cell_length_c                    28.360574
_cell_angle_alpha                 90.007491
_cell_angle_beta                  89.927508
_cell_angle_gamma                 90.033095
_cell_volume                      9105.50206412

loop_
_atom_site_label
_atom_site_type_symbol
_atom_type_description
_atom_site_fract_x
_atom_site_fract_y
_atom_site_fract_z
_atom_type_partial_charge
C1    C     C_R   0.284231 0.006660 0.815687 0.526367
C2    C     C_3   0.490169 0.729582 0.973745 0.037193
C3    C     C_R   0.204653 0.030916 0.527327 0.253476
C4    C     C_R   0.299573 0.540134 0.521799 0.300209
C5    C     C_R   0.700381 0.540109 0.478196 0.300270
C6    C     C_R   0.799572 0.040153 0.521796 0.300241
C7    C     C_R   0.200364 0.040170 0.478201 0.300285
C8    C     C_R   0.263440 0.605920 0.545589 -0.061374
C9    C     C_R   0.736561 0.605874 0.454403 -0.061360
C10   C     C_R   0.763433 0.105926 0.545588 -0.061381
C11   C     C_R   0.236560 0.105906 0.454408 -0.061351
C12   C     C_R   0.255846 0.589046 0.447861 -0.017597
C13   C     C_3   0.007648 0.229191 0.026596 0.030512
C14   C     C_R   0.744194 0.588964 0.552129 -0.017600
C15   C     C_R   0.755844 0.089064 0.447859 -0.017622
C16   C     C_R   0.244186 0.088993 0.552134 -0.017621
C17   C     C_1   0.245100 0.569329 0.399210 0.006452
C18   C     C_1   0.754934 0.569258 0.600780 0.006456
C19   C     C_1   0.745097 0.069341 0.399209 0.006386
C20   C     C_1   0.254930 0.069271 0.600784 0.006390
C21   C     C_1   0.265293 0.617065 0.595575 -0.018142
C22   C     C_1   0.734689 0.617039 0.404418 -0.018177
C23   C     C_1   0.765291 0.117069 0.595574 -0.018119
C24   C     C_3   0.990163 0.229577 0.973744 0.037191
C25   C     C_1   0.234688 0.117064 0.404423 -0.018118
C26   C     C_1   0.233166 0.545694 0.359833 0.005922
C27   C     C_1   0.766855 0.545653 0.640160 0.006005
C28   C     C_1   0.733164 0.045699 0.359832 0.005904
C29   C     C_1   0.266854 0.045658 0.640162 0.005983
C30   C     C_R   0.284619 0.007397 0.684230 0.542405
C31   C     C_R   0.715382 0.007392 0.315768 0.542000
C32   C     C_R   0.784619 0.507397 0.684230 0.542400
C33   C     C_R   0.215383 0.507392 0.315768 0.541993
C34   C     C_R   0.446065 0.825229 0.684581 0.541821
C35   C     C_1   0.515452 0.835771 0.097504 0.102839
C36   C     C_R   0.553936 0.825206 0.315419 0.541684
C37   C     C_R   0.946064 0.325229 0.684581 0.541821
C38   C     C_R   0.053936 0.325206 0.315419 0.541676
C39   C     C_R   0.274609 0.674465 0.682861 0.545901
C40   C     C_R   0.725384 0.674447 0.317138 0.546052
C41   C     C_R   0.774609 0.174466 0.682861 0.545904
C42   C     C_R   0.225384 0.174449 0.317139 0.546051
C43   C     C_3   0.440579 0.893462 0.977827 0.560522
C44   C     C_3   0.559001 0.891604 0.022532 0.561621
C45   C     C_3   0.940579 0.393462 0.977826 0.560530
C46   C     C_1   0.483905 0.835809 0.902766 0.107640
C47   C     C_3   0.059001 0.391587 0.022535 0.561613
C48   C     C_3   0.549049 0.894898 0.967230 0.640376
C49   C     C_3   0.450619 0.896535 0.033117 0.644125
C50   C     C_3   0.049050 0.394888 0.967233 0.640338
C51   C     C_3   0.950618 0.396533 0.033117 0.644123
C52   C     C_1   0.528959 0.831601 0.138179 0.006969
C53   C     C_1   0.470783 0.831534 0.861984 0.012111
C54   C     C_1   0.028960 0.331599 0.138179 0.007033
C55   C     C_1   0.970784 0.331533 0.861984 0.012096
C56   C     C_3   0.130880 0.675254 0.444453 0.025331
C57   C     C_1   0.015450 0.335763 0.097504 0.102909
C58   C     C_3   0.093669 0.707374 0.485738 -0.359105
C59   C     C_3   0.869246 0.675017 0.555513 0.025174
C60   C     C_3   0.906470 0.707025 0.514209 -0.359380
C61   C     C_3   0.630866 0.175241 0.444455 0.025336
C62   C     C_3   0.593659 0.207332 0.485748 -0.359149
C63   C     C_3   0.369261 0.174980 0.555510 0.025201
C64   C     C_3   0.406486 0.206999 0.514207 -0.359367
C65   C     C_3   0.373524 0.499253 0.428082 -0.008699
C66   C     C_3   0.405488 0.419050 0.401854 -0.364650
C67   C     C_3   0.626442 0.499287 0.571936 -0.008763
C68   C     C_1   0.983906 0.335807 0.902766 0.107632
C69   C     C_3   0.594333 0.419070 0.598064 -0.364509
C70   C     C_3   0.873519 0.999366 0.428051 -0.008656
C71   C     C_3   0.905585 0.919145 0.401921 -0.364664
C72   C     C_3   0.126432 0.999423 0.571979 -0.008679
C73   C     C_3   0.094236 0.919179 0.598017 -0.364451
C74   C     C_3   0.385261 0.537327 0.559451 0.003532
C75   C     C_3   0.437126 0.471125 0.561553 -0.371401
C76   C     C_3   0.614671 0.537344 0.440572 0.003443
C77   C     C_3   0.562752 0.471168 0.438494 -0.371699
C78   C     C_3   0.885267 0.037350 0.559435 0.003584
C79   C     C_1   0.263268 0.627529 0.859550 0.030381
C80   C     C_3   0.937140 0.971161 0.561489 -0.371436
C81   C     C_3   0.114628 0.037471 0.440628 0.003517
C82   C     C_3   0.062724 0.971260 0.438482 -0.371601
C83   C     C_3   0.627020 0.786136 0.943106 0.028547
C84   C     C_3   0.632904 0.735444 0.895495 -0.340883
C85   C     C_3   0.371511 0.790381 0.057334 0.031005
C86   C     C_3   0.364924 0.740796 0.105120 -0.341271
C87   C     C_3   0.127016 0.286118 0.943106 0.028525
C88   C     C_3   0.132893 0.235428 0.895495 -0.340873
C89   C     C_3   0.871505 0.290389 0.057333 0.031003
C90   C     C_1   0.736910 0.626904 0.140582 0.028596
C91   C     C_3   0.864915 0.240804 0.105118 -0.341273
C92   C     C_3   0.648316 0.894124 0.060762 -0.000112
C93   C     C_3   0.696834 0.827112 0.073177 -0.344305
C94   C     C_3   0.353822 0.894060 0.935686 0.005148
C95   C     C_3   0.308777 0.823621 0.919150 -0.346829
C96   C     C_3   0.148349 0.394139 0.060710 -0.000177
C97   C     C_3   0.196906 0.327167 0.073073 -0.344264
C98   C     C_3   0.853827 0.394061 0.935678 0.005155
C99   C     C_3   0.808790 0.323616 0.919135 -0.346832
C100  C     C_3   0.499151 0.572771 0.940050 -0.028415
C101  C     C_1   0.763268 0.127527 0.859550 0.030378
C102  C     C_3   0.543516 0.500068 0.922966 -0.336977
C103  C     C_3   0.502784 0.588688 0.074785 -0.026073
C104  C     C_3   0.461662 0.518602 0.098777 -0.340423
C105  C     C_3   0.999140 0.072765 0.940049 -0.028421
C106  C     C_3   0.043503 0.000058 0.922966 -0.336970
C107  C     C_3   0.002766 0.088678 0.074785 -0.026080
C108  C     C_3   0.961639 0.018598 0.098774 -0.340437
C109  C     C_3   0.134257 0.689664 0.065498 0.045315
C110  C     C_3   0.088612 0.714097 0.029270 -0.246529
C111  C     C_3   0.865267 0.691352 0.934366 0.046512
C112  C     C_R   0.715722 0.006506 0.184273 0.527898
C113  C     C_1   0.236909 0.126903 0.140582 0.028603
C114  C     C_3   0.911134 0.717065 0.970203 -0.246219
C115  C     C_3   0.634265 0.189686 0.065498 0.045330
C116  C     C_3   0.588625 0.214129 0.029268 -0.246524
C117  C     C_3   0.365267 0.191348 0.934365 0.046528
C118  C     C_3   0.411139 0.217076 0.970197 -0.246195
C119  C     C_R   0.284895 0.520517 0.973785 0.360629
C120  C     C_R   0.717010 0.517158 0.026575 0.359286
C121  C     C_R   0.784878 0.020487 0.973783 0.360649
C122  C     C_R   0.217010 0.017152 0.026576 0.359290
C123  C     C_R   0.284696 0.516804 0.023084 0.350457
C124  C     C_R   0.717233 0.513400 0.977267 0.347890
C125  C     C_R   0.784678 0.016768 0.023081 0.350525
C126  C     C_R   0.217231 0.013397 0.977268 0.347884
C127  C     C_R   0.216251 0.650639 0.025640 0.222125
C128  C     C_R   0.784231 0.506661 0.815686 0.526367
C129  C     C_R   0.783938 0.649924 0.974652 0.219835
C130  C     C_R   0.716256 0.150639 0.025640 0.222136
C131  C     C_R   0.283941 0.149915 0.974653 0.219789
C132  C     C_R   0.216326 0.653165 0.976182 0.338969
C133  C     C_R   0.784231 0.651956 0.024128 0.338252
C134  C     C_R   0.716331 0.153168 0.976182 0.338985
C135  C     C_R   0.284237 0.151941 0.024130 0.338241
C136  C     C_R   0.250418 0.588209 0.950168 -0.053793
C137  C     C_R   0.750647 0.586222 0.050171 -0.049050
C138  C     C_R   0.750414 0.088201 0.950167 -0.053783
C139  C     C_R   0.215721 0.506505 0.184272 0.527923
C140  C     C_R   0.250650 0.086210 0.050172 -0.049025
C141  C     C_R   0.250763 0.581893 0.049229 -0.112180
C142  C     C_R   0.749861 0.580418 0.951067 -0.111190
C143  C     C_R   0.750759 0.081877 0.049227 -0.112186
C144  C     C_R   0.249861 0.080414 0.951068 -0.111180
C145  C     C_R   0.446184 0.824169 0.816361 0.527673
C146  C     C_R   0.553807 0.824155 0.183670 0.528185
C147  C     C_R   0.946184 0.324169 0.816361 0.527669
C148  C     C_R   0.053807 0.324155 0.183670 0.528200
C149  C     C_1   0.244234 0.566304 0.099251 -0.002073
C150  C     C_3   0.492360 0.837794 0.953988 -0.014753
C151  C     C_1   0.756025 0.565621 0.900930 0.001169
C152  C     C_1   0.744232 0.066294 0.099250 -0.002044
C153  C     C_1   0.256025 0.065619 0.900931 0.001168
C154  C     C_1   0.256268 0.602878 0.900014 0.081060
C155  C     C_1   0.744319 0.601473 0.100265 0.079856
C156  C     C_1   0.756266 0.102874 0.900013 0.081048
C157  C     C_1   0.244320 0.101465 0.100266 0.079852
C158  C     C_1   0.233923 0.544005 0.139494 -0.010759
C159  C     C_1   0.766137 0.543890 0.860572 -0.009092
C160  C     C_1   0.733922 0.044003 0.139494 -0.010747
C161  C     C_3   0.506666 0.837550 0.046363 -0.014537
C162  C     C_1   0.266138 0.043889 0.860572 -0.009101
C163  C     C_1   0.471263 0.833431 0.639172 0.004601
C164  C     C_1   0.528753 0.833386 0.360834 0.004425
C165  C     C_1   0.971261 0.333434 0.639171 0.004596
C166  C     C_1   0.028750 0.333389 0.360833 0.004416
C167  C     C_R   0.498125 0.750213 0.524499 -0.209531
C168  C     C_R   0.501838 0.750204 0.475508 -0.209536
C169  C     C_R   0.998103 0.250224 0.524495 -0.209555
C170  C     C_R   0.001814 0.250217 0.475505 -0.209558
C171  C     C_R   0.502085 0.928659 0.475426 0.412976
C172  C     C_3   0.992359 0.337790 0.953989 -0.014742
C173  C     C_R   0.498063 0.928668 0.524593 0.412999
C174  C     C_R   0.002093 0.428671 0.475425 0.412985
C175  C     C_R   0.998070 0.428678 0.524593 0.413015
C176  C     C_R   0.496310 0.839254 0.549079 -0.002124
C177  C     C_R   0.503739 0.839236 0.450933 -0.002127
C178  C     C_R   0.996304 0.339263 0.549077 -0.002129
C179  C     C_R   0.003731 0.339249 0.450931 -0.002127
C180  C     C_1   0.514339 0.837604 0.401325 0.003234
C181  C     C_1   0.485694 0.837644 0.598684 0.003323
C182  C     C_1   0.014333 0.337612 0.401324 0.003226
C183  C     C_3   0.006663 0.337540 0.046364 -0.014504
C184  C     C_1   0.985690 0.337651 0.598683 0.003321
C185  C     C_1   0.267932 0.636541 0.636646 0.004437
C186  C     C_1   0.732047 0.636525 0.363350 0.004349
C187  C     C_1   0.767932 0.136544 0.636645 0.004450
C188  C     C_1   0.232045 0.136538 0.363353 0.004400
C189  C     C_R   0.226774 0.666931 0.520434 -0.138518
C190  C     C_R   0.773303 0.666838 0.479557 -0.138455
C191  C     C_R   0.726762 0.166929 0.520434 -0.138511
C192  C     C_R   0.273314 0.166847 0.479562 -0.138450
C193  C     C_R   0.273935 0.672619 0.814634 0.533042
C194  C     C_3   0.507656 0.729201 0.026596 0.030515
C195  C     C_R   0.726040 0.672654 0.185332 0.534732
C196  C     C_R   0.773935 0.172619 0.814634 0.533042
C197  C     C_R   0.226039 0.172656 0.185331 0.534759
C198  C     C_R   0.221772 0.657540 0.471712 0.241278
C199  C     C_R   0.778326 0.657426 0.528275 0.241412
C200  C     C_R   0.721760 0.157542 0.471712 0.241306
C201  C     C_R   0.278334 0.157433 0.528280 0.241435
C202  C     C_R   0.295294 0.530897 0.472671 0.253513
C203  C     C_R   0.704677 0.530857 0.527322 0.253502
C204  C     C_R   0.795301 0.030930 0.472668 0.253511
Cr1   Cr    Cr6+3 0.250680 0.837130 0.748990 1.049270
Cr2   Cr    Cr6+3 0.623910 0.707720 0.250330 1.028120
Cr3   Cr    Cr6+3 0.876090 0.207720 0.749670 1.031230
Cr4   Cr    Cr6+3 0.123910 0.207720 0.250330 1.028151
Cr5   Cr    Cr6+3 0.749320 0.837130 0.251010 1.049052
Cr6   Cr    Cr6+3 0.750680 0.337130 0.748990 1.049251
Cr7   Cr    Cr6+3 0.249320 0.337130 0.251010 1.049033
Cr8   Cr    Cr6+3 0.378160 0.960100 0.750430 1.049278
Cr9   Cr    Cr6+3 0.621840 0.960100 0.249570 1.050493
Cr10  Cr    Cr6+3 0.878160 0.460100 0.750430 1.049279
Cr11  Cr    Cr6+3 0.121840 0.460100 0.249570 1.050509
Cr12  Cr    Cr6+3 0.376090 0.707720 0.749670 1.031233
F1    F     F_    0.461520 0.994369 0.043488 -0.504839
F2    F     F_    0.495400 0.015269 0.548243 -0.647488
F3    F     F_    0.004866 0.515264 0.451783 -0.647547
F4    F     F_    0.995422 0.515278 0.548244 -0.647450
F5    F     F_    0.438640 0.990310 0.961425 -0.591766
F6    F     F_    0.561609 0.988274 0.039146 -0.593273
F7    F     F_    0.938643 0.490310 0.961425 -0.591766
F8    F     F_    0.061610 0.488253 0.039155 -0.593301
F9    F     F_    0.319327 0.459206 0.949144 -0.582458
F10   F     F_    0.683412 0.454476 0.051243 -0.581649
F11   F     F_    0.819299 0.959160 0.949139 -0.582432
F12   F     F_    0.539193 0.993033 0.956851 -0.507848
F13   F     F_    0.183409 0.954474 0.051243 -0.581633
F14   F     F_    0.317275 0.449040 0.045393 -0.572564
F15   F     F_    0.686150 0.443481 0.954981 -0.572382
F16   F     F_    0.817240 0.948979 0.045389 -0.572474
F17   F     F_    0.186144 0.943485 0.954981 -0.572390
F18   F     F_    0.961522 0.494366 0.043488 -0.504847
F19   F     F_    0.039197 0.493026 0.956857 -0.507867
F20   F     F_    0.185067 0.722293 0.953467 -0.567205
F21   F     F_    0.815171 0.721604 0.046842 -0.571582
F22   F     F_    0.685080 0.222309 0.953468 -0.567208
F23   F     F_    0.315181 0.221583 0.046844 -0.571633
F24   F     F_    0.504843 0.015252 0.451782 -0.647560
H1    H     H_    0.496054 0.680913 0.543179 0.118102
H2    H     H_    0.552200 0.702525 0.027885 0.179486
H3    H     H_    0.283466 0.800036 0.949962 0.223044
H4    H     H_    0.280457 0.858208 0.892908 0.163831
H5    H     H_    0.329983 0.759414 0.902838 0.139648
H6    H     H_    0.128897 0.420722 0.094128 0.175267
H7    H     H_    0.164697 0.456337 0.039464 0.178004
H8    H     H_    0.219466 0.307259 0.040214 0.218982
H9    H     H_    0.226848 0.362970 0.097680 0.177328
H10   H     H_    0.179291 0.260611 0.090029 0.142367
H11   H     H_    0.876791 0.421694 0.904076 0.173909
H12   H     H_    0.833695 0.455472 0.954860 0.178177
H13   H     H_    0.945344 0.204362 0.971417 0.184077
H14   H     H_    0.783475 0.300021 0.949943 0.223058
H15   H     H_    0.780471 0.358202 0.892891 0.163816
H16   H     H_    0.830001 0.259414 0.902822 0.139632
H17   H     H_    0.465384 0.579141 0.912869 0.166052
H18   H     H_    0.480326 0.543434 0.973199 0.171514
H19   H     H_    0.577189 0.492112 0.950006 0.222911
H20   H     H_    0.523551 0.427273 0.916844 0.124499
H21   H     H_    0.562781 0.526336 0.889509 0.169016
H22   H     H_    0.532090 0.619140 0.101819 0.157105
H23   H     H_    0.527594 0.546058 0.048356 0.155775
H24   H     H_    0.052191 0.202508 0.027886 0.179503
H25   H     H_    0.431263 0.488788 0.072536 0.222719
H26   H     H_    0.485425 0.456694 0.114840 0.120283
H27   H     H_    0.437852 0.557486 0.126924 0.154115
H28   H     H_    0.965375 0.079140 0.912868 0.166037
H29   H     H_    0.980314 0.043430 0.973198 0.171500
H30   H     H_    0.077176 0.992099 0.950006 0.222918
H31   H     H_    0.023536 0.927265 0.916844 0.124492
H32   H     H_    0.062769 0.026323 0.889509 0.169016
H33   H     H_    0.032072 0.119125 0.101820 0.157113
H34   H     H_    0.027576 0.046045 0.048357 0.155778
H35   H     H_    0.131832 0.593386 0.442028 0.151949
H36   H     H_    0.931239 0.988793 0.072532 0.222693
H37   H     H_    0.985398 0.956685 0.114836 0.120295
H38   H     H_    0.937831 0.057484 0.126922 0.154107
H39   H     H_    0.123588 0.728839 0.098684 0.162040
H40   H     H_    0.133268 0.609990 0.074164 0.144354
H41   H     H_    0.094034 0.668144 0.997271 0.253698
H42   H     H_    0.046069 0.698805 0.044405 0.157431
H43   H     H_    0.090993 0.792983 0.019414 0.202941
H44   H     H_    0.875197 0.730765 0.901087 0.161765
H45   H     H_    0.866868 0.611697 0.925719 0.144411
H46   H     H_    0.110732 0.701704 0.411444 0.168183
H47   H     H_    0.906399 0.671187 0.002300 0.254707
H48   H     H_    0.953611 0.702678 0.954753 0.151047
H49   H     H_    0.908301 0.795948 0.979975 0.207714
H50   H     H_    0.623599 0.228868 0.098683 0.162037
H51   H     H_    0.633269 0.110013 0.074165 0.144348
H52   H     H_    0.594042 0.168169 0.997270 0.253691
H53   H     H_    0.546079 0.198852 0.044403 0.157387
H54   H     H_    0.591013 0.293013 0.019409 0.202972
H55   H     H_    0.375191 0.230754 0.901082 0.161753
H56   H     H_    0.366869 0.111690 0.925722 0.144430
H57   H     H_    0.098642 0.787344 0.492046 0.181642
H58   H     H_    0.406409 0.171206 0.002298 0.254722
H59   H     H_    0.453615 0.202689 0.954743 0.151037
H60   H     H_    0.408306 0.295962 0.979964 0.207711
H61   H     H_    0.048525 0.691649 0.477739 0.172984
H62   H     H_    0.105466 0.666682 0.518169 0.162187
H63   H     H_    0.868200 0.593155 0.557953 0.151678
H64   H     H_    0.889445 0.701478 0.588509 0.168256
H65   H     H_    0.503838 0.680897 0.456824 0.118069
H66   H     H_    0.901596 0.786996 0.507891 0.181092
H67   H     H_    0.951599 0.691229 0.522189 0.173388
H68   H     H_    0.894602 0.666318 0.481789 0.161994
H69   H     H_    0.631824 0.093373 0.442020 0.151933
H70   H     H_    0.610711 0.201704 0.411451 0.168162
H71   H     H_    0.598629 0.287301 0.492070 0.181599
H72   H     H_    0.548513 0.191611 0.477748 0.172999
H73   H     H_    0.605458 0.166615 0.518172 0.162166
H74   H     H_    0.368205 0.093115 0.557940 0.151695
H75   H     H_    0.389465 0.201416 0.588509 0.168261
H76   H     H_    0.996023 0.180925 0.543174 0.118106
H77   H     H_    0.401616 0.286973 0.507896 0.181049
H78   H     H_    0.451614 0.191193 0.522185 0.173431
H79   H     H_    0.394615 0.166305 0.481784 0.161973
H80   H     H_    0.402543 0.532219 0.454639 0.125023
H81   H     H_    0.361293 0.556674 0.402058 0.127251
H82   H     H_    0.376932 0.382564 0.376112 0.177472
H83   H     H_    0.441883 0.451458 0.382483 0.096243
H84   H     H_    0.421603 0.363470 0.427162 0.148617
H85   H     H_    0.597486 0.532464 0.545410 0.124950
H86   H     H_    0.638763 0.556552 0.598027 0.127560
H87   H     H_    0.003800 0.180911 0.456820 0.118068
H88   H     H_    0.622828 0.382304 0.623735 0.177676
H89   H     H_    0.558024 0.451516 0.617502 0.096646
H90   H     H_    0.578081 0.363719 0.572683 0.148388
H91   H     H_    0.902492 0.032562 0.454579 0.124909
H92   H     H_    0.861231 0.056616 0.401961 0.127342
H93   H     H_    0.877062 0.882333 0.376262 0.177545
H94   H     H_    0.941899 0.951599 0.382466 0.096274
H95   H     H_    0.921827 0.863830 0.427302 0.148420
H96   H     H_    0.097503 0.032824 0.545489 0.124797
H97   H     H_    0.138820 0.056531 0.598134 0.127613
H98   H     H_    0.201337 0.721181 0.538785 0.174239
H99   H     H_    0.122709 0.882127 0.623613 0.177719
H100  H     H_    0.057994 0.951670 0.617532 0.096673
H101  H     H_    0.077870 0.864054 0.572569 0.148233
H102  H     H_    0.378171 0.568699 0.595130 0.151419
H103  H     H_    0.395047 0.598774 0.534622 0.098809
H104  H     H_    0.447563 0.443430 0.525764 0.134763
H105  H     H_    0.473907 0.513402 0.575052 0.082649
H106  H     H_    0.429058 0.407919 0.585408 0.174238
H107  H     H_    0.621763 0.568691 0.404890 0.151421
H108  H     H_    0.604952 0.598810 0.465404 0.098953
H109  H     H_    0.798785 0.721068 0.461206 0.174257
H110  H     H_    0.552326 0.443477 0.474284 0.134826
H111  H     H_    0.525989 0.513454 0.425023 0.082619
H112  H     H_    0.570751 0.407964 0.414627 0.173965
H113  H     H_    0.878201 0.068676 0.595127 0.151416
H114  H     H_    0.895029 0.098832 0.534619 0.098822
H115  H     H_    0.947549 0.943517 0.525685 0.134822
H116  H     H_    0.973930 0.013429 0.574978 0.082643
H117  H     H_    0.929099 0.907924 0.585329 0.174196
H118  H     H_    0.121716 0.068992 0.404978 0.151325
H119  H     H_    0.104893 0.098818 0.465527 0.098959
H120  H     H_    0.701320 0.221171 0.538787 0.174265
H121  H     H_    0.052301 0.943408 0.474248 0.134885
H122  H     H_    0.025953 0.013581 0.425051 0.082598
H123  H     H_    0.070740 0.908162 0.414549 0.173952
H124  H     H_    0.609162 0.734453 0.968707 0.185007
H125  H     H_    0.670272 0.804558 0.955820 0.181193
H126  H     H_    0.660710 0.779452 0.871953 0.162367
H127  H     H_    0.651605 0.661446 0.900255 0.131821
H128  H     H_    0.590813 0.727139 0.878523 0.189668
H129  H     H_    0.388989 0.737889 0.031916 0.187641
H130  H     H_    0.328517 0.809817 0.044369 0.187367
H131  H     H_    0.298806 0.221062 0.461210 0.174264
H132  H     H_    0.336408 0.784870 0.128018 0.162226
H133  H     H_    0.346787 0.666307 0.100559 0.136087
H134  H     H_    0.406734 0.733993 0.122697 0.182777
H135  H     H_    0.109157 0.234437 0.968709 0.185023
H136  H     H_    0.170270 0.304532 0.955817 0.181112
H137  H     H_    0.160699 0.279434 0.871952 0.162357
H138  H     H_    0.151593 0.161428 0.900252 0.131829
H139  H     H_    0.090802 0.227128 0.878524 0.189671
H140  H     H_    0.888980 0.237895 0.031915 0.187633
H141  H     H_    0.828512 0.309833 0.044367 0.187387
H142  H     H_    0.445350 0.704362 0.971419 0.184086
H143  H     H_    0.836399 0.284881 0.128016 0.162231
H144  H     H_    0.846775 0.166318 0.100556 0.136055
H145  H     H_    0.906724 0.233996 0.122696 0.182771
H146  H     H_    0.628817 0.920709 0.094160 0.175262
H147  H     H_    0.664713 0.956319 0.039542 0.178005
H148  H     H_    0.719422 0.807151 0.040340 0.219047
H149  H     H_    0.726763 0.862906 0.097798 0.177160
H150  H     H_    0.679176 0.760588 0.090132 0.142286
H151  H     H_    0.376781 0.921689 0.904080 0.173906
H152  H     H_    0.333697 0.955473 0.954871 0.178179
O1    O     O_R   0.237900 0.735050 0.799950 -0.484710
O2    O     O_R   0.566580 0.739640 0.301090 -0.516973
O3    O     O_R   0.933420 0.239640 0.698910 -0.516694
O4    O     O_R   0.066580 0.239640 0.301090 -0.516972
O5    O     O_R   0.323550 0.666510 0.701520 -0.498582
O6    O     O_R   0.676450 0.666510 0.298480 -0.498575
O7    O     O_R   0.823550 0.166510 0.701520 -0.498577
O8    O     O_R   0.176450 0.166510 0.298480 -0.498555
O9    O     O_3   0.334980 0.834990 0.749700 -0.260271
O10   O     O_3   0.665020 0.834990 0.250300 -0.259475
O11   O     O_3   0.834980 0.334990 0.749700 -0.260268
O12   O     O_R   0.762100 0.735050 0.200050 -0.484461
O13   O     O_3   0.165020 0.334990 0.250300 -0.259477
O14   O     O_R   0.256160 0.936210 0.796950 -0.487474
O15   O     O_R   0.743840 0.936210 0.203050 -0.487375
O16   O     O_R   0.756160 0.436210 0.796950 -0.487475
O17   O     O_R   0.243840 0.436210 0.203050 -0.487367
O18   O     O_R   0.333710 0.029860 0.801630 -0.510851
O19   O     O_R   0.666290 0.029860 0.198370 -0.510025
O20   O     O_R   0.833710 0.529860 0.801630 -0.510851
O21   O     O_R   0.166290 0.529860 0.198370 -0.510016
O22   O     O_R   0.425340 0.901920 0.798280 -0.491047
O23   O     O_R   0.737900 0.235050 0.799950 -0.484709
O24   O     O_R   0.574660 0.901920 0.201720 -0.487637
O25   O     O_R   0.925340 0.401920 0.798280 -0.491047
O26   O     O_R   0.074660 0.401920 0.201720 -0.487624
O27   O     O_R   0.433530 0.738890 0.801610 -0.510596
O28   O     O_R   0.566470 0.738890 0.198390 -0.517612
O29   O     O_R   0.933530 0.238890 0.801610 -0.510598
O30   O     O_R   0.066470 0.238890 0.198390 -0.517614
O31   O     O_R   0.323650 0.665810 0.796720 -0.497557
O32   O     O_R   0.676350 0.665810 0.203280 -0.497831
O33   O     O_R   0.823650 0.165810 0.796720 -0.497561
O34   O     O_R   0.262100 0.235050 0.200050 -0.484462
O35   O     O_R   0.176350 0.165810 0.203280 -0.497816
O36   O     O_R   0.237790 0.735800 0.697250 -0.503391
O37   O     O_R   0.762210 0.735800 0.302750 -0.503563
O38   O     O_R   0.737790 0.235800 0.697250 -0.503401
O39   O     O_R   0.262210 0.235800 0.302750 -0.503586
O40   O     O_R   0.256050 0.936910 0.701750 -0.496965
O41   O     O_R   0.743950 0.936910 0.298250 -0.497311
O42   O     O_R   0.756050 0.436910 0.701750 -0.496976
O43   O     O_R   0.243950 0.436910 0.298250 -0.497334
O44   O     O_R   0.333600 0.030610 0.698930 -0.502132
O45   O     O_R   0.425240 0.902610 0.703070 -0.482411
O46   O     O_R   0.666400 0.030610 0.301070 -0.502353
O47   O     O_R   0.833600 0.530610 0.698930 -0.502134
O48   O     O_R   0.166400 0.530610 0.301070 -0.502352
O49   O     O_3   0.185330 0.718730 0.447261 -0.520602
O50   O     O_3   0.814845 0.718571 0.552720 -0.520452
O51   O     O_3   0.685314 0.218726 0.447263 -0.520556
O52   O     O_3   0.314865 0.218556 0.552726 -0.520449
O53   O     O_3   0.325468 0.457512 0.450050 -0.528487
O54   O     O_3   0.674438 0.457500 0.549937 -0.528644
O55   O     O_3   0.825498 0.957573 0.450048 -0.528483
O56   O     O_R   0.574760 0.902610 0.296930 -0.482526
O57   O     O_3   0.174389 0.957580 0.549938 -0.528630
O58   O     O_3   0.337465 0.481002 0.545932 -0.497194
O59   O     O_3   0.662430 0.481000 0.454065 -0.497373
O60   O     O_3   0.837466 0.981027 0.545929 -0.497185
O61   O     O_3   0.162397 0.981099 0.454068 -0.497389
O62   O     O_3   0.596559 0.874530 0.937205 -0.505835
O63   O     O_3   0.402842 0.877919 0.063089 -0.505110
O64   O     O_3   0.096560 0.374519 0.937208 -0.505852
O65   O     O_3   0.902840 0.377922 0.063088 -0.505118
O66   O     O_3   0.609486 0.839682 0.033731 -0.652158
O67   O     O_R   0.925240 0.402610 0.703070 -0.482408
O68   O     O_3   0.389491 0.843079 0.966908 -0.650959
O69   O     O_3   0.109481 0.339654 0.033737 -0.652164
O70   O     O_3   0.889490 0.343085 0.966907 -0.650961
O71   O     O_3   0.525056 0.665344 0.946995 -0.607472
O72   O     O_3   0.471950 0.665254 0.052936 -0.604508
O73   O     O_3   0.025049 0.165336 0.946996 -0.607469
O74   O     O_3   0.971937 0.165250 0.052935 -0.604526
O75   O     O_3   0.188017 0.723487 0.050405 -0.470513
O76   O     O_3   0.811415 0.723735 0.949922 -0.476281
O77   O     O_3   0.688029 0.223494 0.050407 -0.470528
O78   O     O_R   0.074760 0.402610 0.296930 -0.482528
O79   O     O_3   0.311417 0.223728 0.949925 -0.476344
O80   O     O_R   0.433420 0.739640 0.698910 -0.516693

loop_
_geom_bond_atom_site_label_1
_geom_bond_atom_site_label_2
_ccdc_geom_bond_type
C133  C137  A    
C111  H44   S    
C125  F16   S    
C86   H134  S    
C110  H41   S    
C105  H28   S    
C87   H135  S    
C171  C173  A    
C73   H101  S    
C64   H78   S    
C51   C183  S    
C80   H115  S    
C42   O8    A    
C98   H11   S    
C71   H93   S    
C41   C187  S    
C117  O79   S    
C11   C192  A    
C49   O63   S    
C190  H109  S    
Cr11  O48   S    
C126  F17   S    
C15   C204  A    
C90   C195  S    
C89   H140  S    
C20   C29   T    
C59   C60   S    
C72   H96   S    
C134  F22   S    
C96   O69   S    
C130  C134  A    
C190  C199  A    
C82   H122  S    
C116  H53   S    
C199  O50   S    
C69   H90   S    
C64   H79   S    
C47   C183  S    
C97   H9    S    
C2    O71   S    
Cr12  O80   S    
C36   O2    A    
C51   O65   S    
C49   F1    S    
C142  C151  S    
Cr7   O17   S    
Cr12  O27   S    
C32   O47   A    
C94   H152  S    
Cr7   O43   S    
C16   C20   S    
C123  C141  A    
C192  H131  S    
C191  C200  A    
C132  F20   S    
Cr1   O36   S    
C129  C133  A    
C1    C162  S    
C42   O39   A    
C81   O61   S    
C44   C161  S    
C45   C172  S    
C43   O68   S    
C109  H40   S    
C105  O73   S    
C83   H124  S    
C130  O77   S    
C86   H132  S    
Cr11  O13   S    
C195  O12   A    
C100  H17   S    
C52   C146  S    
C112  C160  S    
C43   F5    S    
C85   O63   S    
C43   C49   S    
C10   C191  A    
C72   C73   S    
C195  O32   A    
C78   H114  S    
Cr3   O3    S    
Cr2   O28   S    
C119  C123  A    
C14   C199  A    
C65   H81   S    
C72   H97   S    
C121  F11   S    
C118  H60   S    
Cr9   O56   S    
C114  H48   S    
C46   C53   T    
Cr8   O45   S    
C102  H20   S    
C63   H75   S    
C107  H33   S    
C58   H61   S    
C91   H144  S    
C92   H147  S    
C103  O72   S    
C98   C99   S    
C72   O57   S    
C12   C198  A    
C56   H46   S    
C113  C157  T    
C77   H111  S    
C84   H126  S    
C44   C48   S    
C67   H85   S    
C2    C150  S    
C44   O66   S    
C39   O36   A    
C163  C181  T    
C196  O23   A    
C89   O65   S    
C166  C182  T    
C85   C86   S    
C83   O62   S    
C5    C9    A    
C35   C161  S    
C117  H55   S    
Cr2   O2    S    
Cr4   O30   S    
C31   O46   A    
C81   H119  S    
C48   F12   S    
C78   C80   S    
C40   C186  S    
C11   C25   S    
C62   H72   S    
C115  C116  S    
C117  H56   S    
Cr9   O10   S    
C137  C155  S    
C127  C141  A    
C174  C175  A    
C55   C147  S    
C88   H137  S    
C107  C108  S    
C12   C202  A    
C89   C91   S    
C202  O53   S    
C194  O72   S    
C149  C158  T    
C96   H7    S    
C49   C161  S    
C65   H80   S    
C106  H31   S    
C60   H68   S    
C96   C97   S    
C145  O22   A    
C94   C95   S    
C133  F21   S    
C71   H95   S    
C47   C50   S    
C59   H63   S    
C56   O49   S    
C118  H58   S    
C168  H65   S    
Cr1   O9    S    
C75   H104  S    
C104  H25   S    
C37   C165  S    
C167  H1    S    
C116  H52   S    
C151  C159  T    
C22   C186  T    
C66   H84   S    
C121  C125  A    
C99   H16   S    
C173  F2    S    
C40   O6    A    
C193  O31   A    
C26   C33   S    
C83   C84   S    
C132  C136  A    
C115  H50   S    
C204  O55   S    
C19   C28   T    
C84   H128  S    
C43   C150  S    
C31   O41   A    
C85   H130  S    
C93   H150  S    
C197  O34   A    
C40   O37   A    
C44   F6    S    
C108  H37   S    
C120  F10   S    
C103  C104  S    
Cr10  O47   S    
C59   O50   S    
C54   C148  S    
C122  F13   S    
C50   O64   S    
C75   H106  S    
Cr6   O16   S    
Cr7   O13   S    
C5    C203  A    
C83   H125  S    
Cr9   O46   S    
C110  H42   S    
Cr7   O39   S    
C80   H117  S    
C73   H100  S    
C79   C193  S    
C170  C179  A    
C5    O59   S    
Cr10  O11   S    
C122  C140  A    
C117  C118  S    
C80   H116  S    
C60   H67   S    
C98   H12   S    
C15   C200  A    
C61   H70   S    
C123  F14   S    
C125  C143  A    
C88   H139  S    
C126  C144  A    
C56   C58   S    
C81   H118  S    
C61   C62   S    
C24   C172  S    
C131  O79   S    
C63   C64   S    
Cr7   O34   S    
Cr9   O19   S    
Cr8   O44   S    
Cr10  O20   S    
C171  C177  A    
C50   C172  S    
C198  O49   S    
Cr8   O18   S    
Cr3   O7    S    
C3    C16   A    
C128  C159  S    
Cr4   O8    S    
C54   C57   T    
C92   H146  S    
C87   C88   S    
C76   O59   S    
C48   C150  S    
C175  F4    S    
C104  H27   S    
C61   O51   S    
C47   F8    S    
C55   C68   T    
C37   O67   A    
C1    O14   A    
C82   H123  S    
C74   H102  S    
C129  O76   S    
C15   C19   S    
C116  H54   S    
C66   H82   S    
C99   H14   S    
C3    C7    A    
Cr4   O13   S    
C171  F24   S    
C168  C177  A    
C203  O54   S    
Cr5   O15   S    
C13   O74   S    
Cr11  O21   S    
C13   C183  S    
Cr5   O37   S    
C12   C17   S    
C192  C201  A    
C200  O51   S    
C70   C71   S    
C175  C178  A    
C29   C30   S    
C196  O33   A    
C164  C180  T    
C95   H4    S    
C179  C182  S    
C148  O26   A    
C1    O18   A    
C87   H136  S    
Cr3   O29   S    
C176  C181  S    
C97   H8    S    
C96   H6    S    
C109  H39   S    
C127  O75   S    
C86   H133  S    
C105  H29   S    
C135  C140  A    
C100  H18   S    
C128  O20   A    
C45   F7    S    
Cr12  O5    S    
C139  O21   A    
C63   O52   S    
C37   O3    A    
C167  C168  A    
C38   O4    A    
C101  C156  T    
C109  O75   S    
C71   H94   S    
C2    C194  S    
Cr1   O14   S    
C41   O38   A    
C74   O58   S    
C67   H86   S    
C6    C204  A    
C45   O70   S    
C136  C154  S    
C4    C202  A    
C8    C189  A    
C6    O60   S    
C102  H21   S    
Cr5   O41   S    
C89   H141  S    
C4    O58   S    
C58   H62   S    
C91   H143  S    
C143  C152  S    
Cr11  O78   S    
C76   H108  S    
C41   O7    A    
C93   H149  S    
C115  H51   S    
C10   C23   S    
Cr2   O10   S    
C16   C201  A    
C2    H142  S    
C77   H110  S    
Cr11  O26   S    
Cr5   O10   S    
C82   H121  S    
C42   C188  S    
C38   C166  S    
C119  F9    S    
C111  O76   S    
C147  O29   A    
C27   C32   S    
C165  C184  T    
C128  O16   A    
C28   C31   S    
Cr2   O32   S    
C39   O5    A    
C65   O53   S    
C108  H36   S    
C112  O19   A    
C6    C10   A    
C21   C185  T    
C97   H10   S    
C129  C142  A    
C93   H148  S    
C105  C106  S    
C153  C162  T    
Cr6   O11   S    
C24   O73   S    
C109  C110  S    
C70   H92   S    
C68   C172  S    
C32   O42   A    
C87   O64   S    
C38   O78   A    
C62   H73   S    
C78   H113  S    
C30   O40   A    
C92   C93   S    
C103  H22   S    
C64   H77   S    
C111  C114  S    
Cr6   O23   S    
C24   H13   S    
C114  H47   S    
C13   H24   S    
C124  F15   S    
C47   O69   S    
C60   H66   S    
C88   H138  S    
C35   C52   T    
C36   C164  S    
C120  C137  A    
Cr8   O9    S    
C95   H5    S    
C131  C144  A    
Cr6   O38   S    
C79   C154  T    
C189  C198  A    
C7    O61   S    
C69   H88   S    
C23   C187  T    
Cr12  O9    S    
C152  C160  T    
C106  H32   S    
Cr9   O24   S    
C169  C170  A    
C14   C18   S    
C4    C8    A    
C193  O1    A    
C33   O48   A    
C81   C82   S    
C112  O15   A    
C141  C149  S    
C78   O60   S    
C7    C11   A    
C118  H59   S    
C51   F18   S    
C17   C26   T    
C170  H87   S    
C104  H26   S    
C131  C135  A    
C9    C22   S    
C94   O68   S    
C45   C51   S    
C92   O66   S    
C102  H19   S    
C144  C153  S    
C107  H34   S    
Cr8   O22   S    
C127  C132  A    
C99   H15   S    
Cr4   O4    S    
C139  C158  S    
C135  F23   S    
C70   O55   S    
Cr3   O11   S    
C91   H145  S    
C77   H112  S    
Cr5   O12   S    
Cr6   O42   S    
C85   H129  S    
Cr10  O25   S    
C36   O56   A    
C124  C142  A    
C169  H76   S    
C108  H38   S    
C53   C145  S    
Cr1   O40   S    
C189  H98   S    
C74   C75   S    
C75   H105  S    
C76   H107  S    
C201  O52   S    
C76   C77   S    
C34   C163  S    
C70   H91   S    
C30   O44   A    
C98   O70   S    
C110  H43   S    
C62   H71   S    
C73   H99   S    
C13   C24   S    
C67   C69   S    
C121  C138  A    
C122  C126  A    
C25   C188  T    
C140  C157  S    
C33   O43   A    
C148  O30   A    
C61   H69   S    
C177  C180  S    
C14   C203  A    
Cr3   O33   S    
C56   H35   S    
C100  C102  S    
C8    C21   S    
C111  H45   S    
C67   O54   S    
C107  O74   S    
C3    O57   S    
C130  C143  A    
C46   C150  S    
C106  H30   S    
C147  O25   A    
C146  O24   A    
C139  O17   A    
C169  C178  A    
C57   C183  S    
C58   H57   S    
C115  O77   S    
C34   O45   A    
C59   H64   S    
C173  C176  A    
C138  C156  S    
C114  H49   S    
C113  C197  S    
C194  H2    S    
Cr4   O35   S    
Cr10  O67   S    
C18   C27   T    
C134  C138  A    
C101  C196  S    
C69   H89   S    
C74   H103  S    
C63   H74   S    
Cr12  O31   S    
C66   H83   S    
C119  C136  A    
C94   H151  S    
C100  O71   S    
Cr1   O1    S    
C161  C194  S    
Cr2   O6    S    
C50   F19   S    
C84   H127  S    
C39   C185  S    
C120  C124  A    
C174  F3    S    
C65   C66   S    
C197  O35   A    
C95   H3    S    
C103  H23   S    
C191  H120  S    
C34   O80   A    
C145  O27   A    
C90   C155  T    
C146  O28   A    
C174  C179  A    
C178  C184  S    
C9    C190  A    
C48   O62   S    
C167  C176  A    
