data_mof_unit_52612.cif
_audit_creation_date              2012-12-10T17:36:38-0500
_audit_creation_method            fapswitch 2.2
_symmetry_space_group_name_H-M    P1
_symmetry_Int_Tables_number       1
_space_group_crystal_system       triclinic
_cell_length_a                    12.03957
_cell_length_b                    12.767474
_cell_length_c                    15.765597
_cell_angle_alpha                 90.410899
_cell_angle_beta                  85.681025
_cell_angle_gamma                 94.460832
_cell_volume                      2409.20284496

loop_
_atom_site_label
_atom_site_type_symbol
_atom_type_description
_atom_site_fract_x
_atom_site_fract_y
_atom_site_fract_z
_atom_type_partial_charge
C1    C     C_R   0.523252 0.699955 0.501878 0.973437
C2    C     C_R   0.523428 0.024394 0.541215 -0.096459
C3    C     C_R   0.954084 0.401439 0.419222 -0.216278
C4    C     C_R   0.047548 0.606491 0.574167 -0.189255
C5    C     C_R   0.836490 0.407195 0.430981 0.676148
C6    C     C_R   0.163601 0.591548 0.570052 0.636792
C7    C     C_R   0.858898 0.546137 0.530532 -0.131098
C8    C     C_R   0.141785 0.457886 0.466091 -0.118844
C9    C     C_R   0.976316 0.538872 0.526667 -0.054860
C10   C     C_R   0.024295 0.464319 0.470839 -0.057582
C11   C     C_R   0.499610 0.499457 0.661890 0.886880
C12   C     C_R   0.476752 0.299963 0.497697 0.887504
C13   C     C_R   0.500153 0.498872 0.338184 0.939923
C14   C     C_3   0.474593 0.588188 0.030373 -0.119837
C15   C     C_3   0.525542 0.399787 0.969875 -0.117105
C16   C     C_3   0.575488 0.568325 0.967571 -0.124278
C17   C     C_3   0.424699 0.419600 0.032844 -0.128610
C18   C     C_1   0.498587 0.497280 0.750535 -0.090280
C19   C     C_1   0.500778 0.496926 0.249650 -0.044609
C20   C     C_3   0.398122 0.513552 0.978787 -0.096650
C21   C     C_3   0.601947 0.474358 0.021700 -0.122441
C22   C     C_3   0.498944 0.493786 0.916302 0.132991
C23   C     C_R   0.576769 0.963297 0.598618 0.565676
C24   C     C_3   0.501062 0.494247 0.083992 0.125891
C25   C     C_1   0.498261 0.495272 0.825588 0.168931
C26   C     C_1   0.501242 0.495365 0.174634 0.168309
C27   C     C_R   0.459613 0.187788 0.494196 -0.227843
C28   C     C_R   0.541136 0.811314 0.510057 -0.215537
C29   C     C_2   0.661406 0.651973 0.933760 0.413736
C30   C     C_2   0.339366 0.335662 0.067033 0.426598
C31   C     C_2   0.445855 0.694756 0.061429 0.399678
C32   C     C_2   0.554391 0.293478 0.938368 0.411080
C33   C     C_2   0.716940 0.452160 0.043412 0.405759
C34   C     C_R   0.416829 0.030914 0.414180 0.519434
C35   C     C_2   0.282391 0.534703 0.958455 0.385695
C36   C     C_2   0.533588 0.185637 0.636849 0.571600
C37   C     C_2   0.514224 0.837326 0.354182 0.506661
C38   C     C_2   0.359704 0.201062 0.359063 0.450079
C39   C     C_2   0.604292 0.785790 0.657357 0.445847
C40   C     C_3   0.742671 0.022951 0.646917 -0.271347
C41   C     C_3   0.253572 0.934887 0.396757 -0.160856
C42   C     C_3   0.221289 0.619192 0.703415 -0.122175
C43   C     C_3   0.761323 0.238263 0.417946 -0.231023
C44   C     C_2   0.001704 0.333415 0.350869 0.441279
C45   C     C_R   0.573873 0.854255 0.587604 -0.178991
C46   C     C_2   0.003530 0.694611 0.625421 0.391253
C47   C     C_R   0.411624 0.139143 0.423821 -0.164232
C48   C     C_R   0.510445 0.874220 0.444861 -0.098603
C49   C     C_R   0.505915 0.130744 0.556616 -0.101042
C50   C     C_R   0.484830 0.976802 0.465639 -0.136833
H1    H     H_    0.182694 0.404199 0.423389 0.137410
H2    H     H_    0.521421 0.894365 0.303007 0.130717
H3    H     H_    0.346055 0.283052 0.369181 0.058561
H4    H     H_    0.629345 0.707409 0.644078 0.050897
H5    H     H_    0.762086 0.073231 0.589449 0.103120
H6    H     H_    0.780674 0.946673 0.637287 0.183211
H7    H     H_    0.782114 0.063835 0.700612 0.216051
H8    H     H_    0.204173 0.997423 0.426691 0.152698
H9    H     H_    0.269140 0.875749 0.445157 0.175130
H10   H     H_    0.202457 0.894035 0.349067 0.200431
H11   H     H_    0.215295 0.531937 0.709419 0.161602
H12   H     H_    0.818568 0.603213 0.570296 0.138148
H13   H     H_    0.147016 0.650791 0.737369 0.171817
H14   H     H_    0.295357 0.650415 0.736120 0.208564
H15   H     H_    0.755037 0.235775 0.488832 0.108651
H16   H     H_    0.834451 0.196983 0.392670 0.159852
H17   H     H_    0.686114 0.193179 0.396272 0.190177
H18   H     H_    0.074333 0.290914 0.359939 0.053036
H19   H     H_    0.921991 0.686074 0.659788 0.072465
H20   H     H_    0.707201 0.701042 0.977784 0.089233
H21   H     H_    0.291960 0.287641 0.023297 0.097123
H22   H     H_    0.429185 0.753830 0.015961 0.094682
H23   H     H_    0.570522 0.233906 0.983581 0.092593
H24   H     H_    0.780662 0.439851 0.992747 0.082305
H25   H     H_    0.220938 0.551685 0.009548 0.098742
H26   H     H_    0.619186 0.196813 0.653918 0.087306
N1    N     N_R   0.207800 0.519340 0.515560 -0.149341
N2    N     N_R   0.792200 0.480660 0.484440 -0.151362
O1    O     O_R   0.421700 0.658830 0.504150 -0.546200
O2    O     O_2   0.322634 0.321014 0.143449 -0.523687
O3    O     O_2   0.441045 0.715642 0.137178 -0.520848
O4    O     O_2   0.559982 0.273401 0.862478 -0.520795
O5    O     O_2   0.739472 0.447788 0.117398 -0.510289
O6    O     O_2   0.256477 0.532304 0.885175 -0.602939
O7    O     O_2   0.460101 0.222620 0.682613 -0.528022
O8    O     O_2   0.512644 0.744562 0.334900 -0.562631
O9    O     O_2   0.332817 0.161717 0.292090 -0.460147
O10   O     O_2   0.599767 0.815642 0.731200 -0.460231
O11   O     O_3   0.626390 0.008093 0.667871 -0.573960
O12   O     O_R   0.578300 0.341170 0.495850 -0.609803
O13   O     O_3   0.354303 0.977870 0.354815 -0.591117
O14   O     O_3   0.235018 0.653202 0.617921 -0.579433
O15   O     O_3   0.764914 0.341884 0.385787 -0.536465
O16   O     O_2   0.959561 0.324259 0.282865 -0.473285
O17   O     O_2   0.058631 0.778689 0.629572 -0.524298
O18   O     O_R   0.609310 0.646410 0.494170 -0.642620
O19   O     O_R   0.390690 0.353590 0.505830 -0.628454
O20   O     O_R   0.406210 0.506220 0.628210 -0.602226
O21   O     O_R   0.593790 0.493780 0.371790 -0.556426
O22   O     O_R   0.593830 0.493800 0.618230 -0.633337
O23   O     O_R   0.406170 0.506200 0.381770 -0.618964
O24   O     O_2   0.680634 0.665049 0.857351 -0.538121
Zn1   Zn    Zn3+2 0.374730 0.508290 0.506660 1.013143
Zn2   Zn    Zn3+2 0.625270 0.491710 0.493340 1.002829

loop_
_geom_bond_atom_site_label_1
_geom_bond_atom_site_label_2
_ccdc_geom_bond_type
C11   C18   S    
C16   C21   S    
C23   C45   A    
C14   C31   S    
C30   H21   S    
C15   C32   S    
C4    C46   S    
C35   H25   S    
C11   O20   A    
C12   O12   A    
C24   C26   S    
C41   H8    S    
C1    O18   A    
C44   H18   S    
C39   H4    S    
C21   C33   S    
O20   Zn1   S    
O22   Zn2   S    
C17   C20   S    
C15   C17   S    
C14   C24   S    
C19   C26   T    
C34   O13   S    
C46   H19   S    
C2    C50   A    
C20   C35   S    
C15   C22   S    
C46   O17   D    
C40   H6    S    
C22   C25   S    
C1    C28   S    
C23   O11   S    
C40   O11   S    
C36   H26   S    
C9    C10   A    
C39   C45   S    
C30   O2    D    
C48   C50   A    
O21   Zn2   S    
O23   Zn1   S    
C17   C30   S    
O1    Zn1   S    
C18   C25   T    
C39   O10   D    
C28   C45   A    
C3    C44   S    
C34   C50   A    
C17   C24   S    
C13   C19   S    
C12   C27   S    
N2    Zn2   S    
C14   C20   S    
C37   O8    D    
C41   H9    S    
C4    C6    A    
C32   H23   S    
C37   H2    S    
C6    N1    A    
C16   C29   S    
C11   O22   A    
C13   O21   A    
C7    H12   S    
C2    C49   A    
C8    H1    S    
C43   H15   S    
C40   H5    S    
C12   O19   A    
C37   C48   S    
C33   O5    D    
C42   H11   S    
O12   Zn2   S    
C38   C47   S    
O19   Zn1   S    
C7    N2    A    
C43   H17   S    
C31   H22   S    
C41   O13   S    
C20   C22   S    
O18   Zn2   S    
C8    N1    A    
C1    O1    A    
C14   C16   S    
N1    Zn1   S    
C13   O23   A    
C42   H14   S    
C29   H20   S    
C27   C47   A    
C7    C9    A    
C28   C48   A    
C16   C22   S    
C40   H7    S    
C41   H10   S    
C3    C5    A    
C5    O15   S    
C35   O6    D    
C36   O7    D    
C32   O4    D    
C31   O3    D    
C38   O9    D    
C4    C9    A    
C3    C10   A    
C38   H3    S    
C43   H16   S    
C6    O14   S    
C43   O15   S    
C29   O24   D    
C42   O14   S    
C44   O16   D    
C33   H24   S    
C15   C21   S    
C8    C10   A    
C21   C24   S    
C2    C23   A    
C34   C47   A    
C5    N2    A    
C42   H13   S    
C36   C49   S    
C27   C49   A    
