data_mof_unit_19489.cif
_audit_creation_date              2013-03-05T16:02:48-0500
_audit_creation_method            fapswitch 2.2
_symmetry_space_group_name_H-M    P1
_symmetry_Int_Tables_number       1
_space_group_crystal_system       triclinic
_cell_length_a                    23.463456
_cell_length_b                    11.808386
_cell_length_c                    10.445731
_cell_angle_alpha                 90.031544
_cell_angle_beta                  90.581461
_cell_angle_gamma                 90.652754
_cell_volume                      2893.81467064

loop_
_atom_site_label
_atom_site_type_symbol
_atom_site_description
_atom_site_fract_x
_atom_site_fract_y
_atom_site_fract_z
_atom_type_partial_charge
O1    O     O_R   0.500000 0.337200 0.605810 -0.570711
O2    O     O_R   0.500000 0.662800 0.394190 -0.566094
O3    O     O_R   0.500000 0.662800 0.605810 -0.524732
O4    O     O_R   0.500000 0.337200 0.394190 -0.565645
C1    C     C_R   0.500482 0.283184 0.499961 0.864824
C2    C     C_R   0.500618 0.716832 0.500040 0.904876
O5    O     O_R   0.417880 0.500000 0.605840 -0.555588
O6    O     O_R   0.582120 0.500000 0.394160 -0.529517
O7    O     O_R   0.582120 0.500000 0.605840 -0.531868
O8    O     O_R   0.417880 0.500000 0.394160 -0.550786
C3    C     C_R   0.390638 0.499470 0.499200 1.020913
C4    C     C_R   0.609547 0.511482 0.500608 0.901402
Cu1   Cu    Cu3+1 0.500000 0.500000 0.625300 1.123109
Cu2   Cu    Cu3+1 0.500000 0.500000 0.374700 1.129319
C5    C     C_R   0.879914 0.599795 0.508531 0.714204
C6    C     C_R   0.123862 0.426099 0.559833 0.674470
C7    C     C_R   0.882585 0.401573 0.549790 0.768274
C8    C     C_R   0.119630 0.618267 0.502126 0.691508
N1    N     N_R   0.852821 0.498304 0.526776 -0.437613
N2    N     N_R   0.149807 0.519288 0.505624 -0.436284
C9    C     C_R   0.942967 0.403508 0.549871 -0.157118
C10   C     C_R   0.059567 0.616419 0.501818 -0.163670
C11   C     C_R   0.939637 0.608375 0.518346 -0.159195
C12   C     C_R   0.063645 0.418538 0.569107 -0.159185
C13   C     C_R   0.971299 0.508490 0.533469 -0.086918
C14   C     C_R   0.031549 0.513865 0.532738 -0.084226
C15   C     C_R   0.975996 0.305815 0.571317 0.255600
C16   C     C_R   0.026788 0.714788 0.478995 0.301512
C17   C     C_R   0.968689 0.713206 0.509996 0.262585
C18   C     C_R   0.034051 0.318054 0.605737 0.294086
O9    O     O_2   0.848888 0.691033 0.475904 -0.409979
O10   O     O_2   0.156439 0.342185 0.605583 -0.400535
O11   O     O_2   0.853398 0.305778 0.576974 -0.401684
O12   O     O_2   0.147119 0.718265 0.512337 -0.418197
C19   C     C_R   0.243815 0.612428 0.450496 0.357086
C20   C     C_R   0.760527 0.524153 0.632827 0.250312
C21   C     C_R   0.237001 0.411105 0.437836 0.365513
C22   C     C_R   0.763809 0.491388 0.400493 0.317047
C23   C     C_R   0.300822 0.608062 0.490402 0.181259
C24   C     C_R   0.701833 0.549511 0.621146 0.200572
C25   C     C_R   0.296421 0.402303 0.462335 0.254785
C26   C     C_R   0.705511 0.519649 0.390384 0.260478
C27   C     C_R   0.328016 0.501960 0.494545 -0.376630
C28   C     C_R   0.672970 0.527459 0.503558 -0.389230
C29   C     C_R   0.210016 0.514494 0.467472 -0.040770
C30   C     C_R   0.791396 0.495842 0.521642 0.006344
C31   C     C_1   0.500568 0.161763 0.499896 -0.068403
C32   C     C_1   0.500802 0.838244 0.500135 -0.030079
C33   C     C_1   0.500632 0.059731 0.499966 0.063753
C34   C     C_1   0.500752 0.940265 0.500097 0.075164
N3    N     N_1   0.500000 0.500000 0.186410 -0.111937
N4    N     N_1   0.500000 0.500000 0.813590 -0.111985
C35   C     C_1   0.500021 0.500029 0.071998 0.201570
C36   C     C_1   0.500016 0.500028 0.928005 0.193378
S1    S     S_3+6 0.951041 0.170537 0.520885 0.185687
O13   O     O_2   0.919309 0.114107 0.628018 -0.078268
O14   O     O_2   0.911967 0.180549 0.406666 -0.185788
O15   O     O_3   0.006614 0.091315 0.478496 -0.386060
H1    H     H_    0.024607 0.132992 0.406918 0.338416
S2    S     S_3+6 0.053385 0.830360 0.386748 0.139341
O16   O     O_2   0.085525 0.912140 0.471721 -0.146022
O17   O     O_2   0.092598 0.786898 0.285699 -0.199153
O18   O     O_3   0.999566 0.897571 0.312781 -0.439833
H2    H     H_    0.018225 0.951643 0.253591 0.381603
S3    S     S_3+6 0.939027 0.836919 0.577880 0.184349
O19   O     O_2   0.909266 0.904254 0.475765 -0.073895
O20   O     O_2   0.896803 0.806250 0.679758 -0.199024
O21   O     O_3   0.991199 0.915649 0.645855 -0.392503
H3    H     H_    0.007450 0.867113 0.714040 0.343529
S4    S     S_3+6 0.064448 0.216443 0.712088 0.145341
O22   O     O_2   0.101544 0.136625 0.639059 -0.143882
O23   O     O_2   0.099723 0.276360 0.812833 -0.202622
O24   O     O_3   0.013149 0.141740 0.786388 -0.435469
H4    H     H_    0.033745 0.085494 0.839187 0.390078
S5    S     S_3+6 0.231347 0.691574 0.308243 0.145685
O25   O     O_2   0.181775 0.641395 0.234709 -0.209251
O26   O     O_2   0.219525 0.813282 0.339436 -0.129351
O27   O     O_3   0.289625 0.686179 0.216074 -0.490491
H5    H     H_    0.280307 0.732764 0.140030 0.390172
S6    S     S_3+6 0.795860 0.527748 0.785658 0.119392
O28   O     O_2   0.842432 0.442043 0.795351 -0.260438
O29   O     O_2   0.821840 0.643240 0.806055 -0.150657
O30   O     O_3   0.749840 0.500613 0.904157 -0.396961
H6    H     H_    0.736108 0.422190 0.888125 0.376720
S7    S     S_3+6 0.200696 0.314770 0.332573 0.134633
O31   O     O_2   0.151177 0.373405 0.269878 -0.258878
O32   O     O_2   0.240755 0.276521 0.230267 -0.181755
O33   O     O_3   0.176019 0.200456 0.411430 -0.391813
H7    H     H_    0.152404 0.158314 0.347879 0.386693
S8    S     S_3+6 0.803058 0.449000 0.263112 0.129822
O34   O     O_2   0.844309 0.357401 0.297074 -0.236080
O35   O     O_2   0.763742 0.403865 0.160319 -0.175767
O36   O     O_3   0.839904 0.561057 0.206913 -0.437292
H8    H     H_    0.856806 0.534461 0.125906 0.410050
S9    S     S_3+6 0.338273 0.736798 0.521594 0.070440
O37   O     O_2   0.374710 0.765616 0.408547 -0.242443
O38   O     O_2   0.297323 0.831573 0.543890 -0.185522
O39   O     O_3   0.380078 0.723469 0.652169 -0.525687
H9    H     H_    0.353924 0.699426 0.721114 0.358110
S10   S     S_3+6 0.667656 0.635117 0.738745 0.105523
O40   O     O_2   0.638777 0.560277 0.835291 -0.221766
O41   O     O_2   0.709437 0.711878 0.807034 -0.171626
O42   O     O_3   0.618392 0.717462 0.668632 -0.515172
H10   H     H_    0.639624 0.762795 0.604729 0.346085
S11   S     S_3+6 0.331413 0.269148 0.458135 0.089431
O43   O     O_2   0.363890 0.260580 0.335293 -0.260079
O44   O     O_2   0.372452 0.261957 0.569099 -0.312592
O45   O     O_3   0.285530 0.159404 0.468514 -0.379930
H11   H     H_    0.309189 0.091118 0.458163 0.406624
S12   S     S_3+6 0.677429 0.574826 0.243410 0.119660
O46   O     O_2   0.649064 0.480893 0.168331 -0.228816
O47   O     O_2   0.634523 0.665112 0.270920 -0.286928
O48   O     O_3   0.729045 0.634364 0.154600 -0.383804
H12   H     H_    0.709038 0.665862 0.078892 0.422871

loop_
_geom_bond_atom_site_label_1
_geom_bond_atom_site_label_2
_geom_bond_distance
_ccdc_geom_bond_type
C26   S12   1.790532 S    
S1    O13   1.502369 D    
O36   H8    0.990602 S    
O24   H4    0.990529 S    
S9    O37   1.501824 D    
O3    C2    1.276267 A    
N1    C30   1.441653 S    
C31   C33   1.204841 T    
C35   C36   1.504118 S    
C5    N1    1.364568 A    
S11   O44   1.502411 D    
C19   S5    1.779318 S    
C2    C32   1.433648 S    
S2    O18   1.680817 S    
O1    C1    1.276371 A    
C11   C17   1.409519 A    
C21   S7    1.784997 S    
C16   C17   1.404248 A    
C12   C14   1.411570 A    
C22   C26   1.414611 A    
C15   S1    1.773015 S    
O45   H11   0.990639 S    
S2    O17   1.501308 D    
S5    O26   1.502999 D    
O7    Cu1   1.939562 S    
S12   O46   1.503305 D    
Cu2   N3    1.966827 S    
O21   H3    0.990495 S    
S3    O20   1.502932 D    
C20   C30   1.416828 A    
S4    O22   1.503074 D    
N2    C29   1.473444 S    
O3    Cu1   1.933267 S    
O6    C4    1.285393 A    
C32   C34   1.204717 T    
C9    C15   1.413751 A    
C6    C12   1.419013 A    
C10   C16   1.419356 A    
Cu1   Cu2   2.617700 S    
C15   C18   1.411095 A    
O4    Cu2   1.933267 S    
C25   C27   1.422050 A    
O2    C2    1.276129 A    
C26   C28   1.417328 A    
S6    O30   1.679424 S    
C18   S4    1.785320 S    
N4    C36   1.195140 T    
O5    C3    1.278632 A    
S12   O47   1.504212 D    
C16   S2    1.781753 S    
S11   O45   1.679553 S    
S9    O39   1.680445 S    
S7    O32   1.503007 D    
C20   C24   1.416740 A    
S6    O29   1.501659 D    
C20   S6    1.791637 S    
O27   H5    0.990482 S    
S6    O28   1.500531 D    
C23   C27   1.412958 A    
C13   C14   1.414459 A    
S7    O31   1.503877 D    
S10   O42   1.681428 S    
C7    C9    1.416698 A    
S2    O16   1.502653 D    
N3    C35   1.195118 T    
C19   C23   1.398498 A    
S5    O25   1.503218 D    
O7    C4    1.285824 A    
Cu1   N4    1.966828 S    
C1    C31   1.433816 S    
S8    O35   1.502010 D    
O30   H6    0.990630 S    
O5    Cu1   1.935461 S    
C6    N2    1.376426 A    
S3    O21   1.680073 S    
S4    O24   1.680724 S    
S10   O41   1.502107 D    
C7    O11   1.347524 S    
C3    C27   1.470285 S    
C8    O12   1.342688 S    
S12   O48   1.680998 S    
C23   S9    1.775511 S    
C25   S11   1.782804 S    
C17   S3    1.775770 S    
C33   C34   1.410737 S    
S1    O14   1.502816 D    
O8    Cu2   1.939565 S    
O1    Cu1   1.933044 S    
S3    O19   1.502028 D    
C21   C29   1.417173 A    
C19   C29   1.407084 A    
S8    O36   1.681673 S    
O48   H12   0.990394 S    
S7    O33   1.681957 S    
C9    C13   1.411325 A    
O6    Cu2   1.935459 S    
C8    C10   1.409179 A    
O4    C1    1.276069 A    
C24   S10   1.791919 S    
S9    O38   1.502883 D    
C5    O9    1.349090 S    
C6    O10   1.343449 S    
S11   O43   1.502957 D    
C22   S8    1.787325 S    
O15   H1    0.990732 S    
C4    C28   1.497905 S    
S8    O34   1.499969 D    
C5    C11   1.406515 A    
S10   O40   1.502794 D    
C7    N1    1.365753 A    
C8    N2    1.373712 A    
C11   C13   1.409200 A    
C21   C25   1.419920 A    
O2    Cu2   1.933044 S    
S5    O27   1.682073 S    
C12   C18   1.422525 A    
C22   C30   1.416248 A    
O8    C3    1.275394 A    
O18   H2    0.990553 S    
C24   C28   1.419110 A    
O33   H7    0.990565 S    
O39   H9    0.990505 S    
C10   C14   1.410539 A    
S1    O15   1.676462 S    
O42   H10   0.990633 S    
S4    O23   1.503746 D    
