data_mof_unit_24788.cif
_audit_creation_date              2012-12-11T14:25:35-0500
_audit_creation_method            fapswitch 2.2
_symmetry_space_group_name_H-M    P1
_symmetry_Int_Tables_number       1
_space_group_crystal_system       triclinic
_cell_length_a                    6.985535
_cell_length_b                    15.181754
_cell_length_c                    15.93861
_cell_angle_alpha                 89.883724
_cell_angle_beta                  88.260626
_cell_angle_gamma                 90.045035
_cell_volume                      1689.54928048

loop_
_atom_site_label
_atom_site_type_symbol
_atom_type_description
_atom_site_fract_x
_atom_site_fract_y
_atom_site_fract_z
_atom_type_partial_charge
O1    O     O_R   0.494490 0.416160 0.413410 -0.532049
O2    O     O_R   0.823830 0.407240 0.585990 -0.546080
O3    O     O_R   0.994160 0.583840 0.586590 -0.563323
C1    C     C_R   0.652263 0.375029 0.599876 0.766577
O4    O     O_R   0.824200 0.405280 0.414020 -0.506404
O5    O     O_R   0.994530 0.581860 0.413390 -0.542565
C2    C     C_R   0.657134 0.382614 0.386791 0.793356
O6    O     O_R   0.494110 0.418140 0.586610 -0.550600
O7    O     O_3   0.660810 0.557940 0.500000 -0.399170
V1    V     V_3+5 0.935650 0.489250 0.500000 1.466316
O8    O     O_R   0.324250 0.592760 0.414010 -0.551881
C3    C     C_R   0.157457 0.614439 0.386051 0.766185
O9    O     O_R   0.323880 0.594720 0.585980 -0.519862
C4    C     C_R   0.152917 0.612625 0.618770 0.699501
V2    V     V_3+5 0.435660 0.510750 0.500000 1.433607
O10   O     O_3   0.160630 0.442060 0.500000 -0.349859
C5    C     C_3   0.105991 0.636689 0.783985 0.542232
C6    C     C_3   0.143387 0.712412 0.852309 0.230135
H1    H     H_    0.020702 0.708551 0.898570 0.106924
H2    H     H_    0.829183 0.709992 0.672590 0.132235
H3    H     H_    0.818411 0.779363 0.801516 0.151577
C7    C     C_3   0.963310 0.748217 0.681825 0.277896
C8    C     C_3   0.328563 0.739537 0.692003 0.272352
C9    C     C_3   0.138595 0.681475 0.691095 -0.182332
H4    H     H_    0.427299 0.700677 0.728946 0.140817
C10   C     C_3   0.127820 0.806192 0.812193 -0.153830
C11   C     C_3   0.940118 0.805139 0.762163 -0.418256
C12   C     C_3   0.298959 0.822285 0.747864 -0.390670
H5    H     H_    0.433689 0.837010 0.780428 0.144204
H6    H     H_    0.268564 0.880176 0.708315 0.175645
H7    H     H_    0.899976 0.873660 0.745920 0.159789
C13   C     C_2   0.997220 0.722752 0.296693 -0.264023
C14   C     C_2   0.155563 0.677548 0.315329 -0.374393
H8    H     H_    0.871070 0.715946 0.337728 0.146305
H9    H     H_    0.283429 0.683067 0.275416 0.135493
C15   C     C_2   0.974882 0.772087 0.215679 0.486835
C16   C     C_2   0.119440 0.822608 0.184240 -0.340869
H10   H     H_    0.254098 0.823724 0.216610 0.100313
C17   C     C_2   0.773031 0.188464 0.757767 0.340788
C18   C     C_2   0.614901 0.168263 0.805940 0.142292
C19   C     C_2   0.779060 0.264532 0.697343 -0.237866
C20   C     C_2   0.634138 0.294593 0.651749 -0.286293
H11   H     H_    0.913593 0.298329 0.690083 0.151860
H12   H     H_    0.501065 0.258858 0.649103 0.181649
C21   C     C_2   0.755024 0.192586 0.224004 -0.304209
C22   C     C_2   0.603475 0.181365 0.173734 0.230253
H13   H     H_    0.881348 0.152805 0.210557 0.168512
C23   C     C_2   0.764128 0.249379 0.301285 0.503236
C24   C     C_2   0.649841 0.320879 0.314870 -0.348947
H14   H     H_    0.545042 0.339026 0.269961 0.148460
O11   O     O_R   0.770850 0.076180 0.907410 -0.533323
O12   O     O_R   0.440600 0.088970 0.079950 -0.531937
O13   O     O_R   0.270430 0.912340 0.080550 -0.526211
C25   C     C_R   0.607080 0.111804 0.107328 0.643998
O14   O     O_R   0.441120 0.087010 0.907980 -0.534685
O15   O     O_R   0.270950 0.910370 0.907350 -0.515247
C26   C     C_R   0.611293 0.104819 0.876873 0.646443
O16   O     O_R   0.770320 0.078150 0.080620 -0.558600
O17   O     O_3   0.604200 0.936340 0.994000 -0.350389
V3    V     V_3+5 0.329300 0.004970 0.993950 1.523824
O18   O     O_R   0.941240 0.899420 0.907920 -0.563927
C27   C     C_R   0.112517 0.877834 0.879385 0.767511
O19   O     O_R   0.940720 0.901380 0.079890 -0.512350
C28   C     C_R   0.107976 0.881213 0.109524 0.829351
V4    V     V_3+5 0.829310 0.983370 0.993880 1.501082
O20   O     O_3   0.104280 0.052120 0.993920 -0.380924
O21   O     O_3   0.907046 0.613420 0.795098 -0.584875
C29   C     C_3   0.851346 0.530489 0.763156 0.054860
H15   H     H_    0.816908 0.486688 0.817274 0.121902
H16   H     H_    0.960008 0.498086 0.721398 0.133904
C30   C     C_3   0.663871 0.538838 0.719291 -0.598287
H17   H     H_    0.683947 0.560403 0.653746 0.226842
H18   H     H_    0.583889 0.476199 0.724176 0.157991
H19   H     H_    0.574746 0.586881 0.751200 0.273333
O22   O     O_3   0.998899 0.808143 0.615856 -0.585047
C31   C     C_3   0.832518 0.837895 0.578360 0.022348
H20   H     H_    0.723243 0.860619 0.625716 0.165593
H21   H     H_    0.777544 0.783123 0.540568 0.185469
C32   C     C_3   0.885640 0.915144 0.520893 -0.700864
H22   H     H_    0.967224 0.891205 0.464533 0.224252
H23   H     H_    0.755857 0.950594 0.501072 0.206459
H24   H     H_    0.975200 0.962966 0.554404 0.227860
O23   O     O_3   0.802591 0.770382 0.173931 -0.536172
C33   C     C_3   0.704204 0.689977 0.187814 -0.005828
H25   H     H_    0.623600 0.692079 0.248959 0.117027
H26   H     H_    0.802646 0.632079 0.186026 0.129912
C34   C     C_3   0.562861 0.676820 0.119329 -0.497754
H27   H     H_    0.641188 0.670341 0.057965 0.262585
H28   H     H_    0.478553 0.615894 0.131942 0.161389
H29   H     H_    0.464459 0.734052 0.117354 0.255572
O24   O     O_3   0.943946 0.145200 0.770252 -0.546065
C35   C     C_3   0.972327 0.084135 0.704049 0.099130
H30   H     H_    0.922315 0.108498 0.642245 0.124494
H31   H     H_    0.894064 0.022407 0.719901 0.099058
C36   C     C_3   0.184332 0.063964 0.692474 -0.642575
H32   H     H_    0.244417 0.042050 0.752747 0.230617
H33   H     H_    0.206190 0.011588 0.644916 0.149374
H34   H     H_    0.260686 0.123401 0.668709 0.242846
O25   O     O_3   0.438746 0.196531 0.781151 -0.567095
C37   C     C_3   0.388920 0.274710 0.822905 0.132430
H35   H     H_    0.513135 0.320442 0.827377 0.081706
H36   H     H_    0.332076 0.259272 0.887227 0.123627
C38   C     C_3   0.234896 0.319261 0.772606 -0.671224
H37   H     H_    0.096961 0.318523 0.808952 0.184338
H38   H     H_    0.277960 0.387262 0.755180 0.192221
H39   H     H_    0.214297 0.284167 0.712722 0.233807
O26   O     O_3   0.229591 0.562254 0.797597 -0.578103
C39   C     C_3   0.178533 0.512717 0.872196 0.256314
H40   H     H_    0.091554 0.455878 0.855447 0.047345
H41   H     H_    0.090059 0.549662 0.919197 0.156713
C40   C     C_3   0.352207 0.471892 0.914287 -0.623056
H42   H     H_    0.473032 0.463532 0.868576 0.217758
H43   H     H_    0.400977 0.511608 0.967595 0.264906
H44   H     H_    0.312961 0.406906 0.941765 0.109843
O27   O     O_3   0.431237 0.223777 0.191598 -0.515868
C41   C     C_3   0.392952 0.283406 0.125756 0.102640
H45   H     H_    0.369056 0.248508 0.065700 0.106702
H46   H     H_    0.513079 0.331115 0.116090 0.078832
C42   C     C_3   0.212128 0.335164 0.148200 -0.656575
H47   H     H_    0.230153 0.372014 0.207551 0.231422
H48   H     H_    0.181990 0.382800 0.097323 0.153212
H49   H     H_    0.088627 0.289558 0.155992 0.220881
S1    S     S_3+6 0.937758 0.218121 0.374889 0.012905
O28   O     O_2   0.001770 0.124904 0.359241 -0.328780
O29   O     O_2   0.107909 0.278431 0.365621 -0.323216
O30   O     O_3   0.844189 0.225404 0.473100 -0.522280
H50   H     H_    0.954526 0.218203 0.510126 0.347948
S2    S     S_3+6 0.348968 0.697718 0.919879 -0.088797
O31   O     O_2   0.270676 0.656638 0.999508 -0.387068
O32   O     O_2   0.499848 0.639120 0.881921 -0.363069
O33   O     O_3   0.465921 0.787954 0.948213 -0.477047
H51   H     H_    0.580646 0.791311 0.910334 0.339760
O34   O     O_3   0.439071 0.754302 0.615079 -0.576661
C43   C     C_3   0.338665 0.789411 0.546446 0.195119
H52   H     H_    0.295727 0.858597 0.559434 0.166093
H53   H     H_    0.217709 0.746654 0.530196 0.169473
C44   C     C_3   0.458139 0.789530 0.464838 -0.815237
H54   H     H_    0.541731 0.727745 0.457823 0.245806
H55   H     H_    0.362493 0.795403 0.410759 0.198496
H56   H     H_    0.552664 0.847505 0.460948 0.211942

loop_
_geom_bond_atom_site_label_1
_geom_bond_atom_site_label_2
_ccdc_geom_bond_type
C34   H27   S    
O19   V4    S    
O30   H50   S    
C19   C20   D    
C36   H32   S    
C6    C10   S    
C33   C34   S    
C1    O6    A    
S2    O31   D    
C18   O25   S    
C36   H34   S    
S1    O28   D    
C17   C19   S    
C21   C22   D    
C41   H45   S    
C44   H55   S    
C10   C11   S    
C22   O27   S    
C13   C15   S    
C15   C16   D    
C33   H26   S    
C5    O26   S    
O5    C3    A    
C14   H9    S    
O13   C28   A    
S1    O29   D    
C15   O23   S    
O27   C41   S    
C39   H40   S    
C6    H1    S    
O11   V4    S    
C4    C9    S    
C35   H30   S    
C23   S1    S    
O12   V3    S    
C6    S2    S    
O8    V2    S    
O23   C33   S    
C39   H41   S    
C29   H15   S    
O26   C39   S    
C31   C32   S    
O11   C26   A    
C40   H44   S    
O7    V1    S    
C21   H13   S    
H3    C11   S    
V3    O20   S    
O17   V3    S    
O9    C4    A    
C19   H11   S    
C20   H12   S    
C7    O22   S    
C43   C44   S    
C17   O24   S    
O13   V3    S    
O12   C25   A    
C42   H48   S    
C44   H56   S    
C5    O21   S    
C5    C9    S    
C8    O34   S    
C11   H7    S    
O21   C29   S    
C41   C42   S    
C33   H25   S    
C2    C24   S    
C40   H43   S    
C17   C18   D    
C30   H18   S    
S1    O30   S    
C43   H53   S    
C37   C38   S    
O19   C28   A    
C13   H8    S    
O2    C1    A    
O22   C31   S    
C16   H10   S    
C32   H24   S    
O16   V4    S    
O25   C37   S    
C8    C9    S    
C22   C25   S    
C37   H36   S    
C5    C6    S    
C38   H38   S    
C8    C12   S    
C31   H20   S    
O3    C4    A    
O1    V2    S    
C23   C24   D    
H2    C7    S    
V4    O20   S    
O6    V2    S    
C7    C11   S    
O9    V2    S    
O34   C43   S    
O15   C27   A    
O33   H51   S    
O2    V1    S    
S2    O33   S    
O24   C35   S    
C16   C28   S    
O4    C2    A    
C25   O16   A    
C21   C23   S    
C12   H5    S    
C18   C26   S    
C40   H42   S    
O1    C2    A    
C10   C12   S    
C31   H21   S    
S2    O32   D    
O5    V1    S    
C30   H19   S    
C42   H47   S    
C36   H33   S    
C43   H52   S    
C44   H54   S    
C32   H23   S    
C39   C40   S    
C13   C14   D    
O14   C26   A    
O7    V2    S    
O4    V1    S    
O3    V1    S    
V1    O10   S    
O17   V4    S    
C35   H31   S    
C1    C20   S    
C29   C30   S    
C12   H6    S    
C37   H35   S    
C42   H49   S    
C41   H46   S    
C38   H39   S    
C7    C9    S    
C35   C36   S    
C10   C27   S    
O18   C27   A    
C32   H22   S    
O18   V4    S    
C30   H17   S    
C8    H4    S    
O15   V3    S    
C29   H16   S    
C24   H14   S    
C34   H29   S    
C38   H37   S    
C34   H28   S    
C3    C14   S    
O14   V3    S    
V2    O10   S    
O8    C3    A    
