data_mof_unit_46228.cif
_audit_creation_date              2013-03-05T15:43:18-0500
_audit_creation_method            fapswitch 2.2
_symmetry_space_group_name_H-M    P1
_symmetry_Int_Tables_number       1
_space_group_crystal_system       triclinic
_cell_length_a                    10.631589
_cell_length_b                    10.725871
_cell_length_c                    10.044629
_cell_angle_alpha                 90.100801
_cell_angle_beta                  90.017991
_cell_angle_gamma                 90.135747
_cell_volume                      1145.4146571

loop_
_atom_site_label
_atom_site_type_symbol
_atom_site_description
_atom_site_fract_x
_atom_site_fract_y
_atom_site_fract_z
_atom_type_partial_charge
O1    O     O_R   0.499980 0.319060 0.613040 -0.620741
O2    O     O_R   0.500020 0.319100 0.386900 -0.616245
C1    C     C_R   0.498320 0.262688 0.499698 0.931888
O3    O     O_R   0.316750 0.499980 0.613090 -0.611996
O4    O     O_R   0.316790 0.500020 0.386950 -0.610710
C2    C     C_R   0.260779 0.501879 0.499960 0.880676
Zn1   Zn    Zn3+2 0.499970 0.499970 0.650990 0.937296
Zn2   Zn    Zn3+2 0.500030 0.500030 0.349010 0.936224
O5    O     O_R   0.499980 0.680900 0.613100 -0.625493
O6    O     O_R   0.500020 0.680940 0.386960 -0.607237
O7    O     O_R   0.683210 0.499980 0.613050 -0.614649
O8    O     O_R   0.683250 0.500020 0.386910 -0.622223
C3    C     C_R   0.504304 0.737261 0.500088 0.903392
C4    C     C_R   0.739336 0.498752 0.499997 0.878859
H1    H     H_    0.120261 0.317772 0.428717 0.142885
C5    C     C_R   0.129542 0.725578 0.577428 -0.160314
H2    H     H_    0.231146 0.730846 0.577349 0.137048
C6    C     C_R   0.062988 0.831952 0.614677 -0.133750
H3    H     H_    0.113056 0.915909 0.643101 0.134602
C7    C     C_R   0.932142 0.830406 0.614583 -0.141120
H4    H     H_    0.880468 0.913102 0.643076 0.136009
C8    C     C_R   0.867552 0.722517 0.577248 -0.167758
H5    H     H_    0.766017 0.725957 0.577442 0.134821
C9    C     C_R   0.933632 0.613345 0.539723 0.056339
C10   C     C_R   0.065229 0.615282 0.539829 0.089465
C11   C     C_R   0.128696 0.506824 0.499661 -0.126984
C12   C     C_R   0.066817 0.399410 0.458398 -0.243722
C13   C     C_R   0.937472 0.395000 0.458906 0.157193
C14   C     C_R   0.871949 0.502374 0.500089 -0.126252
C15   C     C_2   0.515266 0.933087 0.387593 -0.153450
C16   C     C_2   0.521308 0.868549 0.500801 -0.352882
H6    H     H_    0.503784 0.887737 0.291512 0.176261
H7    H     H_    0.542177 0.911094 0.596323 0.150489
C17   C     C_2   0.522409 0.067215 0.389487 -0.168161
C18   C     C_2   0.490890 0.130765 0.498846 -0.334710
H8    H     H_    0.550752 0.113891 0.298305 0.172685
H9    H     H_    0.456301 0.087238 0.589036 0.147728
C19   C     C_2   0.571504 0.572530 0.925124 -0.121264
N1    N     N_2   0.501340 0.501330 0.852150 -0.190540
H10   H     H_    0.633114 0.638612 0.875710 0.159676
H11   H     H_    0.446581 0.435083 0.897602 0.163231
C20   C     C_2   0.575304 0.568674 0.075091 -0.130859
N2    N     N_2   0.501380 0.501360 0.147810 -0.194262
H12   H     H_    0.643826 0.627710 0.124728 0.161628
H13   H     H_    0.432917 0.449091 0.102135 0.163968
C21   C     C_3   0.872936 0.273796 0.419560 -0.412372
C22   C     C_3   0.835563 0.198323 0.542144 -0.869271
H14   H     H_    0.768941 0.251480 0.605410 0.269480
H15   H     H_    0.789285 0.110205 0.510322 0.252589
H16   H     H_    0.920312 0.174824 0.601716 0.256985
H17   H     H_    0.788981 0.291562 0.356843 0.220902
H18   H     H_    0.936836 0.215619 0.357731 0.204647

loop_
_geom_bond_atom_site_label_1
_geom_bond_atom_site_label_2
_geom_bond_distance
_ccdc_geom_bond_type
O4    Zn2   1.985175 S    
Zn1   O7    1.985176 S    
C16   H7    1.084392 S    
C15   H6    1.086696 S    
C6    C7    1.391160 A    
C22   H14   1.109747 S    
Zn2   N2    2.021109 S    
C1    C18   1.417015 S    
Zn2   O8    1.984654 S    
O2    C1    1.285509 A    
N1    H11   1.025481 S    
C5    C6    1.394600 A    
O1    Zn1   1.976848 S    
C9    C14   1.414117 A    
C9    C10   1.399184 A    
C19   H10   1.084903 S    
N2    H13   1.025445 S    
C13   C21   1.520128 S    
C11   C12   1.387989 A    
C2    C11   1.405386 S    
C20   H12   1.084779 S    
O3    Zn1   1.984653 S    
O4    C2    1.282165 A    
Zn2   O6    1.976848 S    
C13   C14   1.408928 A    
C18   H9    1.083872 S    
O8    C4    1.282855 A    
C19   C20   1.507542 S    
C22   H16   1.111166 S    
C17   H8    1.086901 S    
C15   C16   1.333903 D    
O7    C4    1.283034 A    
C8    C9    1.417494 A    
O3    C2    1.282776 A    
C20   N2    1.293069 D    
C15   C17   1.440563 S    
C4    C14   1.410330 S    
C21   H18   1.112434 S    
C5    C10   1.415675 A    
C19   N1    1.293032 D    
C7    H4    1.082582 S    
C22   H15   1.110926 S    
C17   C18   1.335003 D    
C12   C13   1.375851 A    
Zn1   O5    1.978257 S    
Zn1   N1    2.020651 S    
C8    H5    1.080204 S    
C6    H3    1.082823 S    
O5    C3    1.287819 A    
C10   C11   1.404850 A    
C21   C22   1.526960 S    
H1    C12   1.086282 S    
C21   H17   1.109388 S    
C3    C16   1.419317 S    
O2    Zn2   1.978257 S    
C7    C8    1.394938 A    
C5    H2    1.081559 S    
O1    C1    1.288231 A    
O6    C3    1.286726 A    
