data_mof_unit_64332.cif
_audit_creation_date              2012-12-10T18:24:08-0500
_audit_creation_method            fapswitch 2.2
_symmetry_space_group_name_H-M    P1
_symmetry_Int_Tables_number       1
_space_group_crystal_system       triclinic
_cell_length_a                    16.093883
_cell_length_b                    16.088595
_cell_length_c                    16.09389
_cell_angle_alpha                 95.836442
_cell_angle_beta                  84.463015
_cell_angle_gamma                 90.157007
_cell_volume                      4126.10872591

loop_
_atom_site_label
_atom_site_type_symbol
_atom_type_description
_atom_site_fract_x
_atom_site_fract_y
_atom_site_fract_z
_atom_type_partial_charge
C1    C     C_R   0.510698 0.724310 0.510702 0.506042
C2    C     C_1   0.485052 0.186245 0.484988 0.013486
C3    C     C_1   0.515887 0.482533 0.184692 -0.002559
C4    C     C_R   0.489316 0.275665 0.489265 0.506190
C5    C     C_2   0.527820 0.469991 0.018232 0.021932
C6    C     C_2   0.480245 0.520923 0.980709 -0.115092
C7    C     C_1   0.482558 0.518707 0.890527 -0.055062
C8    C     C_1   0.520933 0.477180 0.109102 -0.028886
C9    C     C_1   0.485222 0.516030 0.815186 0.008376
C10   C     C_R   0.510656 0.488254 0.274573 0.504375
C11   C     C_R   0.489308 0.511763 0.725417 0.506995
C12   C     C_1   0.111270 0.518825 0.519132 -0.055077
C13   C     C_R   0.724302 0.488221 0.488269 0.504498
C14   C     C_R   0.275715 0.511806 0.511776 0.506866
C15   C     C_1   0.813637 0.482478 0.482528 -0.002586
C16   C     C_2   0.978896 0.469844 0.469501 0.021861
C17   C     C_2   0.021301 0.521083 0.521620 -0.115109
C18   C     C_3   0.024181 0.406122 0.404425 -0.250941
C19   C     C_3   0.966517 0.353167 0.350503 -0.435265
C20   C     C_3   0.587293 0.406697 0.966876 -0.250961
C21   C     C_3   0.636465 0.354009 0.019495 -0.435309
C22   C     C_1   0.888715 0.477092 0.477014 -0.028903
C23   C     C_1   0.186354 0.516114 0.516242 0.008384
C24   C     C_1   0.515049 0.813727 0.514975 0.015484
C25   C     C_2   0.523197 0.978670 0.523019 -0.120250
C26   C     C_2   0.476983 0.021299 0.476924 -0.121044
C27   C     C_1   0.481427 0.111109 0.481360 -0.044525
C28   C     C_1   0.518724 0.888861 0.518596 -0.043220
H1    H     H_    0.987912 0.566220 0.567680 0.123243
H2    H     H_    0.675628 0.394692 0.059682 0.158492
H3    H     H_    0.593218 0.317379 0.059479 0.159084
H4    H     H_    0.678078 0.309753 0.977296 0.139986
H5    H     H_    0.550965 0.363728 0.925804 0.154548
H6    H     H_    0.632638 0.440350 0.926003 0.154320
H7    H     H_    0.435347 0.988915 0.435411 0.136796
H8    H     H_    0.564831 0.011052 0.564535 0.137649
H9    H     H_    0.438166 0.565766 0.018399 0.123158
H10   H     H_    0.922948 0.316865 0.390498 0.159041
H11   H     H_    0.930309 0.393621 0.314883 0.158439
H12   H     H_    0.004471 0.308608 0.304977 0.140187
H13   H     H_    0.068352 0.439430 0.362063 0.154405
H14   H     H_    0.061056 0.363366 0.437009 0.154605
O1    O     O_3   0.500000 0.500000 0.500000 -0.435871
O2    O     O_R   0.689040 0.536050 0.444000 -0.535071
O3    O     O_R   0.315570 0.560650 0.560630 -0.533414
O4    O     O_R   0.679800 0.444450 0.536560 -0.536283
O5    O     O_R   0.315590 0.458850 0.458810 -0.539084
O6    O     O_R   0.458170 0.444480 0.314880 -0.536143
O7    O     O_R   0.445130 0.560630 0.690220 -0.533295
O8    O     O_R   0.559450 0.679320 0.457680 -0.535177
O9    O     O_R   0.537250 0.315570 0.537220 -0.536624
O10   O     O_R   0.458120 0.689530 0.559970 -0.534771
O11   O     O_R   0.445170 0.315580 0.445130 -0.536057
O12   O     O_R   0.559480 0.536070 0.314410 -0.535224
O13   O     O_R   0.537220 0.458810 0.680490 -0.539194
Zn1   Zn    Zn3+2 0.430930 0.430930 0.430910 0.945962
Zn2   Zn    Zn3+2 0.575680 0.561790 0.430230 0.948928
Zn3   Zn    Zn3+2 0.562480 0.430910 0.562480 0.945572
Zn4   Zn    Zn3+2 0.430910 0.576380 0.576380 0.952098

loop_
_geom_bond_atom_site_label_1
_geom_bond_atom_site_label_2
_ccdc_geom_bond_type
C12   C17   S    
C14   C23   S    
C5    C8    S    
C2    C4    S    
C2    C27   T    
C11   O7    A    
O10   Zn4   S    
O6    Zn1   S    
C4    O11   A    
C17   H1    S    
C21   H2    S    
C26   H7    S    
O8    Zn2   S    
O7    Zn4   S    
O1    Zn4   S    
O2    Zn2   S    
C9    C11   S    
C20   H6    S    
O11   Zn1   S    
C18   H14   S    
C6    H9    S    
O9    Zn3   S    
C21   H4    S    
O4    Zn3   S    
C25   C28   S    
C21   H3    S    
C12   C23   T    
C26   C27   S    
C6    C7    S    
C19   H11   S    
C20   H5    S    
C19   H10   S    
C3    C8    T    
C14   O3    A    
C13   C15   S    
C13   O2    A    
C10   O6    A    
C5    C6    D    
C10   O12   A    
C1    O10   A    
C5    C20   S    
C18   H13   S    
C16   C17   D    
C19   H12   S    
O1    Zn2   S    
C25   H8    S    
C7    C9    T    
O1    Zn1   S    
C11   O13   A    
C20   C21   S    
C1    C24   S    
C16   C18   S    
C18   C19   S    
C1    O8    A    
O13   Zn3   S    
C3    C10   S    
C13   O4    A    
O3    Zn4   S    
C16   C22   S    
C4    O9    A    
O1    Zn3   S    
C25   C26   D    
C14   O5    A    
C15   C22   T    
C24   C28   T    
O5    Zn1   S    
O12   Zn2   S    
