data_mof_unit_44344.cif
_audit_creation_date              2012-10-26T19:51:32-0400
_audit_creation_method            fapswitch 2.2
_symmetry_space_group_name_H-M    P1
_symmetry_Int_Tables_number       1
_space_group_crystal_system       triclinic
_cell_length_a                    19.426103
_cell_length_b                    18.130081
_cell_length_c                    9.091311
_cell_angle_alpha                 89.949829
_cell_angle_beta                  90.11891
_cell_angle_gamma                 90.206489
_cell_volume                      3201.90193617

loop_
_atom_site_label
_atom_site_type_symbol
_atom_type_description
_atom_site_fract_x
_atom_site_fract_y
_atom_site_fract_z
_atom_type_partial_charge
C1    C     C_R   0.367484 0.499844 0.499983 0.548250
C2    C     C_R   0.456114 0.201290 0.403467 -0.034231
C3    C     C_R   0.500053 0.838779 0.499992 -0.060813
C4    C     C_R   0.499988 0.161002 0.500004 0.025425
C5    C     C_R   0.549357 0.961363 0.419029 -0.102840
C6    C     C_R   0.450720 0.038452 0.581098 -0.028521
C7    C     C_R   0.450720 0.960886 0.581005 -0.102523
C8    C     C_R   0.549307 0.038929 0.418897 -0.029313
C9    C     C_R   0.500000 0.078266 0.499985 0.134943
C10   C     C_R   0.500051 0.921564 0.500029 -0.029380
C11   C     C_R   0.499967 0.500019 0.220353 0.562288
C12   C     C_R   0.632552 0.500157 0.500196 0.548437
C13   C     C_R   0.500031 0.499980 0.779647 0.566009
C14   C     C_1   0.499986 0.500026 0.065452 -0.041448
C15   C     C_1   0.500011 0.499973 0.934548 -0.039934
C16   C     C_R   0.745014 0.434243 0.495226 -0.114879
C17   C     C_R   0.255255 0.564233 0.530213 -0.109155
C18   C     C_R   0.255779 0.433386 0.473278 -0.110479
C19   C     C_R   0.744270 0.568025 0.507680 -0.104511
C20   C     C_R   0.816731 0.435073 0.496264 -0.088364
C21   C     C_R   0.183553 0.563167 0.533143 -0.083645
C22   C     C_R   0.184114 0.432598 0.474787 -0.073017
C23   C     C_R   0.455588 0.720728 0.411053 0.081146
C24   C     C_R   0.815937 0.568718 0.509066 -0.078355
C25   C     C_R   0.852222 0.502281 0.503371 0.049527
C26   C     C_R   0.147978 0.497335 0.505811 0.053903
C27   C     C_R   0.708184 0.500755 0.500908 0.015681
C28   C     C_R   0.291922 0.499239 0.500911 0.014675
C29   C     C_R   0.964201 0.514871 0.373224 0.007778
C30   C     C_R   0.035979 0.483317 0.638277 -0.014135
C31   C     C_R   0.036943 0.513908 0.374133 0.009888
C32   C     C_R   0.963381 0.487125 0.638251 -0.022304
C33   C     C_R   0.072282 0.496551 0.505746 -0.032523
C34   C     C_R   0.542633 0.279288 0.592691 0.014544
C35   C     C_R   0.927972 0.503145 0.505847 -0.036541
C36   C     C_2   0.924864 0.523509 0.233375 0.295999
C37   C     C_2   0.073257 0.469799 0.779749 0.226970
C38   C     C_2   0.077292 0.533953 0.240343 0.273698
C39   C     C_2   0.924707 0.470219 0.775861 0.255723
C40   C     C_2   0.405469 0.836961 0.308018 0.227443
C41   C     C_2   0.591481 0.166575 0.704236 0.209229
C42   C     C_2   0.594675 0.837451 0.691878 0.226407
C43   C     C_2   0.408466 0.166063 0.295834 0.210657
C44   C     C_R   0.544465 0.720958 0.588882 0.080233
C45   C     C_R   0.457338 0.279050 0.407355 0.015870
C46   C     C_R   0.454228 0.798623 0.408137 -0.012617
C47   C     C_R   0.543851 0.201535 0.596570 -0.034677
C48   C     C_R   0.545871 0.798862 0.591807 -0.012344
Cu1   Cu    Cu3+1 0.500000 0.573360 0.500000 0.970201
Cu2   Cu    Cu3+1 0.500000 0.426640 0.500000 0.950884
H1    H     H_    0.718501 0.381659 0.489955 0.128774
H2    H     H_    0.575839 0.310742 0.665221 0.117882
H3    H     H_    0.578964 0.689628 0.658346 0.175153
H4    H     H_    0.424112 0.310322 0.334883 0.114820
H5    H     H_    0.587843 0.932261 0.355824 0.130950
H6    H     H_    0.412253 0.067547 0.644367 0.122051
H7    H     H_    0.412247 0.931413 0.644208 0.131598
H8    H     H_    0.587758 0.068397 0.355621 0.120236
H9    H     H_    0.876173 0.552560 0.231909 0.119388
H10   H     H_    0.051187 0.488047 0.882941 0.163872
H11   H     H_    0.125923 0.507055 0.217693 0.109326
H12   H     H_    0.281927 0.615654 0.551960 0.144145
H13   H     H_    0.943848 0.428679 0.851370 0.133908
H14   H     H_    0.404655 0.896676 0.301508 0.155872
H15   H     H_    0.625898 0.201051 0.768866 0.105582
H16   H     H_    0.595559 0.897167 0.698318 0.155665
H17   H     H_    0.374044 0.200334 0.231223 0.106052
H18   H     H_    0.282826 0.382641 0.449568 0.126085
H19   H     H_    0.717209 0.620092 0.512398 0.144011
H20   H     H_    0.844663 0.383517 0.491920 0.117997
H21   H     H_    0.155704 0.613498 0.556163 0.136018
H22   H     H_    0.156711 0.381670 0.452425 0.128104
H23   H     H_    0.843234 0.620849 0.514767 0.134543
H24   H     H_    0.421103 0.689226 0.341504 0.176144
N1    N     N_R   0.500000 0.683620 0.500000 -0.268263
N2    N     N_R   0.500000 0.316380 0.500000 -0.230100
O1    O     O_R   0.400190 0.561980 0.499980 -0.508499
O2    O     O_2   0.127989 0.437007 0.783591 -0.491674
O3    O     O_2   0.058188 0.583012 0.157872 -0.457660
O4    O     O_2   0.872144 0.503231 0.807736 -0.453539
O5    O     O_2   0.365398 0.802179 0.230793 -0.496028
O6    O     O_2   0.592918 0.100034 0.724194 -0.497891
O7    O     O_2   0.634702 0.802878 0.769144 -0.497378
O8    O     O_2   0.407015 0.099528 0.275888 -0.496910
O9    O     O_R   0.599810 0.438020 0.500020 -0.507414
O10   O     O_R   0.599810 0.561980 0.500020 -0.508397
O11   O     O_R   0.400190 0.438020 0.499980 -0.504832
O12   O     O_R   0.500000 0.561940 0.288400 -0.491279
O13   O     O_R   0.500000 0.438060 0.711600 -0.496875
O14   O     O_R   0.500000 0.561940 0.711600 -0.491374
O15   O     O_R   0.500000 0.438060 0.288400 -0.499833
O16   O     O_2   0.944953 0.495217 0.119652 -0.479485

loop_
_geom_bond_atom_site_label_1
_geom_bond_atom_site_label_2
_ccdc_geom_bond_type
C1    O11   A    
C7    C10   A    
C21   C26   A    
C13   O14   A    
C1    O1    A    
C16   H1    S    
Cu1   O14   S    
C36   H9    S    
C6    C9    A    
C40   C46   S    
C29   C36   S    
C12   O9    A    
C21   H21   S    
C45   N2    A    
C11   C14   S    
C24   H23   S    
C38   O3    D    
C18   H18   S    
C3    C48   A    
C32   C39   S    
Cu2   O13   S    
Cu2   O9    S    
C8    H8    S    
C44   H3    S    
C8    C9    A    
C1    C28   S    
C31   C33   A    
C19   C27   A    
C2    C43   S    
C38   H11   S    
C36   O16   D    
C16   C27   A    
C23   C46   A    
C43   O8    D    
Cu1   O12   S    
C20   H20   S    
C40   O5    D    
C22   H22   S    
C2    C45   A    
C12   C27   S    
C32   C35   A    
C18   C28   A    
C24   C25   A    
C23   N1    A    
C41   H15   S    
C17   C21   A    
C30   C37   S    
C44   N1    A    
C2    C4    A    
Cu2   N2    S    
C17   H12   S    
C26   C33   S    
C11   O12   A    
C16   C20   A    
Cu1   N1    S    
C41   C47   S    
C42   C48   S    
Cu2   O11   S    
C25   C35   S    
C45   H4    S    
C13   C15   S    
C22   C26   A    
C19   H19   S    
C23   H24   S    
C30   C33   A    
C13   O13   A    
C18   C22   A    
C17   C28   A    
Cu1   O10   S    
C5    H5    S    
C42   O7    D    
C6    H6    S    
C5    C8    A    
C6    C7    A    
C39   H13   S    
C37   O2    D    
C29   C35   A    
C3    C46   A    
C34   H2    S    
C40   H14   S    
C31   C38   S    
C12   O10   A    
C39   O4    D    
C19   C24   A    
C5    C10   A    
C29   C31   A    
C3    C10   S    
C30   C32   A    
C41   O6    D    
Cu1   O1    S    
C37   H10   S    
C11   O15   A    
Cu2   O15   S    
C43   H17   S    
Cu1   Cu2   S    
C20   C25   A    
C42   H16   S    
C14   C15   T    
C34   C47   A    
C4    C9    S    
C7    H7    S    
C44   C48   A    
C34   N2    A    
C4    C47   A    
