data_mof_unit_64496.cif
_audit_creation_date              2012-12-11T17:13:51-0500
_audit_creation_method            fapswitch 2.2
_symmetry_space_group_name_H-M    P1
_symmetry_Int_Tables_number       1
_space_group_crystal_system       triclinic
_cell_length_a                    8.227356
_cell_length_b                    16.414833
_cell_length_c                    17.303939
_cell_angle_alpha                 98.839899
_cell_angle_beta                  97.467316
_cell_angle_gamma                 93.089692
_cell_volume                      2283.049146

loop_
_atom_site_label
_atom_site_type_symbol
_atom_type_description
_atom_site_fract_x
_atom_site_fract_y
_atom_site_fract_z
_atom_type_partial_charge
Ba1   Ba    Ba6+2 0.836100 0.536190 0.461710 1.682824
Ba2   Ba    Ba6+2 0.353720 0.463880 0.538300 1.670632
C1    C     C_3   0.554270 0.816848 0.250941 -0.335178
C2    C     C_3   0.575652 0.735478 0.281364 0.323000
C3    C     C_3   0.439674 0.318471 0.296852 0.319043
C4    C     C_3   0.414631 0.286019 0.208370 0.024795
C5    C     C_3   0.172400 0.303285 0.756008 0.344772
C6    C     C_3   0.216434 0.285569 0.839669 -0.314780
C7    C     C_3   0.682891 0.253902 0.744102 0.355535
C8    C     C_3   0.790705 0.235068 0.817784 0.055901
C9    C     C_2   0.265919 0.502781 0.272982 -0.278041
C10   C     C_3   0.394907 0.494540 0.217909 -0.017019
C11   C     C_2   0.319631 0.496434 0.133410 -0.092389
C12   C     C_3   0.083565 0.702083 0.249720 0.277029
C13   C     C_2   0.155028 0.480816 0.111342 0.002935
C14   C     C_2   0.050250 0.463740 0.172947 -0.112412
C15   C     C_1   0.116649 0.467973 0.247743 0.055730
C16   C     C_R   0.901780 0.461464 0.859781 -0.100889
C17   C     C_R   0.835792 0.451781 0.780107 0.023359
C18   C     C_R   0.080650 0.522197 0.750072 0.056067
C19   C     C_R   0.148412 0.531464 0.830439 -0.122961
C20   C     C_R   0.061597 0.499415 0.886075 0.018491
C21   C     C_2   0.074899 0.474617 0.027600 -0.066293
C22   C     C_2   0.140432 0.508251 0.970571 -0.064183
C23   C     C_3   0.059638 0.719676 0.165440 -0.306888
C24   C     C_R   0.927381 0.479369 0.725341 -0.279938
C25   C     C_R   0.369556 0.731495 0.472593 -0.273727
C26   C     C_R   0.526042 0.759794 0.511587 0.010068
C27   C     C_R   0.580936 0.843126 0.517440 -0.107603
C28   C     C_R   0.478543 0.898797 0.483614 0.260523
C29   C     C_R   0.319331 0.869287 0.446265 -0.121005
C30   C     C_R   0.264536 0.786002 0.441599 0.010728
C31   C     C_R   0.619661 0.146088 0.488509 -0.134567
C32   C     C_R   0.668916 0.229792 0.495611 0.006496
C33   C     C_R   0.724150 0.091458 0.522382 0.298231
C34   C     C_3   0.275990 0.732167 0.670156 0.435309
C35   C     C_R   0.820602 0.260986 0.537897 -0.255126
C36   C     C_R   0.931484 0.208385 0.568055 -0.086939
C37   C     C_R   0.884559 0.122647 0.560539 -0.162970
C38   C     C_3   0.409145 0.780186 0.731914 -0.276429
C39   C     C_3   0.971759 0.282578 0.370218 0.305151
C40   C     C_3   0.984280 0.189290 0.355785 0.013914
C41   C     C_3   0.761968 0.652906 0.699597 0.284470
C42   C     C_3   0.834761 0.687980 0.785397 -0.100718
H1    H     H_    0.707556 0.732754 0.303405 0.112047
H2    H     H_    0.484604 0.736477 0.759979 0.147735
H3    H     H_    0.487511 0.821430 0.704384 0.114706
H4    H     H_    0.353559 0.818540 0.778817 0.150055
H5    H     H_    0.850104 0.296522 0.386399 -0.006919
H6    H     H_    0.067825 0.308890 0.420132 0.038518
H7    H     H_    0.971740 0.163834 0.410551 0.005821
H8    H     H_    0.106448 0.175304 0.338681 0.114088
H9    H     H_    0.861969 0.630057 0.667334 0.029773
H10   H     H_    0.669610 0.600608 0.697848 0.063170
H11   H     H_    0.627676 0.820422 0.201881 0.155270
H12   H     H_    0.855259 0.756412 0.793606 0.162384
H13   H     H_    0.955531 0.663918 0.800662 0.075866
H14   H     H_    0.502200 0.734278 0.330662 -0.020794
H15   H     H_    0.596908 0.869190 0.299399 0.107922
H16   H     H_    0.317622 0.327052 0.316311 0.010801
H17   H     H_    0.513759 0.378759 0.307724 -0.014247
H18   H     H_    0.346173 0.329481 0.175900 0.002751
H19   H     H_    0.535689 0.279396 0.187103 0.112925
H20   H     H_    0.422661 0.821953 0.229396 0.120483
H21   H     H_    0.117822 0.672649 0.126928 0.090734
H22   H     H_    0.239531 0.362409 0.751442 0.095086
H23   H     H_    0.038577 0.310108 0.745364 -0.074809
H24   H     H_    0.351482 0.288833 0.855707 0.183427
H25   H     H_    0.166951 0.332223 0.882122 0.062971
H26   H     H_    0.164481 0.223089 0.844626 0.143131
H27   H     H_    0.765107 0.276660 0.704602 -0.197135
H28   H     H_    0.874331 0.186708 0.800413 0.067636
H29   H     H_    0.024005 0.639693 0.249401 0.072793
H30   H     H_    0.866965 0.291594 0.847237 0.013421
H31   H     H_    0.258440 0.543705 0.985811 0.093544
H32   H     H_    0.919781 0.446725 0.155729 0.102947
H33   H     H_    0.825404 0.440147 0.899867 0.082122
H34   H     H_    0.955549 0.440838 0.014188 0.088195
H35   H     H_    0.401789 0.503857 0.090400 0.080354
H36   H     H_    0.267317 0.565021 0.849778 0.124141
H37   H     H_    0.296605 0.535619 0.333051 0.068955
H38   H     H_    0.874220 0.472726 0.663977 0.068831
H39   H     H_    0.500886 0.123805 0.455141 0.119408
H40   H     H_    0.217567 0.702702 0.269782 -0.020357
H41   H     H_    0.238010 0.911228 0.421379 0.113581
H42   H     H_    0.702041 0.864047 0.548897 0.162121
H43   H     H_    0.326949 0.667313 0.468965 0.079623
H44   H     H_    0.857766 0.325909 0.541720 0.066235
H45   H     H_    0.926355 0.717171 0.143042 0.143757
H46   H     H_    0.117171 0.781910 0.163307 0.137330
H47   H     H_    0.329059 0.695457 0.621554 -0.026904
N1    N     N_2   0.528392 0.984304 0.487041 -0.221863
N2    N     N_2   0.673148 0.005756 0.518495 -0.162667
O1    O     O_2   0.836060 0.445790 0.307930 -0.470821
O2    O     O_3   0.689281 0.716068 0.664821 -0.638748
O3    O     O_3   0.011025 0.762283 0.298246 -0.604185
O4    O     O_2   0.353650 0.554240 0.692110 -0.463495
O5    O     O_3   0.081100 0.548460 0.594090 -0.486480
O6    O     O_3   0.584850 0.404680 0.643890 -0.470526
O7    O     O_3   0.175610 0.684883 0.708315 -0.638376
O8    O     O_3   0.621030 0.400630 0.459910 -0.477745
O9    O     O_3   0.161970 0.361060 0.604300 -0.484972
O10   O     O_2   0.265116 0.214148 0.554258 -0.495343
O11   O     O_3   0.217207 0.238413 0.701799 -0.592342
O12   O     O_3   0.108600 0.451610 0.405920 -0.499776
O13   O     O_3   0.568670 0.599440 0.540100 -0.489879
O14   O     O_2   0.371480 0.300500 0.461810 -0.467082
O15   O     O_3   0.522877 0.261319 0.336376 -0.603846
O16   O     O_2   0.500576 0.466151 0.782217 -0.465519
O17   O     O_3   0.569202 0.311068 0.767245 -0.606256
O18   O     O_3   0.604850 0.595390 0.356120 -0.494911
O19   O     O_2   0.727962 0.554383 0.222491 -0.493409
O20   O     O_3   0.992905 0.314121 0.301109 -0.607673
O21   O     O_3   0.520985 0.669422 0.220035 -0.606655
O22   O     O_2   0.818230 0.699530 0.538240 -0.427189
O23   O     O_3   0.027730 0.639010 0.395710 -0.488594
O24   O     O_2   0.921015 0.787151 0.439034 -0.439854
P1    P     P_3+3 0.011660 0.422550 0.320180 0.996622
P2    P     P_3+3 0.650900 0.688870 0.561900 1.015444
P3    P     P_3+3 0.055732 0.745283 0.395886 0.995721
P4    P     P_3+3 0.178040 0.577520 0.679830 0.996723
P5    P     P_3+3 0.142861 0.254689 0.606271 0.940148
P6    P     P_3+3 0.564698 0.576233 0.253324 0.961703
P7    P     P_3+3 0.548505 0.296454 0.438176 0.979124
P8    P     P_3+3 0.623640 0.409085 0.745705 0.985988
I1    I     I_    0.796360 0.128275 0.265201 -0.298392
I2    I     I_    0.685766 0.655821 0.870560 -0.476436
I3    I     I_    0.274659 0.169129 0.181133 -0.281520
C43   C     C_2   0.589390 0.177401 0.696006 0.550661
H48   H     H_    0.510104 0.183108 0.642559 0.033848
O25   O     O_2   0.602739 0.108995 0.714644 -0.557738
I4    I     I_    0.653360 0.195975 0.904585 -0.315749
C44   C     C_2   0.004318 0.066293 0.590496 0.559352
H49   H     H_    0.107718 0.090102 0.635053 0.044352
O26   O     O_2   0.991594 0.992508 0.564377 -0.531035
I5    I     I_    0.129168 0.822799 0.626950 -0.349048

loop_
_geom_bond_atom_site_label_1
_geom_bond_atom_site_label_2
_ccdc_geom_bond_type
C38   H3    S    
C11   H35   S    
C42   I2    S    
C29   H41   S    
O13   P2    S    
O5    P4    S    
C32   C35   A    
O1    P1    D    
C39   C40   S    
C35   H44   S    
C12   H40   S    
C5    C6    S    
O6    P8    S    
C1    H20   S    
C9    H37   S    
C38   H2    S    
C6    H25   S    
C35   C36   A    
C2    O21   S    
C26   C27   A    
O15   P7    S    
Ba1   Ba2   S    
C28   C29   A    
O11   P5    S    
Ba2   O9    S    
C13   C14   S    
Ba2   O14   S    
O7    P4    S    
Ba1   P2    S    
C39   H5    S    
C17   C24   A    
O4    P4    D    
C1    H11   S    
C41   H9    S    
Ba2   O4    S    
C14   C15   D    
C41   O2    S    
C21   C22   D    
Ba1   O23   S    
C7    C8    S    
C40   H7    S    
C13   C21   S    
C24   H38   S    
C16   C20   A    
C19   C20   A    
O14   P7    D    
C30   P3    S    
C34   I5    S    
C12   O3    S    
Ba1   O12   S    
C2    H1    S    
C33   N2    S    
C36   C37   A    
O8    P7    S    
O18   P6    S    
C12   H29   S    
C34   C38   S    
C23   H21   S    
O19   P6    D    
C28   N1    S    
O24   P3    D    
C16   C17   A    
Ba2   O8    S    
O2    P2    S    
Ba2   O13   S    
O23   P3    S    
C4    H19   S    
C33   C37   A    
C41   C42   S    
C27   C28   A    
C42   H12   S    
C41   H10   S    
C29   C30   A    
C42   H13   S    
C31   C32   A    
C18   P4    S    
C3    H17   S    
C34   O7    S    
C21   H34   S    
C10   C11   S    
C25   H43   S    
C31   H39   S    
C27   H42   S    
C36   P5    S    
C15   P1    S    
O21   P6    S    
C34   H47   S    
O16   P8    D    
Ba2   O6    S    
C6    H24   S    
O22   P2    D    
C5    O11   S    
C11   C13   D    
C8    H28   S    
C44   H49   S    
C20   C22   S    
O12   P1    S    
C1    C2    S    
Ba1   O8    S    
C39   H6    S    
C43   H48   S    
C37   C44   S    
Ba2   P4    S    
C7    O17   S    
C38   H4    S    
C9    C15   D    
C32   P7    S    
C3    H16   S    
C25   C30   A    
C14   H32   S    
C23   H45   S    
O3    P3    S    
C23   H46   S    
C7    H27   S    
C39   O20   S    
C26   P2    S    
Ba1   O5    S    
Ba1   O1    S    
C9    C10   S    
C22   H31   S    
C7    C43   S    
Ba1   O13   S    
Ba2   O12   S    
C6    H26   S    
C4    H18   S    
C4    I3    S    
Ba1   O18   S    
C5    H22   S    
C8    H30   S    
C3    C4    S    
C10   P6    S    
C18   C24   A    
C16   H33   S    
C19   H36   S    
N1    N2    D    
C31   C33   A    
C17   P8    S    
Ba1   P1    S    
C12   C23   S    
C8    I4    S    
C40   I1    S    
O17   P8    S    
C5    H23   S    
O20   P1    S    
C18   C19   A    
Ba2   O5    S    
C2    H14   S    
C25   C26   A    
C44   O26   D    
Ba1   O22   S    
O9    P5    S    
O10   P5    D    
C40   H8    S    
C43   O25   D    
C3    O15   S    
C1    H15   S    
