data_mof_unit_45927.cif
_audit_creation_date              2012-12-11T17:09:36-0500
_audit_creation_method            fapswitch 2.2
_symmetry_space_group_name_H-M    P1
_symmetry_Int_Tables_number       1
_space_group_crystal_system       monoclinic
_cell_length_a                    14.773833
_cell_length_b                    6.952249
_cell_length_c                    13.553518
_cell_angle_alpha                 90.0
_cell_angle_beta                  99.969926
_cell_angle_gamma                 90.0
_cell_volume                      1371.07790743

loop_
_atom_site_label
_atom_site_type_symbol
_atom_type_description
_atom_site_fract_x
_atom_site_fract_y
_atom_site_fract_z
_atom_type_partial_charge
O1    O     O_R   0.586930 0.505770 0.416350 -0.543119
O2    O     O_R   0.413070 0.005770 0.583650 -0.543119
O3    O     O_R   0.397900 0.173100 0.389630 -0.540918
O4    O     O_R   0.602100 0.673100 0.610370 -0.540918
C1    C     C_R   0.364480 0.345411 0.362737 0.746689
C2    C     C_R   0.635520 0.845411 0.637263 0.746689
O5    O     O_R   0.585280 0.175870 0.404330 -0.535842
O6    O     O_R   0.414720 0.675870 0.595670 -0.535842
O7    O     O_R   0.601790 0.008380 0.598460 -0.530339
O8    O     O_R   0.398210 0.508380 0.401540 -0.530340
C3    C     C_R   0.614261 0.345156 0.382448 0.723518
C4    C     C_R   0.385738 0.845156 0.617552 0.723518
O9    O     O_3   0.505200 0.340120 0.563670 -0.365185
O10   O     O_3   0.494800 0.840120 0.436330 -0.365185
V1    V     V_3+5 0.499040 0.064180 0.488190 1.488966
V2    V     V_3+5 0.500960 0.564180 0.511810 1.488967
C5    C     C_R   0.252932 0.006345 0.678577 0.039732
C6    C     C_R   0.747068 0.506345 0.321422 0.039732
C7    C     C_R   0.316567 0.855340 0.684924 -0.146129
C8    C     C_R   0.683432 0.355340 0.315076 -0.146129
C9    C     C_R   0.315324 0.718402 0.760484 -0.261714
C10   C     C_R   0.684676 0.218402 0.239516 -0.261714
H1    H     H_    0.368046 0.610989 0.771913 0.156648
H2    H     H_    0.631954 0.110989 0.228087 0.156648
C11   C     C_R   0.251994 0.728767 0.827588 0.393296
C12   C     C_R   0.748006 0.228767 0.172411 0.393296
C13   C     C_R   0.185597 0.877553 0.817651 -0.173931
C14   C     C_R   0.814403 0.377553 0.182349 -0.173931
C15   C     C_R   0.188253 0.016059 0.743080 0.004685
C16   C     C_R   0.811747 0.516059 0.256920 0.004685
C17   C     C_3   0.202362 0.227053 0.758960 -0.408869
C18   C     C_3   0.797638 0.727053 0.241040 -0.408869
C19   C     C_3   0.273243 0.216691 0.690167 -0.097598
C20   C     C_3   0.726757 0.716691 0.309833 -0.097599
H3    H     H_    0.231033 0.258684 0.838442 0.201048
H4    H     H_    0.768967 0.758684 0.161558 0.201048
H5    H     H_    0.139267 0.310051 0.728625 0.181917
H6    H     H_    0.860733 0.810051 0.271375 0.181917
C21   C     C_1   0.783774 0.877131 0.782512 -0.183715
C22   C     C_1   0.216226 0.377131 0.217488 -0.183716
C23   C     C_1   0.716298 0.860062 0.716610 -0.147239
C24   C     C_1   0.283702 0.360062 0.283390 -0.147238
O11   O     O_R   0.101720 0.231700 0.098560 -0.542179
O12   O     O_R   0.898280 0.731700 0.901440 -0.542179
O13   O     O_R   0.914700 0.558980 0.095690 -0.547110
O14   O     O_R   0.085300 0.058980 0.904310 -0.547110
C25   C     C_R   0.883724 0.389946 0.115170 0.726973
C26   C     C_R   0.116276 0.889946 0.884830 0.726974
O15   O     O_R   0.102080 0.561590 0.110390 -0.534017
O16   O     O_R   0.897920 0.061590 0.889610 -0.534017
O17   O     O_R   0.086950 0.728940 0.916330 -0.514297
O18   O     O_R   0.913050 0.228940 0.083670 -0.514297
C27   C     C_R   0.135805 0.391908 0.137677 0.736997
C28   C     C_R   0.864194 0.891908 0.862323 0.736997
O19   O     O_3   0.994770 0.394510 0.936380 -0.369347
O20   O     O_3   0.005230 0.894510 0.063620 -0.369348
V3    V     V_3+5 0.000970 0.670520 0.011800 1.467830
V4    V     V_3+5 0.999030 0.170520 0.988200 1.467830
O21   O     O_3   0.253253 0.590003 0.901045 -0.577064
C29   C     C_3   0.332533 0.608817 0.975819 0.062908
H7    H     H_    0.315188 0.701044 0.036945 0.132345
H8    H     H_    0.392591 0.674479 0.948682 0.119411
C30   C     C_3   0.360916 0.409115 0.017665 -0.305455
H9    H     H_    0.302004 0.339700 0.044484 0.186685
H10   H     H_    0.380024 0.317921 0.957296 0.200850
C31   C     C_3   0.442418 0.418896 0.103623 -0.805809
H11   H     H_    0.503055 0.482467 0.077408 0.237132
H12   H     H_    0.460521 0.271656 0.132181 0.216976
H13   H     H_    0.424562 0.506807 0.165863 0.245364
O22   O     O_3   0.746747 0.090003 0.098955 -0.577064
C32   C     C_3   0.667467 0.108817 0.024181 0.062908
H14   H     H_    0.684812 0.201044 0.963055 0.132345
H15   H     H_    0.607409 0.174480 0.051318 0.119411
C33   C     C_3   0.639083 0.909115 0.982335 -0.305455
H16   H     H_    0.697996 0.839699 0.955516 0.186685
H17   H     H_    0.619976 0.817922 0.042705 0.200850
C34   C     C_3   0.557582 0.918896 0.896377 -0.805808
H18   H     H_    0.496945 0.982468 0.922592 0.237132
H19   H     H_    0.539478 0.771655 0.867819 0.216975
H20   H     H_    0.575438 0.006806 0.834137 0.245364
C35   C     C_1   0.368366 0.254685 0.740195 0.310201
N1    N     N_1   0.443382 0.282709 0.778866 -0.402833
C36   C     C_1   0.631634 0.754685 0.259805 0.310201
N2    N     N_1   0.556618 0.782709 0.221135 -0.402833
C37   C     C_1   0.247078 0.324420 0.596236 0.328153
N3    N     N_1   0.226036 0.409770 0.522546 -0.375613
C38   C     C_1   0.752922 0.824420 0.403764 0.328153
N4    N     N_1   0.773965 0.909770 0.477454 -0.375613

loop_
_geom_bond_atom_site_label_1
_geom_bond_atom_site_label_2
_ccdc_geom_bond_type
C13   C26   S    
C31   H12   S    
C38   N4    T    
C30   H10   S    
C14   C25   S    
C13   C15   A    
C5    C15   A    
O1    C3    A    
C1    C24   S    
O2    C4    A    
C2    O7    A    
C35   N1    T    
C21   C23   T    
C37   N3    T    
O5    C3    A    
O13   V3    S    
O16   C28   A    
C33   H17   S    
C29   C30   S    
C18   H4    S    
C7    C9    A    
C21   C28   S    
O15   V3    S    
O20   V3    S    
C4    C7    S    
C29   H8    S    
C19   C37   S    
O11   V4    S    
O11   C27   A    
C26   O17   A    
C33   C34   S    
C17   C19   S    
O22   C32   S    
C6    C16   A    
O10   V2    S    
C18   H6    S    
C22   C24   T    
C31   H11   S    
C30   C31   S    
O21   C29   S    
O6    V2    S    
O14   V4    S    
C5    C19   S    
O13   C25   A    
C9    H1    S    
O14   C26   A    
C3    C8    S    
C33   H16   S    
O16   V4    S    
O4    C2    A    
C32   H15   S    
C34   H18   S    
C2    C23   S    
C17   H5    S    
C29   H7    S    
C18   C20   S    
O4    V2    S    
C36   N2    T    
O9    V1    S    
O12   V3    S    
O6    C4    A    
C34   H19   S    
O1    V2    S    
O2    V1    S    
C6    C20   S    
O18   V4    S    
O17   V3    S    
C8    C10   A    
O19   V3    S    
C12   O22   S    
C10   H2    S    
O9    V2    S    
C20   C36   S    
O3    V1    S    
C34   H20   S    
C9    C11   A    
O3    C1    A    
C32   C33   S    
C25   O18   A    
C11   C13   A    
C12   C14   A    
C14   C16   A    
O7    V1    S    
C1    O8    A    
C15   C17   S    
O8    V2    S    
C16   C18   S    
O15   C27   A    
C17   H3    S    
O5    V1    S    
C5    C7    A    
O20   V4    S    
C6    C8    A    
C20   C38   S    
C30   H9    S    
C31   H13   S    
O12   C28   A    
C32   H14   S    
C22   C27   S    
C10   C12   A    
O19   V4    S    
O10   V1    S    
C11   O21   S    
C19   C35   S    
