data_mof_unit_34605.cif
_audit_creation_date              2012-12-11T15:22:40-0500
_audit_creation_method            fapswitch 2.2
_symmetry_space_group_name_H-M    P1
_symmetry_Int_Tables_number       1
_space_group_crystal_system       triclinic
_cell_length_a                    22.841885
_cell_length_b                    7.218402
_cell_length_c                    20.795984
_cell_angle_alpha                 89.976304
_cell_angle_beta                  93.242743
_cell_angle_gamma                 89.974043
_cell_volume                      3423.39066869

loop_
_atom_site_label
_atom_site_type_symbol
_atom_type_description
_atom_site_fract_x
_atom_site_fract_y
_atom_site_fract_z
_atom_type_partial_charge
O1    O     O_R   0.438030 0.494310 0.439340 -0.536460
O2    O     O_R   0.561970 0.994310 0.560660 -0.535965
O3    O     O_R   0.556900 0.822900 0.435960 -0.537116
O4    O     O_R   0.443100 0.322900 0.564040 -0.537185
C1    C     C_R   0.575913 0.655563 0.421159 0.720681
C2    C     C_R   0.424098 0.155568 0.578853 0.720339
O5    O     O_R   0.438170 0.823950 0.431660 -0.542139
O6    O     O_R   0.561830 0.323950 0.568340 -0.542016
O7    O     O_R   0.442390 0.995390 0.556340 -0.531571
O8    O     O_R   0.557610 0.495390 0.443660 -0.531607
C3    C     C_R   0.418439 0.655349 0.415692 0.697346
C4    C     C_R   0.581584 0.155246 0.584249 0.695815
O9    O     O_3   0.501520 0.661170 0.540910 -0.376842
O10   O     O_3   0.498480 0.161170 0.459090 -0.377011
V1    V     V_3+5 0.499720 0.935580 0.492410 1.418473
V2    V     V_3+5 0.500280 0.435580 0.507590 1.418178
C5    C     C_R   0.828249 0.953249 0.859286 -0.239298
C6    C     C_R   0.169808 0.448983 0.143567 -0.223836
C7    C     C_R   0.872708 0.086499 0.861460 -0.140720
C8    C     C_R   0.126559 0.586361 0.139426 -0.157727
C9    C     C_R   0.871478 0.230056 0.814798 0.262012
C10   C     C_R   0.128462 0.733301 0.184987 0.266408
C11   C     C_R   0.821846 0.249914 0.770079 0.028667
C12   C     C_R   0.178021 0.752637 0.229959 0.017461
C13   C     C_R   0.776994 0.111688 0.769344 -0.089108
C14   C     C_R   0.222138 0.612042 0.231688 -0.102461
C15   C     C_R   0.780455 0.962067 0.813746 0.023957
C16   C     C_R   0.217192 0.458164 0.189375 0.062035
C17   C     C_R   0.814357 0.402580 0.726424 0.301704
C18   C     C_R   0.186205 0.906413 0.273038 0.289775
C19   C     C_R   0.764454 0.413412 0.684111 -0.255288
C20   C     C_R   0.236984 0.919032 0.313983 -0.264686
C21   C     C_R   0.722209 0.274419 0.681601 0.060213
C22   C     C_R   0.278800 0.778630 0.316971 0.068404
C23   C     C_R   0.728365 0.122485 0.723923 0.056722
C24   C     C_R   0.271242 0.623273 0.276541 0.063792
C25   C     C_R   0.685368 0.982142 0.720941 0.056022
C26   C     C_R   0.312945 0.478711 0.281273 0.071774
C27   C     C_R   0.689741 0.834204 0.764314 -0.231953
C28   C     C_R   0.306424 0.325367 0.240501 -0.272593
C29   C     C_R   0.736077 0.823538 0.811946 0.297186
C30   C     C_R   0.259872 0.315387 0.193761 0.292962
C31   C     C_R   0.673502 0.286781 0.637426 -0.182336
C32   C     C_R   0.327761 0.790837 0.360798 -0.184953
C33   C     C_R   0.631354 0.145336 0.633193 -0.078622
C34   C     C_R   0.368673 0.645752 0.366694 -0.082323
C35   C     C_R   0.637813 0.992695 0.674983 -0.200582
C36   C     C_R   0.360736 0.489428 0.326826 -0.199021
H1    H     H_    0.831586 0.841673 0.894037 0.154202
H2    H     H_    0.166425 0.334324 0.110003 0.181199
H3    H     H_    0.758769 0.532896 0.652740 0.146216
H4    H     H_    0.243061 0.039406 0.344845 0.146841
H5    H     H_    0.669185 0.404574 0.605110 0.134312
H6    H     H_    0.333023 0.911104 0.391825 0.134515
H7    H     H_    0.605174 0.883506 0.672490 0.123645
H8    H     H_    0.392228 0.376959 0.330654 0.126606
H9    H     H_    0.655590 0.730242 0.761702 0.133664
H10   H     H_    0.338281 0.213876 0.244023 0.131471
C37   C     C_3   0.255849 0.227664 0.815568 -0.403241
C38   C     C_3   0.744306 0.728155 0.184621 -0.403399
C39   C     C_3   0.229489 0.911515 0.772854 -0.328574
C40   C     C_3   0.770524 0.411523 0.227152 -0.328361
C41   C     C_3   0.279999 0.927360 0.726260 -0.354496
C42   C     C_3   0.720069 0.427339 0.273819 -0.354681
H11   H     H_    0.346919 0.192542 0.790390 0.157406
H12   H     H_    0.653221 0.692863 0.209685 0.157766
H13   H     H_    0.274485 0.166894 0.861491 0.161645
H14   H     H_    0.725697 0.667958 0.138622 0.161747
H15   H     H_    0.194325 0.820930 0.751103 0.200822
H16   H     H_    0.805656 0.320461 0.248786 0.200701
H17   H     H_    0.246211 0.843508 0.818304 0.140907
H18   H     H_    0.753723 0.344053 0.181664 0.141092
H19   H     H_    0.321154 0.874015 0.750899 0.147853
H20   H     H_    0.678892 0.374149 0.249233 0.148057
H21   H     H_    0.270787 0.836135 0.683922 0.192359
H22   H     H_    0.729338 0.335980 0.316146 0.192385
C43   C     C_1   0.377858 0.147266 0.623857 -0.157988
C44   C     C_1   0.622183 0.647246 0.376195 -0.157733
C45   C     C_3   0.204507 0.105344 0.787827 0.149184
C46   C     C_3   0.795590 0.605296 0.212302 0.149670
C47   C     C_3   0.304949 0.244378 0.767181 -0.387094
C48   C     C_3   0.695156 0.744611 0.232953 -0.386604
C49   C     C_3   0.289098 0.131805 0.704948 0.166444
C50   C     C_3   0.710983 0.631733 0.295164 0.166174
C51   C     C_3   0.229673 0.210017 0.672563 0.484825
C52   C     C_3   0.770409 0.709585 0.327579 0.485250
C53   C     C_3   0.180271 0.195345 0.723478 0.135292
C54   C     C_3   0.819850 0.694663 0.276712 0.134683
C55   C     C_1   0.338407 0.140433 0.660664 -0.038358
C56   C     C_1   0.661659 0.640395 0.339423 -0.038120
C57   C     C_1   0.158355 0.092253 0.835702 -0.005617
C58   C     C_1   0.841737 0.592245 0.164416 -0.005810
C59   C     C_1   0.120644 0.083414 0.874569 -0.126615
C60   C     C_1   0.879418 0.583429 0.125512 -0.127825
H23   H     H_    0.166227 0.337557 0.736409 0.117139
H24   H     H_    0.834036 0.836797 0.263875 0.117277
H25   H     H_    0.239434 0.368450 0.826955 0.151429
H26   H     H_    0.760772 0.868976 0.173397 0.151417
H27   H     H_    0.311979 0.392765 0.755432 0.163299
H28   H     H_    0.688063 0.892939 0.244728 0.163253
O11   O     O_R   0.942420 0.735670 0.056390 -0.530573
O12   O     O_R   0.057580 0.235670 0.943610 -0.529979
O13   O     O_R   0.061840 0.404850 0.068350 -0.537660
O14   O     O_R   0.938160 0.904850 0.931650 -0.537512
C61   C     C_R   0.079908 0.574269 0.086309 0.737485
C62   C     C_R   0.919871 0.074276 0.913963 0.735564
O15   O     O_R   0.943100 0.406010 0.064050 -0.537092
O16   O     O_R   0.056900 0.906010 0.935950 -0.537194
O17   O     O_R   0.938020 0.234710 0.939330 -0.522242
O18   O     O_R   0.061980 0.734710 0.060670 -0.520642
C63   C     C_R   0.924368 0.574470 0.079000 0.720239
C64   C     C_R   0.075651 0.074460 0.921026 0.723947
O19   O     O_3   0.998500 0.567790 0.959120 -0.359461
O20   O     O_3   0.001500 0.067790 0.040880 -0.358120
V3    V     V_3+5 0.000280 0.293330 0.007580 1.530601
V4    V     V_3+5 0.999720 0.793330 0.992420 1.529559
Br1   Br    Br    0.106842 0.077665 0.691010 -0.471596
Br2   Br    Br    0.893149 0.575919 0.309182 -0.474422
N1    N     N_2   0.237059 0.405152 0.654871 -0.579801
H29   H     H_    0.277155 0.439011 0.637725 0.262360
C65   C     C_3   0.189312 0.496575 0.618315 -0.408496
H30   H     H_    0.194620 0.648739 0.622890 0.223624
H31   H     H_    0.145997 0.459291 0.636045 0.233333
H32   H     H_    0.190116 0.459739 0.566537 0.234348
N2    N     N_2   0.763067 0.904762 0.345204 -0.579803
H33   H     H_    0.722933 0.939007 0.362188 0.262225
C66   C     C_3   0.810782 0.995845 0.381846 -0.408434
H34   H     H_    0.805796 0.148028 0.376807 0.223836
H35   H     H_    0.854153 0.957103 0.364567 0.233411
H36   H     H_    0.809579 0.960107 0.433694 0.234012
Br3   Br    Br    0.942508 0.375065 0.808616 -0.477846
Br4   Br    Br    0.058885 0.886851 0.188542 -0.476591
Br5   Br    Br    0.211366 0.067819 0.592539 -0.553145
Br6   Br    Br    0.788623 0.567309 0.407659 -0.552901
N3    N     N_2   0.853940 0.554440 0.727251 -0.482555
H37   H     H_    0.834211 0.678366 0.737831 0.268294
C67   C     C_3   0.887818 0.569149 0.670661 -0.385386
H38   H     H_    0.921264 0.679709 0.678306 0.223624
H39   H     H_    0.859048 0.605296 0.627613 0.175881
H40   H     H_    0.910780 0.436514 0.661907 0.231638
N4    N     N_2   0.145490 0.054903 0.274579 -0.481058
H41   H     H_    0.164350 0.182207 0.267070 0.264527
C68   C     C_3   0.111132 0.056451 0.331011 -0.381079
H42   H     H_    0.077201 0.166427 0.325677 0.222317
H43   H     H_    0.139510 0.085349 0.375039 0.177836
H44   H     H_    0.088727 0.921140 0.336426 0.230156
N5    N     N_2   0.738401 0.677944 0.859052 -0.516661
H45   H     H_    0.742628 0.723463 0.906077 0.243067
C69   C     C_3   0.700857 0.517259 0.850548 -0.554881
H46   H     H_    0.715078 0.409344 0.886159 0.197573
H47   H     H_    0.704177 0.457979 0.801773 0.213994
H48   H     H_    0.654682 0.555172 0.858443 0.184016
N6    N     N_2   0.255531 0.158374 0.152327 -0.515251
H49   H     H_    0.268968 0.036443 0.174491 0.261674
C70   C     C_3   0.282387 0.184259 0.091633 -0.583293
H50   H     H_    0.273781 0.060888 0.060658 0.197696
H51   H     H_    0.330575 0.201735 0.099892 0.194748
H52   H     H_    0.263812 0.307754 0.065919 0.199357

loop_
_geom_bond_atom_site_label_1
_geom_bond_atom_site_label_2
_ccdc_geom_bond_type
C68   H44   S    
C18   C20   A    
C61   O18   A    
C54   H24   S    
O4    V2    S    
C70   H51   S    
O12   C64   A    
N5    H45   S    
O1    C3    A    
C36   H8    S    
O2    C4    A    
C2    O7    A    
O14   C62   A    
O20   V3    S    
N3    H37   S    
C27   C29   A    
C52   N2    S    
C44   C56   T    
O5    C3    A    
C67   H39   S    
C43   C55   T    
C18   N4    S    
C17   N3    S    
C11   C17   A    
C40   C46   S    
N5    C69   S    
C12   C14   A    
C53   Br1   S    
C38   H26   S    
C69   H47   S    
C52   C54   S    
H12   C48   S    
C68   H42   S    
C27   H9    S    
C60   C63   S    
C40   H16   S    
C68   H43   S    
C51   N1    S    
C7    C62   S    
C42   C50   S    
C65   H32   S    
C40   C42   S    
O12   V3    S    
C37   H13   S    
O14   V4    S    
C38   C48   S    
C31   H5    S    
C20   H4    S    
N6    H49   S    
C32   C34   A    
C53   H23   S    
C19   C21   A    
C25   C35   A    
C45   C57   S    
C26   C36   A    
O19   V4    S    
C39   H17   S    
C33   C35   A    
O6    V2    S    
C46   C54   S    
C70   H52   S    
C50   C56   S    
C45   C53   S    
C47   C49   S    
C52   Br6   S    
C51   C53   S    
C49   C55   S    
C67   H40   S    
C34   C36   A    
C28   H10   S    
C5    C15   A    
C30   N6    S    
C6    C16   A    
O4    C2    A    
C69   H48   S    
C37   C45   S    
C4    C33   S    
C2    C43   S    
O5    V1    S    
C41   H19   S    
O16   C64   A    
C41   C49   S    
C20   C22   A    
C46   C58   S    
O13   V3    S    
C66   H35   S    
C57   C59   T    
C15   C29   A    
H11   C47   S    
C29   N5    S    
O6    C4    A    
C39   C41   S    
C42   H22   S    
C40   H18   S    
O13   C61   A    
O1    V2    S    
O2    V1    S    
C31   C33   A    
O15   V3    S    
C65   H30   S    
N1    C65   S    
C13   C23   A    
C14   C24   A    
C49   C51   S    
C8    C10   A    
C48   C50   S    
C9    C11   A    
N2    H33   S    
C37   H25   S    
C10   C12   A    
N6    C70   S    
C5    H1    S    
C66   H34   S    
O18   V4    S    
O3    V1    S    
C6    H2    S    
C35   H7    S    
C8    C61   S    
C39   H15   S    
N3    C67   S    
C22   C32   A    
C38   C46   S    
C10   Br4   S    
O15   C63   A    
C37   C47   S    
C19   H3    S    
C28   C30   A    
O3    C1    A    
N1    H29   S    
C13   C15   A    
C47   H27   S    
C67   H38   S    
C14   C16   A    
C48   H28   S    
O16   V4    S    
N4    C68   S    
O7    V1    S    
C66   H36   S    
C23   C25   A    
C17   C19   A    
O8    V2    S    
N4    H41   S    
C24   C26   A    
C26   C28   A    
C58   C60   T    
C41   H21   S    
C39   C45   S    
C9    Br3   S    
O11   C63   A    
C16   C30   A    
C21   C23   A    
C22   C24   A    
C6    C8    A    
C11   C13   A    
C12   C18   A    
C65   H31   S    
O17   V3    S    
C59   C64   S    
C5    C7    A    
C32   H6    S    
C1    O8    A    
C38   H14   S    
C25   C27   A    
O9    V2    S    
C70   H50   S    
N2    C66   S    
O11   V4    S    
C42   H20   S    
O10   V1    S    
C50   C52   S    
C3    C34   S    
C1    C44   S    
C69   H46   S    
C21   C31   A    
C54   Br2   S    
C51   Br5   S    
C7    C9    A    
C62   O17   A    
