data_mof_unit_47567.cif
_audit_creation_date              2012-12-11T15:24:02-0500
_audit_creation_method            fapswitch 2.2
_symmetry_space_group_name_H-M    P1
_symmetry_Int_Tables_number       1
_space_group_crystal_system       triclinic
_cell_length_a                    17.282845
_cell_length_b                    24.215417
_cell_length_c                    15.082936
_cell_angle_alpha                 90.277694
_cell_angle_beta                  125.802846
_cell_angle_gamma                 89.909879
_cell_volume                      5119.49257545

loop_
_atom_site_label
_atom_site_type_symbol
_atom_type_description
_atom_site_fract_x
_atom_site_fract_y
_atom_site_fract_z
_atom_type_partial_charge
C1    C     C_R   0.354303 0.346448 0.909471 -0.064701
C2    C     C_R   0.689637 0.374887 0.091457 -0.048856
C3    C     C_R   0.854306 0.846448 0.909470 -0.063920
C4    C     C_R   0.189658 0.874916 0.091461 -0.057521
C5    C     C_R   0.378212 0.683186 0.998464 0.098130
C6    C     C_R   0.689246 0.639001 0.004481 0.074663
C7    C     C_R   0.878226 0.183189 0.998453 0.093632
C8    C     C_R   0.189243 0.139004 0.004480 0.079408
C9    C     C_R   0.464298 0.501729 0.289044 -0.144325
C10   C     C_R   0.431282 0.501397 0.634068 -0.059697
C11   C     C_R   0.964275 0.001736 0.289023 -0.144489
C12   C     C_R   0.931283 0.001399 0.634068 -0.061838
C13   C     C_R   0.176103 0.498787 0.730990 0.096469
C14   C     C_R   0.808715 0.499369 0.359854 0.131203
C15   C     C_R   0.676103 0.998783 0.730974 0.093064
C16   C     C_R   0.308694 0.999366 0.359863 0.101869
C17   C     C_2   0.922406 0.457946 0.539207 -0.062208
C18   C     C_2   0.020797 0.454476 0.637665 -0.082886
C19   C     C_2   0.422425 0.957933 0.539170 -0.057021
C20   C     C_2   0.520812 0.954461 0.637619 -0.089927
C21   C     C_2   0.894213 0.500970 0.471068 -0.151603
C22   C     C_2   0.074643 0.499833 0.683315 -0.183587
C23   C     C_2   0.394236 0.000955 0.471031 -0.174472
C24   C     C_2   0.574643 0.999822 0.683282 -0.179397
C25   C     C_R   0.276882 0.763527 0.897896 -0.133059
C26   C     C_R   0.837363 0.693687 0.105932 -0.136545
C27   C     C_R   0.776889 0.263524 0.897878 -0.133855
C28   C     C_R   0.337355 0.193691 0.105932 -0.137529
C29   C     C_R   0.734147 0.311348 0.898505 -0.160256
C30   C     C_R   0.388705 0.236264 0.103835 -0.172136
C31   C     C_R   0.234173 0.811369 0.898513 -0.178603
C32   C     C_R   0.888714 0.736260 0.103832 -0.172170
C33   C     C_R   0.764619 0.336641 0.998085 -0.075969
C34   C     C_R   0.368710 0.254384 0.004046 -0.025557
C35   C     C_R   0.264664 0.836681 0.998087 -0.044776
C36   C     C_R   0.868715 0.754380 0.004042 -0.025883
C37   C     C_R   0.854588 0.321801 0.093505 0.478236
C38   C     C_R   0.313326 0.219906 0.910789 0.450929
C39   C     C_R   0.354641 0.821832 0.093505 0.549111
C40   C     C_R   0.813328 0.719903 0.910784 0.452717
C41   C     C_R   0.396279 0.772501 0.092650 -0.292228
C42   C     C_R   0.758367 0.678348 0.912705 -0.309984
C43   C     C_R   0.896265 0.272492 0.092629 -0.259762
C44   C     C_R   0.258363 0.178353 0.912706 -0.305814
C45   C     C_R   0.440245 0.651513 0.089682 -0.120614
C46   C     C_R   0.599790 0.625156 0.911263 -0.119647
C47   C     C_R   0.940253 0.151517 0.089675 -0.120783
C48   C     C_R   0.099787 0.125159 0.911263 -0.117549
C49   C     C_R   0.352294 0.740888 0.996462 0.057282
C50   C     C_R   0.764343 0.668845 0.008123 0.089041
C51   C     C_R   0.852302 0.240888 0.996441 0.057093
C52   C     C_R   0.264337 0.168849 0.008123 0.090962
C53   C     C_R   0.494517 0.539903 0.542067 -0.175174
C54   C     C_R   0.502678 0.540559 0.457354 -0.106744
C55   C     C_R   0.994541 0.039891 0.542081 -0.172211
C56   C     C_R   0.002690 0.040551 0.457359 -0.106107
C57   C     C_R   0.444051 0.506271 0.367504 0.199877
C58   C     C_R   0.426962 0.505439 0.536620 0.126328
C59   C     C_R   0.944031 0.006282 0.367487 0.198201
C60   C     C_R   0.926966 0.005440 0.536623 0.125712
C61   C     C_R   0.372688 0.474036 0.358016 -0.107316
C62   C     C_R   0.363245 0.474160 0.442963 -0.052858
C63   C     C_R   0.872652 0.974060 0.357991 -0.104540
C64   C     C_R   0.863223 0.974179 0.442950 -0.054356
C65   C     C_R   0.494477 0.454464 0.264892 0.535183
C66   C     C_R   0.445137 0.454499 0.693870 0.460795
C67   C     C_R   0.994451 0.954468 0.264871 0.536181
C68   C     C_R   0.945135 0.954499 0.693867 0.464591
C69   C     C_R   0.231827 0.545130 0.754424 -0.124372
C70   C     C_R   0.758724 0.545240 0.299820 -0.149037
C71   C     C_R   0.731824 0.045128 0.754414 -0.126522
C72   C     C_R   0.258725 0.045239 0.299821 -0.136207
C73   C     C_R   0.485153 0.546889 0.252188 -0.209550
C74   C     C_R   0.450522 0.546163 0.699206 -0.236578
C75   C     C_R   0.985146 0.046893 0.252179 -0.207868
C76   C     C_R   0.950524 0.046164 0.699208 -0.235353
C77   C     C_R   0.232871 0.452856 0.754483 -0.015245
C78   C     C_R   0.757400 0.453435 0.299409 0.022329
C79   C     C_R   0.732873 0.952854 0.754473 -0.017919
C80   C     C_R   0.257367 0.953436 0.299431 -0.035514
C81   C     C_R   0.350407 0.651313 0.908068 -0.140262
C82   C     C_R   0.690408 0.625118 0.094475 -0.105490
C83   C     C_R   0.850412 0.151313 0.908061 -0.138258
C84   C     C_R   0.190406 0.125118 0.094475 -0.107617
C85   C     C_R   0.450019 0.345479 0.089395 -0.057316
C86   C     C_R   0.601710 0.379928 0.909960 -0.027477
C87   C     C_R   0.950031 0.845475 0.089391 -0.057390
C88   C     C_R   0.101718 0.879935 0.909962 -0.033163
C89   C     C_R   0.389755 0.312788 0.999203 0.034404
C90   C     C_R   0.691541 0.365907 0.001465 0.040210
C91   C     C_R   0.889764 0.812785 0.999200 0.034421
C92   C     C_R   0.191569 0.865935 0.001470 0.071525
H1    H     H_    0.311906 0.334214 0.825036 0.207257
H2    H     H_    0.744679 0.366168 0.175717 0.174662
H3    H     H_    0.811907 0.834215 0.825034 0.207109
H4    H     H_    0.244717 0.866232 0.175728 0.168590
H5    H     H_    0.243943 0.742033 0.820809 0.131357
H6    H     H_    0.848809 0.685105 0.182970 0.132470
H7    H     H_    0.743969 0.242037 0.820788 0.129396
H8    H     H_    0.348799 0.185109 0.182969 0.131529
H9    H     H_    0.670323 0.323709 0.821205 0.158562
H10   H     H_    0.435763 0.258386 0.179694 0.182290
H11   H     H_    0.170352 0.823734 0.821209 0.161611
H12   H     H_    0.935774 0.758382 0.179690 0.182483
H13   H     H_    0.461114 0.758420 0.167586 0.173434
H14   H     H_    0.709305 0.654768 0.839092 0.153175
H15   H     H_    0.961101 0.258419 0.167561 0.168955
H16   H     H_    0.209305 0.154771 0.839093 0.153584
H17   H     H_    0.326758 0.448099 0.286899 0.146900
H18   H     H_    0.308167 0.449365 0.435924 0.201843
H19   H     H_    0.826702 0.948135 0.286862 0.148241
H20   H     H_    0.808136 0.949393 0.435909 0.201654
H21   H     H_    0.485430 0.665723 0.173457 0.104285
H22   H     H_    0.573720 0.631000 0.827193 0.098853
H23   H     H_    0.985439 0.165730 0.173448 0.103540
H24   H     H_    0.073716 0.131004 0.827193 0.098006
H25   H     H_    0.209597 0.587627 0.746004 0.113391
H26   H     H_    0.771702 0.587264 0.330008 0.115391
H27   H     H_    0.709591 0.087626 0.745990 0.113646
H28   H     H_    0.271723 0.087265 0.330001 0.115030
H29   H     H_    0.477288 0.589915 0.264650 0.143046
H30   H     H_    0.437742 0.589016 0.674546 0.138526
H31   H     H_    0.977287 0.089919 0.264641 0.142833
H32   H     H_    0.937746 0.089017 0.674548 0.137483
H33   H     H_    0.212633 0.410073 0.746739 0.099382
H34   H     H_    0.769422 0.411214 0.327436 0.119046
H35   H     H_    0.712639 0.910070 0.746727 0.099717
H36   H     H_    0.269399 0.911212 0.327443 0.129935
H37   H     H_    0.314674 0.665358 0.824926 0.097913
H38   H     H_    0.747834 0.630243 0.179656 0.100869
H39   H     H_    0.814680 0.165353 0.824917 0.096856
H40   H     H_    0.247834 0.130243 0.179656 0.098650
H41   H     H_    0.504011 0.330042 0.169237 0.183896
H42   H     H_    0.578611 0.380321 0.826550 0.129487
H43   H     H_    0.004039 0.830036 0.169226 0.183541
H44   H     H_    0.078610 0.880323 0.826549 0.130543
N1    N     N_R   0.395440 0.396300 0.944370 -0.068633
N2    N     N_R   0.604560 0.396300 0.055630 -0.070504
N3    N     N_R   0.895440 0.896300 0.944370 -0.068710
N4    N     N_R   0.104560 0.896300 0.055630 -0.069117
N5    N     N_R   0.449890 0.602500 0.055780 -0.042066
N6    N     N_R   0.550110 0.602500 0.944220 -0.042035
N7    N     N_R   0.949890 0.102500 0.055780 -0.042192
N8    N     N_R   0.050110 0.102500 0.944220 -0.042376
N9    N     N_R   0.525090 0.470990 0.205640 -0.106166
N10   N     N_R   0.474910 0.470990 0.794360 -0.109234
N11   N     N_R   0.025090 0.970990 0.205640 -0.104357
N12   N     N_R   0.974910 0.970990 0.794360 -0.107641
N13   N     N_R   0.320240 0.527820 0.794510 -0.050346
N14   N     N_R   0.679760 0.527820 0.205490 -0.049442
N15   N     N_R   0.820240 0.027820 0.794510 -0.050576
N16   N     N_R   0.179760 0.027820 0.205490 -0.046534
N17   N     N_R   0.524580 0.527810 0.205160 -0.065497
N18   N     N_R   0.475420 0.527810 0.794840 -0.066549
N19   N     N_R   0.024580 0.027810 0.205160 -0.065052
N20   N     N_R   0.975420 0.027810 0.794840 -0.065321
N21   N     N_R   0.320750 0.470990 0.794990 -0.043509
N22   N     N_R   0.679250 0.470990 0.205010 -0.061954
N23   N     N_R   0.820750 0.970990 0.794990 -0.043542
N24   N     N_R   0.179250 0.970990 0.205010 -0.052994
N25   N     N_R   0.393580 0.602500 0.942610 -0.045432
N26   N     N_R   0.606420 0.602500 0.057390 -0.044311
N27   N     N_R   0.893580 0.102500 0.942610 -0.045369
N28   N     N_R   0.106420 0.102500 0.057390 -0.044814
N29   N     N_R   0.451750 0.396300 0.057540 -0.073571
N30   N     N_R   0.548250 0.396300 0.942460 -0.034824
N31   N     N_R   0.951750 0.896300 0.057540 -0.073632
N32   N     N_R   0.048250 0.896300 0.942460 -0.035603
Ni1   Ni    Ni4+2 0.435420 0.434250 0.870220 0.326282
Ni2   Ni    Ni4+2 0.564580 0.434250 0.129780 0.265908
Ni3   Ni    Ni4+2 0.935420 0.934250 0.870220 0.327829
Ni4   Ni    Ni4+2 0.064580 0.934250 0.129780 0.269568
Ni5   Ni    Ni4+2 0.563400 0.564580 0.128670 0.217207
Ni6   Ni    Ni4+2 0.436600 0.564580 0.871330 0.212752
Ni7   Ni    Ni4+2 0.063400 0.064580 0.128670 0.219405
Ni8   Ni    Ni4+2 0.936600 0.064580 0.871330 0.213144
H45   H     H_    0.937756 0.537691 0.492935 0.137789
H46   H     H_    0.042022 0.540244 0.668496 0.147184
H47   H     H_    0.437804 0.037662 0.492867 0.139138
H48   H     H_    0.542010 0.040230 0.668459 0.148719
S1    S     S_3+6 0.920733 0.364360 0.211325 -0.044472
O1    O     O_2   0.917337 0.340269 0.300625 -0.283693
O2    O     O_2   0.023075 0.366083 0.250253 -0.259995
O3    O     O_3   0.877553 0.429133 0.184871 -0.532013
H49   H     H_    0.883873 0.442603 0.127490 0.345366
S2    S     S_3+6 0.316828 0.222718 0.795988 -0.016861
O4    O     O_2   0.407548 0.249843 0.826465 -0.217979
O5    O     O_2   0.313153 0.165078 0.756194 -0.266726
O6    O     O_3   0.222302 0.258005 0.694266 -0.511584
H50   H     H_    0.165935 0.238799 0.681254 0.330203
S3    S     S_3+6 0.420742 0.864394 0.211233 -0.054529
O7    O     O_2   0.417087 0.840433 0.300481 -0.325759
O8    O     O_2   0.522934 0.865969 0.249590 -0.256221
O9    O     O_3   0.377311 0.929128 0.183299 -0.550212
H51   H     H_    0.414314 0.948651 0.254680 0.375547
S4    S     S_3+6 0.816805 0.722720 0.795968 -0.018507
O10   O     O_2   0.907523 0.749844 0.826432 -0.219384
O11   O     O_2   0.813113 0.665082 0.756153 -0.269882
O12   O     O_3   0.722272 0.758016 0.694266 -0.511400
H52   H     H_    0.665917 0.738883 0.681426 0.330370
H53   H     H_    0.544570 0.564222 0.614341 0.137054
H54   H     H_    0.558587 0.565232 0.464956 0.139383
H55   H     H_    0.044615 0.064195 0.614370 0.138076
H56   H     H_    0.058615 0.065212 0.464970 0.140045
S5    S     S_3+6 0.533112 0.393737 0.344018 -0.071833
O13   O     O_2   0.451790 0.353343 0.294101 -0.331606
O14   O     O_2   0.615401 0.368906 0.349171 -0.345068
O15   O     O_3   0.569371 0.408701 0.472015 -0.513344
H57   H     H_    0.580082 0.372429 0.507562 0.389528
S6    S     S_3+6 0.386742 0.390758 0.636293 -0.048806
O16   O     O_2   0.422907 0.365099 0.576085 -0.286248
O17   O     O_2   0.403655 0.352007 0.723329 -0.264058
O18   O     O_3   0.268687 0.401925 0.548985 -0.535095
H58   H     H_    0.240472 0.365024 0.518789 0.410384
S7    S     S_3+6 0.032995 0.893723 0.343937 -0.069769
O19   O     O_2   0.951655 0.853333 0.293881 -0.331761
O20   O     O_2   0.115351 0.868899 0.349216 -0.342596
O21   O     O_3   0.069101 0.908644 0.471896 -0.511349
H59   H     H_    0.079694 0.872357 0.507348 0.390132
S8    S     S_3+6 0.886731 0.890764 0.636282 -0.049531
O22   O     O_2   0.922880 0.865107 0.576055 -0.285017
O23   O     O_2   0.903649 0.852007 0.723313 -0.264582
O24   O     O_3   0.768677 0.901936 0.548988 -0.541064
H60   H     H_    0.740453 0.865035 0.518812 0.409575
H61   H     H_    0.878757 0.421019 0.514315 0.142267
H62   H     H_    0.052667 0.413705 0.658126 0.135771
H63   H     H_    0.378759 0.921013 0.514300 0.145669
H64   H     H_    0.552686 0.913692 0.658073 0.135624

loop_
_geom_bond_atom_site_label_1
_geom_bond_atom_site_label_2
_ccdc_geom_bond_type
C25   C31   A    
C7    C83   A    
C55   C56   A    
N16   N24   A    
N4    N32   A    
C6    C82   A    
C87   C91   A    
C27   C29   A    
C28   C52   A    
N17   Ni5   S    
C19   C20   S    
C86   N30   A    
N7    Ni7   S    
C22   H46   S    
C30   C34   A    
C61   H17   S    
C16   C72   A    
C58   C62   A    
S8    O23   D    
C28   H8    S    
C77   H33   S    
C39   C41   A    
N26   Ni5   S    
S5    O13   D    
C38   S2    S    
C47   H23   S    
C12   C68   A    
C74   N18   A    
N23   Ni3   S    
C75   H31   S    
C15   C71   A    
C32   C36   A    
C14   C21   S    
C10   C58   S    
C26   C50   A    
C79   N23   A    
C80   N24   A    
C65   S5    S    
S1    O1    D    
N12   Ni3   S    
C39   S3    S    
O3    H49   S    
C48   N8    A    
N28   Ni7   S    
C3    C91   A    
N13   Ni6   S    
C41   C49   A    
C57   C61   A    
C2    C90   A    
C19   H63   S    
C36   C40   A    
C83   N27   A    
C69   H25   S    
C18   H62   S    
N21   Ni1   S    
C67   S7    S    
C4    H4    S    
N16   Ni7   S    
C17   H61   S    
C78   N22   A    
N32   Ni3   S    
C87   N31   A    
C88   C92   A    
C29   C33   A    
C11   C67   A    
O15   H57   S    
C88   N32   A    
C25   C49   A    
C70   N14   A    
C24   H48   S    
C32   H12   S    
N3    Ni3   S    
C82   H38   S    
N11   N19   A    
C8    C52   S    
C44   H16   S    
C23   H47   S    
C68   N12   A    
C6    C46   A    
C48   H24   S    
N9    N17   A    
C35   C92   S    
C44   C52   A    
C40   C42   A    
O9    H51   S    
C86   H42   S    
C55   H55   S    
O12   H52   S    
N4    Ni4   S    
C8    C84   A    
C55   C60   A    
N8    N28   A    
N5    Ni5   S    
C14   C70   A    
C5    C49   S    
C61   C62   A    
C9    C73   A    
S4    O12   S    
C11   C59   S    
N27   Ni8   S    
N7    N27   A    
S8    O22   D    
C34   C38   A    
C27   C51   A    
C60   C64   A    
C13   C77   A    
C10   C66   A    
C71   N15   A    
C59   C63   A    
C46   H22   S    
S3    O7    D    
C2    N2    A    
C87   H43   S    
C2    H2    S    
C88   H44   S    
O24   H60   S    
S4    O11   D    
C86   C90   A    
S7    O21   S    
C85   C89   A    
C26   C32   A    
N22   Ni2   S    
C82   N26   A    
C72   N16   A    
C54   H54   S    
C5    C45   A    
C84   H40   S    
C53   H53   S    
C16   C80   A    
N15   N23   A    
C31   H11   S    
C35   C39   A    
S7    O19   D    
S3    O8    D    
C38   C44   A    
C75   N19   A    
C4    N4    A    
C5    C81   A    
C81   H37   S    
C62   H18   S    
O18   H58   S    
C37   S1    S    
N8    Ni8   S    
C17   C18   S    
N24   Ni4   S    
C29   H9    S    
C43   H15   S    
C6    C50   S    
N3    N31   A    
C42   H14   S    
C77   N21   A    
C41   H13   S    
C30   H10   S    
C26   H6    S    
C36   C91   S    
C25   H5    S    
C15   C24   S    
C74   H30   S    
C42   C50   A    
C16   C23   S    
C73   H29   S    
C72   H28   S    
C12   C76   A    
C67   N11   A    
N1    N29   A    
N10   N18   A    
C31   C35   A    
C37   C43   A    
C80   H36   S    
C66   S6    S    
S2    O5    D    
C78   H34   S    
C1    N1    A    
N11   Ni4   S    
C19   C23   D    
C33   C37   A    
C40   S4    S    
S1    O3    S    
N19   Ni7   S    
N29   Ni2   S    
C79   H35   S    
N9    Ni2   S    
N20   Ni8   S    
C1    C89   A    
N15   Ni8   S    
N14   N22   A    
C68   S8    S    
C18   C22   D    
C81   N25   A    
N1    Ni1   S    
C47   N7    A    
S4    O10   D    
C84   N28   A    
N5    N25   A    
N6    N26   A    
C53   C58   A    
C53   C54   A    
N31   Ni4   S    
C56   H56   S    
C15   C79   A    
S6    O18   S    
C7    C47   A    
C45   N5    A    
C20   H64   S    
C56   C59   A    
C71   H27   S    
N2    N30   A    
C85   N29   A    
S6    O17   D    
S2    O6    S    
S7    O20   D    
C83   H39   S    
C34   C89   S    
C69   N13   A    
C28   C30   A    
C11   C75   A    
C8    C48   A    
N25   Ni6   S    
C10   C74   A    
C43   C51   A    
O21   H59   S    
C13   C69   A    
C70   H26   S    
C21   H45   S    
C46   N6    A    
N6    Ni6   S    
C76   N20   A    
C13   C22   S    
C9    C57   S    
C14   C78   A    
C63   H19   S    
O6    H50   S    
C27   H7    S    
C9    C65   A    
C66   N10   A    
C64   H20   S    
C76   H32   S    
C7    C51   S    
C63   C64   A    
C12   C60   S    
C45   H21   S    
S1    O2    D    
N18   Ni6   S    
C3    N3    A    
N30   Ni1   S    
C1    H1    S    
S6    O16   D    
N14   Ni5   S    
N10   Ni1   S    
C73   N17   A    
C3    H3    S    
S5    O15   S    
N12   N20   A    
N13   N21   A    
S2    O4    D    
C33   C90   S    
S5    O14   D    
C65   N9    A    
C20   C24   D    
S8    O24   S    
S3    O9    S    
C85   H41   S    
N2    Ni2   S    
C4    C92   A    
C54   C57   A    
C17   C21   D    
