data_mof_unit_65196.cif
_audit_creation_date              2012-12-10T19:38:15-0500
_audit_creation_method            fapswitch 2.2
_symmetry_space_group_name_H-M    P1
_symmetry_Int_Tables_number       1
_space_group_crystal_system       triclinic
_cell_length_a                    21.635535
_cell_length_b                    21.635098
_cell_length_c                    47.18209
_cell_angle_alpha                 90.106334
_cell_angle_beta                  89.927785
_cell_angle_gamma                 90.007779
_cell_volume                      22085.2634148

loop_
_atom_site_label
_atom_site_type_symbol
_atom_type_description
_atom_site_fract_x
_atom_site_fract_y
_atom_site_fract_z
_atom_type_partial_charge
C1    C     C_R   0.998593 0.880151 0.999874 0.844975
C2    C     C_R   0.000093 0.686371 0.997643 -0.187031
C3    C     C_R   0.072997 0.414901 0.764889 -0.236700
C4    C     C_R   0.085191 0.572977 0.265066 -0.236771
C5    C     C_R   0.426754 0.085140 0.265159 -0.236710
C6    C     C_R   0.914777 0.426980 0.264979 -0.236653
C7    C     C_R   0.574058 0.915891 0.264889 -0.236656
C8    C     C_R   0.542440 0.036429 0.779827 -0.008608
C9    C     C_R   0.963604 0.542886 0.779890 -0.008464
C10   C     C_R   0.457480 0.962836 0.779819 -0.008289
C11   C     C_R   0.037225 0.457971 0.779758 -0.008446
C12   C     C_R   0.042300 0.536931 0.279847 -0.008514
C13   C     C_R   0.313463 0.999756 0.997553 -0.188503
C14   C     C_R   0.463050 0.042477 0.279894 -0.008474
C15   C     C_R   0.957736 0.462885 0.279801 -0.008442
C16   C     C_R   0.537740 0.958501 0.279758 -0.008467
C17   C     C_R   0.499934 0.999657 0.764821 -0.013863
C18   C     C_R   0.000422 0.500449 0.764822 -0.013861
C19   C     C_R   0.999983 0.499979 0.264822 -0.013858
C20   C     C_R   0.500395 0.000506 0.264823 -0.013854
C21   C     C_R   0.541911 0.035428 0.809541 0.513565
C22   C     C_R   0.964541 0.542262 0.809604 0.513460
C23   C     C_R   0.458079 0.963778 0.809536 0.513404
C24   C     C_R   0.001282 0.314134 0.998934 -0.164725
C25   C     C_R   0.036219 0.458475 0.809474 0.513455
C26   C     C_R   0.041797 0.535832 0.309560 0.513486
C27   C     C_R   0.464015 0.041879 0.309608 0.513513
C28   C     C_R   0.958341 0.463746 0.309518 0.513541
C29   C     C_R   0.536732 0.958989 0.309474 0.513505
C30   C     C_R   0.486902 0.054205 0.868979 -0.090322
C31   C     C_R   0.945746 0.487091 0.868940 -0.090319
C32   C     C_R   0.513030 0.945206 0.868935 -0.090210
C33   C     C_R   0.054734 0.513280 0.868975 -0.090325
C34   C     C_R   0.986726 0.554230 0.368994 -0.090253
C35   C     C_R   0.185790 0.501231 0.498883 -0.162995
C36   C     C_R   0.445872 0.986618 0.368945 -0.090080
C37   C     C_R   0.013274 0.445332 0.368926 -0.089903
C38   C     C_R   0.554606 0.013855 0.368984 -0.089945
C39   C     C_R   0.487204 0.054418 0.898480 -0.201899
C40   C     C_R   0.945542 0.487299 0.898443 -0.202917
C41   C     C_R   0.512738 0.945165 0.898439 -0.202804
C42   C     C_R   0.054784 0.512892 0.898477 -0.201922
C43   C     C_R   0.987004 0.554406 0.398494 -0.202348
C44   C     C_R   0.445665 0.986819 0.398448 -0.202501
C45   C     C_R   0.012948 0.445251 0.398430 -0.202654
C46   C     C_R   0.498825 0.185779 0.498810 -0.163146
C47   C     C_R   0.554662 0.013436 0.398486 -0.202575
C48   C     C_R   0.499980 0.999838 0.913428 -0.046174
C49   C     C_R   0.000123 0.500055 0.913429 -0.046112
C50   C     C_R   0.999976 0.499857 0.413430 -0.045594
C51   C     C_R   0.500124 0.000076 0.413434 -0.045487
C52   C     C_R   0.945093 0.512225 0.130905 -0.087985
C53   C     C_R   0.488537 0.945511 0.130897 -0.088369
C54   C     C_R   0.054654 0.488552 0.130866 -0.088869
C55   C     C_R   0.511675 0.055195 0.130882 -0.088181
C56   C     C_R   0.445126 0.012054 0.630914 -0.087785
C57   C     C_R   0.814219 0.498796 0.498828 -0.163081
C58   C     C_R   0.987988 0.445623 0.630892 -0.087939
C59   C     C_R   0.554523 0.987631 0.630855 -0.087946
C60   C     C_R   0.012369 0.555036 0.630878 -0.087792
C61   C     C_R   0.999921 0.500208 0.086415 -0.049660
C62   C     C_R   0.500012 0.000184 0.086418 -0.049771
C63   C     C_R   0.499897 0.999931 0.586414 -0.049301
C64   C     C_R   0.000049 0.500175 0.586415 -0.049304
C65   C     C_R   0.999851 0.500411 0.145759 0.289385
C66   C     C_R   0.500154 0.000405 0.145762 0.289440
C67   C     C_R   0.499806 0.999824 0.645758 0.288996
C68   C     C_R   0.501223 0.814209 0.498885 -0.162918
C69   C     C_R   0.000231 0.500378 0.645759 0.288999
C70   C     C_R   0.781761 0.958805 0.013362 0.075325
C71   C     C_R   0.050099 0.782933 0.007045 0.066595
C72   C     C_R   0.216974 0.052296 0.003847 0.060309
C73   C     C_R   0.955708 0.218118 0.011437 0.071161
C74   C     C_R   0.281838 0.457276 0.512409 0.072825
C75   C     C_R   0.542890 0.281940 0.512251 0.072834
C76   C     C_R   0.718091 0.542904 0.512309 0.072802
C77   C     C_R   0.457245 0.718170 0.512464 0.072757
C78   C     C_R   0.814888 0.004540 0.999750 -0.158961
C79   C     C_R   0.719970 0.956389 0.012404 0.067173
C80   C     C_R   0.996935 0.814446 0.999125 -0.160792
C81   C     C_R   0.185395 0.997352 0.999179 -0.153191
C82   C     C_R   0.004021 0.184962 0.999840 -0.153977
C83   C     C_R   0.314965 0.504291 0.499771 -0.156688
C84   C     C_R   0.495820 0.314960 0.499642 -0.156669
C85   C     C_R   0.685038 0.495799 0.499662 -0.156623
C86   C     C_R   0.504295 0.685036 0.499789 -0.156646
C87   C     C_R   0.782288 0.051643 0.985102 -0.038459
C88   C     C_R   0.946942 0.782256 0.986630 -0.034628
C89   C     C_R   0.217319 0.944169 0.989725 -0.037584
C90   C     C_R   0.051896 0.719592 0.006119 0.115117
C91   C     C_R   0.054104 0.217360 0.987339 -0.041260
C92   C     C_R   0.282453 0.552828 0.486131 -0.038917
C93   C     C_R   0.447263 0.282338 0.486007 -0.038953
C94   C     C_R   0.717626 0.447189 0.485995 -0.038948
C95   C     C_R   0.552867 0.717541 0.486106 -0.038945
C96   C     C_R   0.717183 0.049532 0.985028 -0.163287
C97   C     C_R   0.949040 0.717562 0.986220 -0.160326
C98   C     C_R   0.281998 0.945988 0.989130 -0.158946
C99   C     C_R   0.052214 0.282462 0.987185 -0.162084
C100  C     C_R   0.217348 0.550842 0.486044 -0.162776
C101  C     C_R   0.280334 0.053625 0.002941 0.111522
C102  C     C_R   0.449225 0.217228 0.485946 -0.162701
C103  C     C_R   0.782737 0.449145 0.485934 -0.162729
C104  C     C_R   0.550874 0.782646 0.486012 -0.162793
C105  C     C_2   0.814741 0.103684 0.970906 0.398170
C106  C     C_2   0.891333 0.814886 0.975746 0.395839
C107  C     C_2   0.184310 0.886154 0.982152 0.401656
C108  C     C_2   0.108679 0.184572 0.975430 0.401506
C109  C     C_2   0.315057 0.606028 0.472951 0.397632
C110  C     C_2   0.394041 0.314836 0.472830 0.397471
C111  C     C_2   0.685090 0.393931 0.472776 0.397460
C112  C     C_R   0.119806 0.999282 0.999886 0.846154
C113  C     C_R   0.953743 0.279925 0.010501 0.069401
C114  C     C_2   0.606106 0.684928 0.472885 0.397727
C115  C     C_3   0.688085 0.790430 0.030378 -0.720917
C116  C     C_3   0.186362 0.684044 0.053671 -0.722423
C117  C     C_3   0.315465 0.200713 0.042208 -0.727774
C118  C     C_3   0.784670 0.311823 0.021088 -0.724386
C119  C     C_3   0.188236 0.287307 0.525609 -0.723278
C120  C     C_3   0.712733 0.188402 0.525711 -0.723551
C121  C     C_3   0.811706 0.712808 0.525850 -0.723629
C122  C     C_3   0.287233 0.811741 0.525797 -0.723350
C123  C     C_2   0.140296 0.605269 0.222404 0.519994
C124  C     C_R   0.220039 0.455068 0.511463 0.067980
C125  C     C_2   0.394236 0.140131 0.222574 0.520364
C126  C     C_2   0.859460 0.395113 0.222316 0.520425
C127  C     C_2   0.606571 0.860983 0.222152 0.520171
C128  C     C_2   0.640865 0.104023 0.722354 0.520440
C129  C     C_2   0.896105 0.641446 0.722570 0.520336
C130  C     C_2   0.358865 0.895426 0.722367 0.520233
C131  C     C_2   0.104800 0.359577 0.722153 0.520332
C132  C     C_R   0.545065 0.220134 0.511337 0.068191
C133  C     C_R   0.779896 0.545074 0.511394 0.068193
C134  C     C_R   0.455031 0.779968 0.511511 0.067972
C135  C     C_3   0.716378 0.899594 0.030205 0.036173
C136  C     C_3   0.087888 0.715762 0.033108 0.025104
C137  C     C_3   0.284065 0.097068 0.027594 0.036877
C138  C     C_3   0.893336 0.283491 0.025712 0.043345
C139  C     C_3   0.216512 0.396369 0.527934 0.039798
C140  C     C_R   0.000849 0.119687 0.999965 0.847074
C141  C     C_3   0.603681 0.216736 0.527885 0.039754
C142  C     C_3   0.783335 0.603765 0.527970 0.039770
C143  C     C_3   0.396289 0.783507 0.528033 0.039779
C144  C     C_3   0.787740 0.902037 0.031003 -0.531946
C145  C     C_3   0.086070 0.786160 0.034027 -0.532953
C146  C     C_3   0.213662 0.095696 0.028473 -0.544045
C147  C     C_3   0.895418 0.212118 0.026488 -0.539837
C148  C     C_3   0.287883 0.398652 0.528706 -0.535031
C149  C     C_3   0.601432 0.288114 0.528625 -0.535072
C150  C     C_3   0.711958 0.601521 0.528712 -0.535168
C151  C     C_R   0.880272 0.001378 0.999948 0.846108
C152  C     C_3   0.398577 0.712137 0.528813 -0.535071
C153  C     C_R   0.945015 0.511830 0.101404 -0.216531
C154  C     C_R   0.488754 0.945291 0.101398 -0.215916
C155  C     C_R   0.054804 0.488754 0.101367 -0.216743
C156  C     C_R   0.511315 0.055195 0.101381 -0.216211
C157  C     C_R   0.445057 0.011811 0.601412 -0.215410
C158  C     C_R   0.988193 0.445407 0.601392 -0.215221
C159  C     C_R   0.554684 0.987981 0.601356 -0.215118
C160  C     C_R   0.011982 0.555050 0.601377 -0.215313
C161  C     C_R   0.499999 0.999948 0.944505 0.875595
C162  C     C_R   0.498868 0.380294 0.499910 0.846766
C163  C     C_R   0.000036 0.500002 0.944506 0.875463
C164  C     C_R   0.999995 0.499950 0.444506 0.874195
C165  C     C_R   0.500037 0.000006 0.444507 0.874108
C166  C     C_R   0.620066 0.000214 0.999727 0.893826
C167  C     C_R   0.999891 0.620319 0.999729 0.888679
C168  C     C_R   0.379620 0.999850 0.999707 0.888713
C169  C     C_R   0.000226 0.379884 0.999705 0.894424
C170  C     C_R   0.120091 0.500220 0.499712 0.894461
C171  C     C_R   0.499790 0.120089 0.499704 0.894366
C172  C     C_R   0.879910 0.499781 0.499707 0.894374
C173  C     C_R   0.619706 0.498870 0.499916 0.846722
C174  C     C_R   0.500215 0.879909 0.499713 0.894383
C175  C     C_R   0.499992 0.000054 0.055337 0.865132
C176  C     C_R   0.999969 0.500062 0.055336 0.865188
C177  C     C_R   0.000002 0.500053 0.555336 0.866281
C178  C     C_R   0.499965 0.999991 0.555335 0.866268
C179  C     C_R   0.962682 0.459552 0.190224 0.531824
C180  C     C_R   0.541357 0.963698 0.190191 0.531558
C181  C     C_R   0.036952 0.541100 0.190293 0.531309
C182  C     C_R   0.459268 0.037350 0.190325 0.531542
C183  C     C_R   0.462429 0.959238 0.690240 0.531636
C184  C     C_R   0.501131 0.619707 0.499956 0.846671
C185  C     C_R   0.040948 0.463144 0.690192 0.531576
C186  C     C_R   0.537169 0.040356 0.690273 0.531610
C187  C     C_R   0.959805 0.537833 0.690322 0.531673
C188  C     C_R   0.042552 0.537971 0.220004 -0.032693
C189  C     C_R   0.462273 0.042917 0.220050 -0.032845
C190  C     C_R   0.957197 0.462426 0.219956 -0.032998
C191  C     C_R   0.538464 0.958154 0.219912 -0.032987
C192  C     C_R   0.542741 0.037274 0.719985 -0.032936
C193  C     C_R   0.962871 0.543357 0.720047 -0.032882
C194  C     C_R   0.456963 0.962207 0.719973 -0.032914
C195  C     C_R   0.380294 0.501139 0.499950 0.846741
C196  C     C_R   0.037966 0.457626 0.719912 -0.032974
C197  C     C_R   0.499972 0.999666 0.854101 0.299288
C198  C     C_R   0.000277 0.500235 0.854102 0.299307
C199  C     C_R   0.000026 0.499764 0.354103 0.299252
C200  C     C_R   0.500276 0.000295 0.354107 0.299123
C201  C     C_R   0.999911 0.500126 0.234892 -0.055138
C202  C     C_R   0.500381 0.000529 0.234893 -0.055089
C203  C     C_R   0.499880 0.999711 0.734891 -0.055074
C204  C     C_R   0.000424 0.500481 0.734891 -0.055078
C205  C     C_R   0.087274 0.572595 0.235484 -0.025074
C206  C     C_R   0.685713 0.001186 0.998854 -0.161119
C207  C     C_R   0.427254 0.087324 0.235582 -0.025268
C208  C     C_R   0.912550 0.427652 0.235403 -0.025333
C209  C     C_R   0.573535 0.913754 0.235308 -0.025207
C210  C     C_R   0.587646 0.071695 0.735448 -0.025345
C211  C     C_R   0.928418 0.588206 0.735578 -0.025279
C212  C     C_R   0.412123 0.927719 0.735438 -0.025221
C213  C     C_R   0.072454 0.412773 0.735309 -0.025296
C214  C     C_R   0.585540 0.072189 0.765029 -0.236590
C215  C     C_R   0.927869 0.586015 0.765155 -0.236831
C216  C     C_R   0.414335 0.927119 0.765014 -0.236920
H1    H     H_    0.902624 0.521792 0.142265 0.162308
H2    H     H_    0.900966 0.620018 0.776739 0.187453
H3    H     H_    0.235168 0.270178 0.531026 0.243020
H4    H     H_    0.658170 0.210904 0.490888 0.261642
H5    H     H_    0.747261 0.165238 0.511880 0.239570
H6    H     H_    0.707531 0.160679 0.545371 0.241912
H7    H     H_    0.729863 0.235375 0.531135 0.242988
H8    H     H_    0.789122 0.658094 0.491000 0.261645
H9    H     H_    0.834854 0.747275 0.512034 0.239579
H10   H     H_    0.839463 0.707688 0.545504 0.241905
H11   H     H_    0.764750 0.729965 0.531289 0.242979
H12   H     H_    0.342076 0.788907 0.491009 0.261713
H13   H     H_    0.380328 0.900204 0.776546 0.187320
H14   H     H_    0.252796 0.834736 0.511939 0.239592
H15   H     H_    0.292268 0.839674 0.545445 0.241863
H16   H     H_    0.270094 0.764814 0.531238 0.242999
H17   H     H_    0.155601 0.649125 0.231136 0.040856
H18   H     H_    0.350236 0.155074 0.231291 0.040967
H19   H     H_    0.844177 0.351186 0.230924 0.041052
H20   H     H_    0.650621 0.846100 0.230760 0.040877
H21   H     H_    0.656416 0.147817 0.731060 0.041133
H22   H     H_    0.852308 0.656973 0.731286 0.041065
H23   H     H_    0.343362 0.851592 0.730993 0.040931
H24   H     H_    0.099906 0.380881 0.776370 0.187473
H25   H     H_    0.148640 0.344106 0.730768 0.041027
H26   H     H_    0.119099 0.600002 0.276612 0.187529
H27   H     H_    0.399423 0.118798 0.276744 0.187527
H28   H     H_    0.880919 0.399849 0.276497 0.187516
H29   H     H_    0.601408 0.882221 0.276369 0.187514
H30   H     H_    0.476417 0.096385 0.857638 0.152012
H31   H     H_    0.903569 0.476616 0.857568 0.151950
H32   H     H_    0.523519 0.902964 0.857560 0.152050
H33   H     H_    0.479241 0.903050 0.142250 0.162174
H34   H     H_    0.096969 0.523826 0.857631 0.152084
H35   H     H_    0.976084 0.596384 0.357664 0.151970
H36   H     H_    0.403797 0.975735 0.357573 0.152075
H37   H     H_    0.023937 0.403146 0.357541 0.152090
H38   H     H_    0.596739 0.024820 0.357644 0.152140
H39   H     H_    0.476929 0.097089 0.909557 0.169590
H40   H     H_    0.902880 0.476967 0.909492 0.169180
H41   H     H_    0.523018 0.902562 0.909486 0.169400
H42   H     H_    0.097387 0.523165 0.909553 0.169794
H43   H     H_    0.976555 0.597024 0.409581 0.169256
H44   H     H_    0.097092 0.479037 0.142193 0.162503
H45   H     H_    0.403106 0.976074 0.409498 0.169141
H46   H     H_    0.023382 0.402676 0.409471 0.169174
H47   H     H_    0.597163 0.024111 0.409567 0.169149
H48   H     H_    0.691099 0.085270 0.974298 0.204245
H49   H     H_    0.910202 0.691513 0.977982 0.207525
H50   H     H_    0.307749 0.905007 0.983177 0.209593
H51   H     H_    0.090134 0.308330 0.977985 0.206399
H52   H     H_    0.191359 0.587635 0.476040 0.205305
H53   H     H_    0.412399 0.191153 0.475962 0.205329
H54   H     H_    0.808787 0.412285 0.475924 0.205250
H55   H     H_    0.521034 0.097738 0.142220 0.162285
H56   H     H_    0.587694 0.808631 0.475975 0.205266
H57   H     H_    0.693008 0.907691 0.050910 0.155581
H58   H     H_    0.062062 0.692376 0.050485 0.150956
H59   H     H_    0.307229 0.076423 0.046400 0.152664
H60   H     H_    0.896932 0.306697 0.046719 0.155916
H61   H     H_    0.193262 0.402191 0.548826 0.155784
H62   H     H_    0.597748 0.193674 0.548779 0.155667
H63   H     H_    0.806427 0.597925 0.548860 0.155635
H64   H     H_    0.402053 0.806802 0.548915 0.155751
H65   H     H_    0.806562 0.912320 0.052401 0.204041
H66   H     H_    0.402725 0.021870 0.642282 0.162366
H67   H     H_    0.058308 0.804545 0.052007 0.207394
H68   H     H_    0.195019 0.073361 0.047891 0.208182
H69   H     H_    0.901003 0.193108 0.048197 0.204820
H70   H     H_    0.306848 0.406562 0.550286 0.204737
H71   H     H_    0.593419 0.307262 0.550188 0.204753
H72   H     H_    0.692840 0.593606 0.550272 0.204733
H73   H     H_    0.406430 0.693218 0.550389 0.204716
H74   H     H_    0.811146 0.863801 0.019490 0.204989
H75   H     H_    0.131713 0.808855 0.031019 0.210804
H76   H     H_    0.191148 0.140142 0.022763 0.209075
H77   H     H_    0.978209 0.403268 0.642243 0.162333
H78   H     H_    0.859815 0.188884 0.013294 0.203280
H79   H     H_    0.311202 0.361735 0.516279 0.203838
H80   H     H_    0.638422 0.311324 0.516240 0.203900
H81   H     H_    0.688743 0.638458 0.516346 0.203815
H82   H     H_    0.361695 0.688780 0.516422 0.203751
H83   H     H_    0.902163 0.521090 0.090360 0.168607
H84   H     H_    0.479647 0.902330 0.090349 0.168996
H85   H     H_    0.097691 0.479434 0.090297 0.169272
H86   H     H_    0.520375 0.098072 0.090319 0.168861
H87   H     H_    0.402275 0.021423 0.590374 0.168694
H88   H     H_    0.596894 0.977782 0.642176 0.162339
H89   H     H_    0.978587 0.402560 0.590340 0.168736
H90   H     H_    0.597504 0.978405 0.590277 0.168759
H91   H     H_    0.021531 0.597818 0.590313 0.168718
H92   H     H_    0.864457 0.108678 0.972507 0.079333
H93   H     H_    0.887408 0.864711 0.977373 0.073305
H94   H     H_    0.134378 0.883488 0.983490 0.069815
H95   H     H_    0.112356 0.134706 0.976763 0.077808
H96   H     H_    0.364869 0.610321 0.474370 0.078109
H97   H     H_    0.389767 0.364661 0.474232 0.078119
H98   H     H_    0.635264 0.389676 0.474172 0.078141
H99   H     H_    0.022222 0.597467 0.642216 0.162371
H100  H     H_    0.610399 0.635120 0.474310 0.078081
H101  H     H_    0.711166 0.841246 0.994437 0.264223
H102  H     H_    0.665172 0.754458 0.017272 0.239702
H103  H     H_    0.660019 0.797692 0.049839 0.242217
H104  H     H_    0.734966 0.773936 0.036279 0.242552
H105  H     H_    0.173301 0.710272 0.011610 0.264985
H106  H     H_    0.230601 0.660871 0.048217 0.239236
H107  H     H_    0.161646 0.655034 0.069451 0.248552
H108  H     H_    0.196652 0.730046 0.063053 0.241335
H109  H     H_    0.290137 0.175442 0.001183 0.261427
H110  H     H_    0.619590 0.099062 0.776562 0.187584
H111  H     H_    0.338909 0.242932 0.034265 0.238937
H112  H     H_    0.343992 0.180821 0.059503 0.246877
H113  H     H_    0.269267 0.213722 0.050626 0.241576
H114  H     H_    0.843109 0.289148 0.987532 0.260035
H115  H     H_    0.751763 0.334941 0.006511 0.239843
H116  H     H_    0.787643 0.339621 0.040865 0.241211
H117  H     H_    0.766933 0.264876 0.026075 0.243290
H118  H     H_    0.211017 0.342057 0.490865 0.261674
H119  H     H_    0.165201 0.252834 0.511724 0.239587
H120  H     H_    0.160348 0.292397 0.545265 0.241853
N1    N     N_R   0.999802 0.500377 0.176166 -0.365716
N2    N     N_2   0.149433 0.691006 0.028378 -0.269252
N3    N     N_2   0.309019 0.156695 0.019327 -0.268659
N4    N     N_2   0.844643 0.307644 0.007711 -0.265203
N5    N     N_2   0.192445 0.345762 0.510969 -0.264932
N6    N     N_2   0.654355 0.192505 0.510994 -0.264932
N7    N     N_2   0.807554 0.654364 0.511103 -0.264912
N8    N     N_2   0.345726 0.807522 0.511108 -0.264947
N9    N     N_R   0.500271 0.000499 0.176167 -0.365757
N10   N     N_R   0.499785 0.999816 0.676164 -0.365764
N11   N     N_R   0.000341 0.500468 0.676165 -0.365762
N12   N     N_R   0.500001 0.999603 0.823731 -0.359282
N13   N     N_R   0.000353 0.500331 0.823732 -0.359282
N14   N     N_R   0.000079 0.499749 0.323733 -0.359311
N15   N     N_R   0.500351 0.000398 0.323736 -0.359285
N16   N     N_2   0.692434 0.847177 0.014400 -0.264684
O1    O     O_R   0.000030 0.908460 0.023630 -0.617860
O2    O     O_R   0.091470 0.000060 0.976290 -0.619275
O3    O     O_R   0.999940 0.091470 0.976290 -0.626476
O4    O     O_R   0.908530 0.999940 0.976290 -0.627066
O5    O     O_R   0.500060 0.408530 0.476290 -0.626572
O6    O     O_R   0.591470 0.500060 0.476290 -0.626529
O7    O     O_R   0.499940 0.591470 0.476290 -0.626438
O8    O     O_R   0.408530 0.499940 0.476290 -0.626457
O9    O     O_R   0.500070 0.051830 0.958000 -0.621169
O10   O     O_R   0.948170 0.500070 0.958000 -0.620835
O11   O     O_R   0.499930 0.948170 0.958000 -0.620671
O12   O     O_R   0.091540 0.000030 0.023630 -0.618292
O13   O     O_R   0.051830 0.499930 0.958000 -0.621069
O14   O     O_R   0.000070 0.551830 0.458000 -0.621312
O15   O     O_R   0.448170 0.000070 0.458000 -0.621253
O16   O     O_R   0.999930 0.448170 0.458000 -0.621358
O17   O     O_R   0.551830 0.999930 0.458000 -0.621315
O18   O     O_R   0.591650 0.051830 0.999920 -0.625643
O19   O     O_R   0.948170 0.591650 0.999920 -0.624319
O20   O     O_R   0.408350 0.948170 0.999920 -0.623916
O21   O     O_R   0.051830 0.408350 0.999920 -0.625624
O22   O     O_R   0.091650 0.551830 0.499920 -0.625718
O23   O     O_R   0.999970 0.091540 0.023630 -0.612847
O24   O     O_R   0.448170 0.091650 0.499920 -0.625674
O25   O     O_R   0.908350 0.448170 0.499920 -0.625691
O26   O     O_R   0.551830 0.908350 0.499920 -0.625690
O27   O     O_R   0.591650 0.948400 0.999950 -0.601659
O28   O     O_R   0.051600 0.591650 0.999950 -0.600718
O29   O     O_R   0.408350 0.051600 0.999950 -0.602055
O30   O     O_R   0.948400 0.408350 0.999950 -0.602548
O31   O     O_R   0.091650 0.448400 0.499950 -0.602020
O32   O     O_R   0.551600 0.091650 0.499950 -0.602074
O33   O     O_R   0.908350 0.551600 0.499950 -0.602031
O34   O     O_R   0.908460 0.999970 0.023630 -0.612645
O35   O     O_R   0.448400 0.908350 0.499950 -0.602040
O36   O     O_R   0.500010 0.051830 0.041840 -0.622144
O37   O     O_R   0.948170 0.500010 0.041840 -0.623321
O38   O     O_R   0.499990 0.948170 0.041840 -0.622216
O39   O     O_R   0.051830 0.499990 0.041840 -0.620658
O40   O     O_R   0.000010 0.551830 0.541840 -0.622683
O41   O     O_R   0.448170 0.000010 0.541840 -0.622663
O42   O     O_R   0.999990 0.448170 0.541840 -0.622617
O43   O     O_R   0.551830 0.999990 0.541840 -0.622617
O44   O     O_2   0.933108 0.415258 0.175363 -0.515848
O45   O     O_R   0.500030 0.408460 0.523630 -0.612768
O46   O     O_2   0.585889 0.934478 0.175308 -0.516447
O47   O     O_2   0.066470 0.585516 0.175526 -0.517503
O48   O     O_2   0.414689 0.066573 0.175573 -0.516498
O49   O     O_2   0.432589 0.915095 0.675397 -0.516172
O50   O     O_2   0.085117 0.433368 0.675312 -0.516130
O51   O     O_2   0.566946 0.084566 0.675485 -0.516077
O52   O     O_2   0.915602 0.567619 0.675570 -0.516123
O53   O     O_2   0.583390 0.069432 0.824169 -0.548380
O54   O     O_2   0.930492 0.583672 0.824295 -0.549079
O55   O     O_2   0.416641 0.929741 0.824160 -0.549823
O56   O     O_R   0.591540 0.500030 0.523630 -0.612788
O57   O     O_2   0.070239 0.417010 0.824036 -0.549117
O58   O     O_2   0.083109 0.570004 0.324204 -0.548792
O59   O     O_2   0.429467 0.082875 0.324298 -0.548802
O60   O     O_2   0.917081 0.429456 0.324124 -0.548820
O61   O     O_2   0.571262 0.917942 0.324033 -0.548901
O62   O     O_2   0.786117 0.142268 0.957368 -0.562509
O63   O     O_2   0.848779 0.786354 0.964877 -0.566689
O64   O     O_2   0.212597 0.840318 0.974358 -0.570459
O65   O     O_2   0.150718 0.213028 0.964110 -0.565516
O66   O     O_2   0.286484 0.646307 0.460468 -0.564062
O67   O     O_R   0.499970 0.591540 0.523630 -0.612829
O68   O     O_2   0.353723 0.286158 0.460367 -0.563982
O69   O     O_2   0.713735 0.353564 0.460285 -0.563987
O70   O     O_2   0.646415 0.713491 0.460363 -0.563978
O71   O     O_2   0.170231 0.581481 0.203334 -0.512613
O72   O     O_2   0.417869 0.170299 0.203588 -0.512207
O73   O     O_2   0.829454 0.419078 0.203392 -0.512139
O74   O     O_2   0.582904 0.830773 0.203165 -0.512355
O75   O     O_2   0.670675 0.080005 0.703303 -0.512178
O76   O     O_2   0.920136 0.671297 0.703583 -0.512142
O77   O     O_2   0.328974 0.919509 0.703436 -0.512145
O78   O     O_R   0.408460 0.499970 0.523630 -0.612810
O79   O     O_2   0.080754 0.329695 0.703158 -0.512187
O80   O     O_R   0.000060 0.908530 0.976290 -0.620154
Zn1   Zn    Zn3+2 0.000000 0.000000 0.031570 0.962706
Zn2   Zn    Zn3+2 0.430820 0.000040 0.499920 0.986120
Zn3   Zn    Zn3+2 0.999960 0.430820 0.499920 0.986081
Zn4   Zn    Zn3+2 0.569180 0.999960 0.499920 0.986118
Zn5   Zn    Zn3+2 0.500000 0.500000 0.531570 0.966969
Zn6   Zn    Zn3+2 0.000000 0.000000 0.968360 0.995907
Zn7   Zn    Zn3+2 0.500000 0.500000 0.468360 0.992643
Zn8   Zn    Zn3+2 0.500040 0.069180 0.999920 0.987742
Zn9   Zn    Zn3+2 0.930820 0.500040 0.999920 0.985848
Zn10  Zn    Zn3+2 0.499960 0.930820 0.999920 0.988391
Zn11  Zn    Zn3+2 0.069180 0.499960 0.999920 0.990250
Zn12  Zn    Zn3+2 0.000040 0.569180 0.499920 0.986093

loop_
_geom_bond_atom_site_label_1
_geom_bond_atom_site_label_2
_ccdc_geom_bond_type
C54   H44   S    
C74   C83   A    
C31   H31   S    
C161  O9    A    
C54   C65   A    
C168  O20   A    
C32   H32   S    
O6    Zn7   S    
C35   C124  A    
C8    C214  A    
C185  N11   A    
C92   C109  S    
C193  C211  A    
C165  O15   A    
C39   H39   S    
C72   C101  A    
C107  H94   S    
C94   C111  S    
C121  H9    S    
C123  C205  S    
C174  O35   A    
C2    C90   A    
O24   Zn2   S    
C178  O43   A    
C174  O26   A    
C82   C140  S    
C172  O33   A    
C127  C209  S    
C196  C204  A    
O4    Zn6   S    
C108  O65   D    
C88   C97   A    
O5    Zn7   S    
C93   C110  S    
C148  H70   S    
C187  C193  A    
C149  H71   S    
C57   C133  A    
C157  H87   S    
C122  H14   S    
C115  H104  S    
C61   C155  A    
C131  O79   D    
O35   Zn2   S    
C119  N5    S    
C183  N10   A    
C139  C148  S    
C188  C205  A    
C119  H119  S    
C50   C164  S    
C103  H54   S    
C36   C200  A    
C137  C146  S    
C131  H25   S    
C44   H45   S    
C101  C137  S    
C23   N12   A    
C140  O3    A    
C108  H95   S    
C128  H21   S    
C137  H59   S    
C82   C91   A    
C32   C197  A    
C5    C207  A    
C129  O76   D    
C171  O24   A    
C16   C20   A    
C173  O56   A    
C107  O64   D    
C58   C69   A    
C5    H27   S    
C192  C210  A    
O16   Zn3   S    
C181  N1    A    
C38   H38   S    
C38   C200  A    
C36   C44   A    
C55   H55   S    
C37   C45   A    
C117  N3    S    
C118  H117  S    
C122  H16   S    
C120  H6    S    
C30   H30   S    
C70   C79   A    
C139  H61   S    
C167  O28   A    
O28   Zn11  S    
C76   C133  A    
C106  H93   S    
C3    C213  A    
C140  O23   A    
C8    C17   A    
C121  H11   S    
C178  O41   A    
C80   C88   A    
C160  H91   S    
C210  C214  A    
O36   Zn8   S    
C64   C177  S    
C117  H112  S    
C45   C50   A    
C137  N3    S    
C62   C175  S    
C36   H36   S    
C167  O19   A    
C84   C93   A    
C164  O14   A    
C33   H34   S    
C183  O49   S    
C3    C11   A    
C86   C95   A    
C159  H90   S    
C194  C212  A    
C40   H40   S    
C173  O6    A    
C1    O1    A    
C144  H65   S    
C35   C170  S    
C29   O61   S    
C115  H102  S    
C76   C85   A    
C31   C198  A    
C52   C65   A    
C184  O7    A    
C78   C87   A    
C11   C18   A    
C26   N14   A    
C102  H53   S    
C131  C213  S    
C115  N16   S    
C124  C139  S    
C65   N1    S    
C63   C159  A    
C187  O52   S    
C24   C169  S    
C185  O50   S    
C9    C215  A    
O80   Zn6   S    
C122  H15   S    
C133  C142  S    
C149  H80   S    
C139  N5    S    
C33   C42   A    
C122  N8    S    
C46   C132  A    
C72   C146  S    
C75   C84   A    
C26   O58   S    
C105  H92   S    
C11   C25   A    
C40   C49   A    
C19   C201  A    
C183  C194  A    
C90   C136  S    
C12   C19   A    
C17   C203  A    
O3    Zn6   S    
O43   Zn4   S    
C59   C67   A    
O1    Zn1   S    
C180  O46   S    
C181  O47   S    
O15   Zn2   S    
C32   C41   A    
C129  C211  S    
C6    C208  A    
C118  H115  S    
C3    H24   S    
C128  C210  S    
C153  H83   S    
C134  C143  S    
C154  H84   S    
C96   H48   S    
C126  O73   D    
C83   C195  S    
C6    H28   S    
C150  H72   S    
O78   Zn5   S    
C4    H26   S    
C25   O57   S    
C78   C151  S    
C151  O4    A    
C130  H23   S    
C165  O17   A    
C114  H100  S    
C118  N4    S    
O21   Zn11  S    
C215  H2    S    
C28   O60   S    
O22   Zn12  S    
C13   C168  S    
C53   H33   S    
C100  H52   S    
C144  H74   S    
C52   C153  A    
C125  C207  S    
C12   C26   A    
C135  H57   S    
C164  O16   A    
C1    O80   A    
C25   N13   A    
C56   C157  A    
H109  N3    S    
C179  N1    A    
C27   N15   A    
C87   C105  S    
C81   C112  S    
C76   C150  S    
C175  O36   A    
C155  H85   S    
C216  H13   S    
C38   C47   A    
C127  O74   D    
C41   H41   S    
C191  C209  A    
C117  H113  S    
C71   C145  S    
C51   C165  S    
C4    C12   A    
C77   C134  A    
C63   C157  A    
C35   C100  A    
C145  H67   S    
C146  H68   S    
C75   C132  A    
C44   C51   A    
C28   N14   A    
C132  C141  S    
C148  H79   S    
H12   N8    S    
C112  O12   A    
C34   C43   A    
C180  C191  A    
C195  O8    A    
C43   C50   A    
C147  H78   S    
C189  C202  A    
O23   Zn1   S    
C7    H29   S    
C89   C98   A    
C123  O71   D    
C20   C202  A    
C42   H42   S    
C53   C66   A    
C184  O67   A    
C10   C216  A    
H105  N2    S    
C71   C90   A    
C60   C69   A    
C98   H50   S    
C143  H64   S    
O12   Zn1   S    
C114  O70   D    
O9    Zn8   S    
C49   C163  S    
C147  H69   S    
C9    C18   A    
C125  O72   D    
C64   C158  A    
C29   N15   A    
C110  O68   D    
C18   C204  A    
C91   C99   A    
O56   Zn5   S    
C116  H107  S    
C74   C124  A    
O38   Zn10  S    
C115  H103  S    
C179  O44   S    
C4    C205  A    
C177  O42   A    
C15   C19   A    
C63   C178  S    
C73   C147  S    
O7    Zn7   S    
C168  O29   A    
C74   C148  S    
C141  H62   S    
C22   N13   A    
C70   C78   A    
C95   C114  S    
C121  N7    S    
C176  O37   A    
C73   C113  A    
C31   C40   A    
C56   H66   S    
C23   O55   S    
C125  H18   S    
C169  O21   A    
C59   C159  A    
C177  O40   A    
C105  O62   D    
C2    C97   A    
C126  C208  S    
C143  N8    S    
C110  H97   S    
C34   H35   S    
O32   Zn4   S    
C14   C27   A    
C152  H82   S    
C72   C81   A    
C57   C172  S    
C81   C89   A    
C199  N14   S    
O40   Zn12  S    
C86   C184  S    
C135  N16   S    
C61   C176  S    
C136  N2    S    
O39   Zn11  S    
C7    C209  A    
C181  C188  A    
C57   C103  A    
C150  H81   S    
C14   C20   A    
C43   H43   S    
C54   C155  A    
C58   H77   S    
C111  H98   S    
C47   C51   A    
C48   C161  S    
C200  N15   S    
C121  H10   S    
C141  N6    S    
C104  H56   S    
O34   Zn1   S    
C117  H111  S    
C99   H51   S    
C64   C160  A    
C52   H1    S    
C186  C192  A    
H8    N7    S    
C5    C14   A    
C143  C152  S    
C94   C103  A    
C37   H37   S    
C162  O5    A    
C112  O2    A    
C185  C196  A    
C79   C206  A    
C73   C82   A    
C55   C66   A    
C84   C162  S    
C182  N9    A    
C170  O22   A    
C119  H120  S    
C91   C108  S    
O30   Zn9   S    
C136  H58   S    
C68   C104  A    
H114  N4    S    
C93   C102  A    
C182  O48   S    
C162  O45   A    
C111  O69   D    
C79   C135  S    
C176  O39   A    
C70   C144  S    
C142  C150  S    
C68   C134  A    
C186  N10   A    
C15   C28   A    
C170  O31   A    
C189  C207  A    
O18   Zn8   S    
C109  H96   S    
C192  C203  A    
C62   C156  A    
C66   N9    S    
O45   Zn5   S    
C195  O78   A    
C1    C80   S    
C113  C138  S    
C166  C206  S    
C169  O30   A    
C67   N10   S    
C118  H116  S    
C39   C48   A    
C171  O32   A    
C211  C215  A    
C120  H5    S    
C129  H22   S    
C156  H86   S    
C24   C99   A    
O17   Zn4   S    
C130  C212  S    
C152  H73   S    
C116  H106  S    
C22   O54   S    
H101  N16   S    
C141  C149  S    
O25   Zn3   S    
C163  O10   A    
O13   Zn11  S    
O26   Zn4   S    
C83   C92   A    
C46   C102  A    
O11   Zn10  S    
O14   Zn12  S    
C127  H20   S    
C193  C204  A    
C214  H110  S    
C33   C198  A    
C138  N4    S    
C75   C149  S    
O19   Zn9   S    
C9    C22   A    
C10   C17   A    
C188  C201  A    
C46   C171  S    
C13   C98   A    
C186  O51   S    
C145  H75   S    
C6    C15   A    
C123  H17   S    
C146  H76   S    
C34   C199  A    
C158  H89   S    
O41   Zn2   S    
C212  C216  A    
C151  O34   A    
O67   Zn5   S    
C30   C39   A    
C85   C173  S    
H4    N6    S    
C182  C189  A    
C136  C145  S    
C161  O11   A    
O37   Zn9   S    
C24   C113  A    
O29   Zn8   S    
C119  H3    S    
C89   C107  S    
O42   Zn3   S    
C71   C80   A    
C142  N7    S    
C60   H99   S    
C175  O38   A    
C55   C156  A    
C166  O18   A    
C172  O25   A    
C128  O75   D    
C58   C158  A    
C68   C174  S    
C47   H47   S    
C16   C29   A    
C69   N11   S    
O20   Zn10  S    
C62   C154  A    
C138  H60   S    
C21   N12   A    
O2    Zn6   S    
C197  N12   S    
C88   C106  S    
C85   C94   A    
C96   C206  A    
C166  O27   A    
C163  O13   A    
C138  C147  S    
C87   C96   A    
O8    Zn7   S    
C8    C21   A    
C77   C152  S    
C126  H19   S    
C180  N9    A    
H118  N5    S    
C190  C208  A    
C135  C144  S    
C191  C202  A    
C77   C86   A    
C120  H7    S    
C109  O66   D    
C13   C101  A    
C106  O63   D    
C116  H108  S    
C198  N13   S    
C95   C104  A    
C92   C100  A    
C59   H88   S    
C97   H49   S    
C7    C16   A    
C60   C160  A    
O10   Zn9   S    
C61   C153  A    
C142  H63   S    
C190  C201  A    
C21   O53   S    
C10   C23   A    
C56   C67   A    
O31   Zn3   S    
O27   Zn10  S    
C187  N11   A    
C196  C213  A    
C45   H46   S    
C179  C190  A    
C194  C203  A    
C41   C48   A    
C37   C199  A    
C130  O77   D    
C27   O59   S    
C42   C49   A    
C120  N6    S    
C53   C154  A    
C30   C197  A    
O33   Zn12  S    
C116  N2    S    
C2    C167  S    
