data_mof_unit_52972.cif
_audit_creation_date              2012-12-10T17:57:27-0500
_audit_creation_method            fapswitch 2.2
_symmetry_space_group_name_H-M    P1
_symmetry_Int_Tables_number       1
_space_group_crystal_system       triclinic
_cell_length_a                    9.508218
_cell_length_b                    10.828379
_cell_length_c                    13.458227
_cell_angle_alpha                 90.141905
_cell_angle_beta                  72.34251
_cell_angle_gamma                 89.890039
_cell_volume                      1320.34886965

loop_
_atom_site_label
_atom_site_type_symbol
_atom_type_description
_atom_site_fract_x
_atom_site_fract_y
_atom_site_fract_z
_atom_type_partial_charge
C1    C     C_R   0.499652 0.737947 0.500694 0.803968
C2    C     C_R   0.434653 0.482122 0.979312 0.084156
C3    C     C_R   0.472657 0.454000 0.871335 0.084339
C4    C     C_R   0.543951 0.468230 0.031133 0.074327
C5    C     C_R   0.683712 0.416457 0.977193 0.168970
C6    C     C_R   0.712012 0.375886 0.874831 -0.260685
C7    C     C_R   0.607282 0.392093 0.823329 -0.210323
C8    C     C_R   0.519026 0.504877 0.135013 -0.253128
C9    C     C_R   0.762522 0.435226 0.131793 -0.204953
C10   C     C_R   0.373566 0.486871 0.814998 -0.108602
C11   C     C_R   0.624201 0.935906 0.507718 -0.182694
C12   C     C_R   0.421288 0.493024 0.700161 0.789763
C13   C     C_R   0.624373 0.063648 0.507537 -0.189546
C14   C     C_R   0.499386 0.128193 0.501547 -0.011772
C15   C     C_R   0.373786 0.064024 0.496643 -0.194765
C16   C     C_R   0.373667 0.936298 0.496750 -0.183498
C17   C     C_R   0.499098 0.871763 0.501818 -0.020372
C18   C     C_R   0.897353 0.578521 0.563404 -0.149253
C19   C     C_R   0.047752 0.578544 0.565370 0.572112
C20   C     C_R   0.101710 0.422029 0.436303 -0.128867
C21   C     C_R   0.952964 0.421890 0.436521 -0.048917
C22   C     C_R   0.499856 0.262033 0.500443 0.776450
C23   C     C_R   0.578936 0.498576 0.299884 0.796353
C24   C     C_R   0.792528 0.402548 0.027277 -0.207848
C25   C     C_R   0.624072 0.483635 0.186516 -0.046544
C26   C     C_R   0.229905 0.525588 0.869400 -0.192105
C27   C     C_R   0.187104 0.539966 0.976808 -0.166362
C28   C     C_R   0.288307 0.521326 0.031286 -0.182459
Cu1   Cu    Cu3+1 0.359340 0.499980 0.500000 0.977485
Cu2   Cu    Cu3+1 0.640660 0.500020 0.500000 0.933871
H1    H     H_    0.845185 0.418323 0.170619 0.149579
H2    H     H_    0.722210 0.111555 0.511995 0.147032
H3    H     H_    0.275938 0.112215 0.492191 0.147573
H4    H     H_    0.275859 0.888377 0.492266 0.161647
H5    H     H_    0.815604 0.640818 0.610940 0.147513
H6    H     H_    0.179841 0.359540 0.385070 0.145673
H7    H     H_    0.918784 0.359300 0.385504 0.130876
H8    H     H_    0.815549 0.330820 0.834342 0.147170
H9    H     H_    0.899378 0.363160 0.986358 0.141247
H10   H     H_    0.417631 0.549251 0.178615 0.147645
H11   H     H_    0.150899 0.547397 0.828625 0.159959
H12   H     H_    0.246938 0.535436 0.114339 0.126235
H13   H     H_    0.075674 0.569424 0.017918 0.147355
H14   H     H_    0.632411 0.351754 0.746472 0.176529
H15   H     H_    0.721937 0.887668 0.512284 0.147911
N1    N     N_R   0.147940 0.499970 0.499970 -0.185853
N2    N     N_R   0.852060 0.500060 0.499990 -0.172832
O1    O     O_R   0.381250 0.680340 0.500010 -0.537871
O2    O     O_R   0.618820 0.680370 0.500010 -0.591535
O3    O     O_R   0.323240 0.499950 0.650980 -0.542368
O4    O     O_R   0.560810 0.499980 0.650980 -0.589914
O5    O     O_R   0.381180 0.319630 0.499990 -0.591911
O6    O     O_R   0.618750 0.319660 0.499990 -0.594796
O7    O     O_R   0.439190 0.500020 0.349020 -0.588512
O8    O     O_R   0.676760 0.500050 0.349020 -0.582194
O9    O     O_3   0.101967 0.658681 0.626591 -0.589284
C29   C     C_3   0.993835 0.716411 0.709978 0.000884
H16   H     H_    0.044646 0.733778 0.772889 0.168199
H17   H     H_    0.897572 0.655874 0.746484 0.129096
C30   C     C_3   0.950226 0.842358 0.675962 -0.371779
H18   H     H_    0.045052 0.906737 0.662543 0.221956
H19   H     H_    0.923606 0.833896 0.601449 0.203170
C31   C     C_3   0.817345 0.897137 0.758582 -0.896387
H20   H     H_    0.719988 0.835886 0.770747 0.258702
H21   H     H_    0.790150 0.988866 0.732409 0.252891
H22   H     H_    0.842322 0.908864 0.833504 0.257293

loop_
_geom_bond_atom_site_label_1
_geom_bond_atom_site_label_2
_ccdc_geom_bond_type
C19   O9    S    
C12   O3    A    
Cu2   O4    S    
C6    H8    S    
C9    C24   A    
C23   O8    A    
C6    C7    A    
C18   H5    S    
C13   H2    S    
C1    C17   S    
Cu1   N1    S    
C4    C8    A    
C18   N2    A    
C14   C22   S    
C31   H21   S    
C2    C3    A    
C29   H16   S    
C19   N1    A    
C9    C25   A    
C1    O1    A    
C3    C10   A    
C13   C14   A    
O9    C29   S    
C8    C25   A    
C11   C13   A    
C10   C26   A    
C26   C27   A    
Cu1   Cu2   S    
C5    C24   A    
C10   C12   S    
C30   C31   S    
C2    C4    A    
C22   O5    A    
Cu2   O2    S    
C22   O6    A    
C3    C7    A    
Cu1   O3    S    
C23   C25   S    
C5    C6    A    
Cu2   O6    S    
C20   N1    A    
C31   H22   S    
C29   H17   S    
C11   H15   S    
Cu1   O7    S    
C9    H1    S    
Cu1   O1    S    
C31   H20   S    
C20   H6    S    
C27   H13   S    
Cu2   N2    S    
C4    C5    A    
C12   O4    A    
C21   H7    S    
C20   C21   A    
C23   O7    A    
C30   H19   S    
C18   C19   A    
Cu2   O8    S    
C28   H12   S    
C27   C28   A    
C14   C15   A    
C30   H18   S    
C29   C30   S    
C2    C28   A    
C8    H10   S    
C16   H4    S    
C7    H14   S    
C1    O2    A    
C24   H9    S    
C15   H3    S    
C11   C17   A    
C15   C16   A    
C26   H11   S    
C16   C17   A    
C21   N2    A    
Cu1   O5    S    
