data_mof_unit_28056.cif
_audit_creation_date              2012-12-10T20:25:43-0500
_audit_creation_method            fapswitch 2.2
_symmetry_space_group_name_H-M    P1
_symmetry_Int_Tables_number       1
_space_group_crystal_system       triclinic
_cell_length_a                    8.592054
_cell_length_b                    10.655477
_cell_length_c                    9.878993
_cell_angle_alpha                 89.990252
_cell_angle_beta                  98.180039
_cell_angle_gamma                 90.211657
_cell_volume                      895.237728122

loop_
_atom_site_label
_atom_site_type_symbol
_atom_type_description
_atom_site_fract_x
_atom_site_fract_y
_atom_site_fract_z
_atom_type_partial_charge
C1    C     C_R   0.506231 0.260025 0.500889 0.872285
C2    C     C_R   0.414091 0.412867 0.918308 0.177744
C3    C     C_3   0.239634 0.397723 0.892423 -0.518696
C4    C     C_R   0.201319 0.499917 0.464298 0.965536
C5    C     C_3   0.241179 0.394589 0.046527 -0.149463
C6    C     C_R   0.505429 0.740079 0.500711 0.877090
C7    C     C_R   0.798478 0.501014 0.535341 0.965245
C8    C     C_2   0.036315 0.498334 0.444483 -0.400297
C9    C     C_2   0.962996 0.504726 0.553692 -0.384346
C10   C     C_R   0.529452 0.064038 0.627275 0.146527
C11   C     C_R   0.534680 0.128923 0.505771 -0.105321
C12   C     C_R   0.570846 0.935353 0.390111 -0.232032
C13   C     C_R   0.572684 0.065282 0.390693 -0.229983
C14   C     C_3   0.186147 0.270823 0.106665 -0.349665
C15   C     C_3   0.272975 0.151617 0.071468 -0.337397
C16   C     C_3   0.220288 0.037734 0.147257 -0.883907
C17   C     C_R   0.532765 0.871496 0.505294 -0.103127
C18   C     C_R   0.528529 0.936173 0.627118 0.128170
C19   C     C_3   0.413220 0.929280 0.726980 -0.477285
C20   C     C_3   0.414736 0.071595 0.727313 -0.505594
C21   C     C_R   0.415310 0.412009 0.061271 0.192404
C22   C     C_R   0.594561 0.579130 0.083582 -0.143841
C23   C     C_R   0.594702 0.579040 0.939742 -0.133590
H1    H     H_    0.975598 0.490708 0.340328 0.176110
H2    H     H_    0.465670 0.887918 0.826343 0.203449
H3    H     H_    0.300499 0.113596 0.682811 0.199032
H4    H     H_    0.469110 0.112510 0.826427 0.199507
H5    H     H_    0.668555 0.644881 0.146928 0.144426
H6    H     H_    0.243143 0.053157 0.259536 0.270198
H7    H     H_    0.092722 0.020035 0.116173 0.256127
H8    H     H_    0.286553 0.953608 0.122099 0.253065
H9    H     H_    0.247805 0.132182 0.960288 0.220540
H10   H     H_    0.401817 0.163621 0.099961 0.216443
H11   H     H_    0.200626 0.281346 0.219677 0.220517
H12   H     H_    0.668844 0.644678 0.894697 0.144279
H13   H     H_    0.058334 0.259079 0.070744 0.194239
H14   H     H_    0.182280 0.483712 0.846840 0.192140
H15   H     H_    0.202009 0.309829 0.836854 0.196788
H16   H     H_    0.181649 0.477715 0.083823 0.168330
H17   H     H_    0.023158 0.513894 0.656963 0.169305
H18   H     H_    0.591891 0.114724 0.298747 0.170122
H19   H     H_    0.588003 0.886200 0.297415 0.167967
H20   H     H_    0.298188 0.888343 0.681859 0.204708
N1    N     N_R   0.498950 0.499140 0.142680 -0.119266
N2    N     N_R   0.498950 0.499180 0.857030 -0.102998
O1    O     O_R   0.500020 0.316790 0.614690 -0.614592
O2    O     O_R   0.500000 0.316760 0.385350 -0.627243
O3    O     O_R   0.271760 0.500010 0.587850 -0.609373
O4    O     O_R   0.271740 0.499970 0.358500 -0.637928
O5    O     O_R   0.500000 0.683240 0.614650 -0.620944
O6    O     O_R   0.499980 0.683210 0.385310 -0.625090
O7    O     O_R   0.728260 0.500030 0.641500 -0.628248
O8    O     O_R   0.728240 0.499990 0.412150 -0.616609
Zn1   Zn    Zn3+2 0.500010 0.500020 0.653130 0.937156
Zn2   Zn    Zn3+2 0.499990 0.499980 0.346870 0.927386

loop_
_geom_bond_atom_site_label_1
_geom_bond_atom_site_label_2
_ccdc_geom_bond_type
C12   C17   A    
C14   H11   S    
C23   N2    A    
C20   H4    S    
C6    O6    A    
C19   H20   S    
C21   N1    A    
N2    Zn1   S    
O8    Zn2   S    
C23   H12   S    
C19   C20   S    
C1    C11   S    
C4    O4    A    
C4    C8    S    
O4    Zn2   S    
O1    Zn1   S    
C2    C21   A    
C13   H18   S    
C2    C3    S    
C15   H9    S    
C22   H5    S    
C6    O5    A    
C16   H8    S    
O3    Zn1   S    
C11   C13   A    
N1    Zn2   S    
C5    C14   S    
O5    Zn1   S    
C20   H3    S    
C10   C18   A    
C8    H1    S    
O7    Zn1   S    
C7    O7    A    
C17   C18   A    
O6    Zn2   S    
C5    H16   S    
C2    N2    A    
C14   H13   S    
C19   H2    S    
C1    O1    A    
C10   C11   A    
C7    O8    A    
C16   H7    S    
C15   C16   S    
C5    C21   S    
C12   C13   A    
C3    H14   S    
O2    Zn2   S    
C18   C19   S    
C4    O3    A    
C7    C9    S    
C6    C17   S    
C22   C23   A    
C1    O2    A    
C12   H19   S    
C16   H6    S    
C14   C15   S    
C15   H10   S    
C9    H17   S    
C22   N1    A    
C3    H15   S    
C10   C20   S    
C8    C9    D    
C3    C5    S    
