data_mof_unit_29185.cif
_audit_creation_date              2013-03-05T15:42:40-0500
_audit_creation_method            fapswitch 2.2
_symmetry_space_group_name_H-M    P1
_symmetry_Int_Tables_number       1
_space_group_crystal_system       triclinic
_cell_length_a                    7.753634
_cell_length_b                    8.595074
_cell_length_c                    27.267313
_cell_angle_alpha                 91.737992
_cell_angle_beta                  85.218522
_cell_angle_gamma                 93.601592
_cell_volume                      1806.70130602

loop_
_atom_site_label
_atom_site_type_symbol
_atom_site_description
_atom_site_fract_x
_atom_site_fract_y
_atom_site_fract_z
_atom_type_partial_charge
O1    O     O_R   0.389250 0.738570 0.503220 -0.627716
O2    O     O_R   0.610750 0.261430 0.496780 -0.624092
O3    O     O_R   0.678390 0.711630 0.494810 -0.591330
O4    O     O_R   0.321610 0.288370 0.505190 -0.612684
C1    C     C_R   0.545785 0.794859 0.498961 1.020445
C2    C     C_R   0.454214 0.205164 0.501303 0.974555
O5    O     O_R   0.355440 0.513440 0.575450 -0.564969
O6    O     O_R   0.644560 0.486560 0.424550 -0.584731
O7    O     O_R   0.644590 0.486500 0.567040 -0.606249
O8    O     O_R   0.355410 0.513500 0.432960 -0.580709
C3    C     C_R   0.502147 0.502787 0.594391 0.978092
C4    C     C_R   0.499776 0.502799 0.405578 0.944638
Zn1   Zn    Zn3+2 0.306940 0.517990 0.505620 1.073758
Zn2   Zn    Zn3+2 0.693060 0.482010 0.494380 1.068929
C5    C     C_R   0.681768 0.586202 0.824242 0.620291
C6    C     C_R   0.605927 0.292268 0.176280 0.610683
O9    O     O_2   0.700669 0.731641 0.806524 -0.448849
O10   O     O_2   0.558648 0.169880 0.205069 -0.446810
N1    N     N_R   0.594260 0.470514 0.799030 -0.343414
N2    N     N_R   0.628110 0.437102 0.198028 -0.348315
C7    C     C_R   0.549220 0.329606 0.820163 0.591983
C8    C     C_R   0.694580 0.562062 0.171299 0.590569
C9    C     C_R   0.400326 0.446384 0.731195 -0.108429
C10   C     C_R   0.704825 0.544159 0.278313 -0.114237
C11   C     C_R   0.377390 0.446167 0.680818 0.264482
C12   C     C_R   0.662301 0.581205 0.327634 0.272390
C13   C     C_R   0.666461 0.577589 0.666756 0.277523
C14   C     C_R   0.386533 0.427973 0.323534 0.255474
C15   C     C_R   0.693025 0.558424 0.715952 -0.088098
C16   C     C_R   0.425620 0.405847 0.272785 -0.106288
C17   C     C_R   0.561034 0.493751 0.748593 0.138847
C18   C     C_R   0.586623 0.459591 0.250230 0.144113
C19   C     C_R   0.679806 0.420944 0.894116 -0.109983
C20   C     C_R   0.710704 0.400650 0.097351 -0.124579
C21   C     C_R   0.747163 0.555001 0.869146 -0.135772
C22   C     C_R   0.634355 0.272077 0.124434 -0.136440
C23   C     C_R   0.882617 0.648120 0.888516 0.275313
C24   C     C_R   0.594294 0.129174 0.098835 0.294446
C25   C     C_R   0.573282 0.308990 0.870095 -0.115025
C26   C     C_R   0.756269 0.542259 0.122016 -0.115189
C27   C     C_R   0.512309 0.511514 0.647991 -0.294841
C28   C     C_R   0.508281 0.512331 0.351654 -0.267235
H1    H     H_    0.816996 0.596837 0.729104 0.221342
H2    H     H_    0.330921 0.345130 0.250913 0.206683
C29   C     C_R   0.816316 0.518532 0.018694 0.066651
C30   C     C_R   0.640743 0.270782 0.969557 0.072776
C31   C     C_R   0.667755 0.257814 0.020174 -0.057469
C32   C     C_R   0.824623 0.513896 0.966479 -0.047347
C33   C     C_R   0.734208 0.391198 0.045394 0.060829
C34   C     C_R   0.716893 0.400624 0.943273 0.072712
C35   C     C_R   0.874492 0.652129 0.045062 -0.132878
C36   C     C_R   0.525541 0.166456 0.945767 -0.155187
C37   C     C_R   0.850929 0.663623 0.096033 0.321450
C38   C     C_R   0.496645 0.180629 0.896492 0.325080
O11   O     O_2   0.693692 0.706622 0.192026 -0.441248
O12   O     O_2   0.486283 0.209384 0.792667 -0.456141
C39   C     C_R   0.927117 0.623222 0.936538 0.227986
C40   C     C_R   0.620524 0.120324 0.046976 0.212616
H3    H     H_    0.828695 0.586973 0.260944 0.218678
H4    H     H_    0.296556 0.399205 0.756546 0.213636
H5    H     H_    0.932948 0.753434 0.026847 0.239401
H6    H     H_    0.446316 0.077945 0.965645 0.223664
C41   C     C_2   0.570026 0.958142 0.498334 -0.271130
C42   C     C_2   0.429986 0.041906 0.502220 -0.315967
H7    H     H_    0.702394 0.008918 0.494546 0.195502
H8    H     H_    0.297625 0.991114 0.506026 0.196852
N3    N     N_2   0.950320 0.457960 0.486880 -0.143550
N4    N     N_2   0.049680 0.542040 0.513120 -0.145072
H9    H     H_    0.013336 0.378515 0.464030 0.232115
H10   H     H_    0.986532 0.620765 0.536213 0.239965
N5    N     N_R   0.795105 0.667721 0.636671 0.225680
O13   O     O_R   0.958560 0.664941 0.644033 -0.334120
O14   O     O_R   0.747381 0.772110 0.607814 -0.392020
N6    N     N_R   0.226396 0.359863 0.345756 0.207452
O15   O     O_R   0.174639 0.218367 0.333233 -0.319014
O16   O     O_R   0.116424 0.448287 0.369719 -0.340750
Br1   Br    Br    0.032862 0.782487 0.845939 -0.193288
Br2   Br    Br    0.496494 0.944064 0.132090 -0.187439
N7    N     N_R   0.774936 0.690907 0.352782 0.252337
O17   O     O_R   0.937936 0.711870 0.337359 -0.288693
O18   O     O_R   0.709417 0.788432 0.385587 -0.376785
N8    N     N_R   0.222662 0.369359 0.663737 0.251888
O19   O     O_R   0.075484 0.378929 0.689985 -0.343898
O20   O     O_R   0.234320 0.264055 0.628501 -0.345546
N9    N     N_R   0.932844 0.795232 0.120787 0.263574
O21   O     O_R   0.944826 0.931997 0.101126 -0.339183
O22   O     O_R   0.023884 0.772734 0.157669 -0.286125
N10   N     N_R   0.376792 0.070035 0.875461 0.270250
O23   O     O_R   0.402819 0.922080 0.875983 -0.252621
O24   O     O_R   0.229975 0.114855 0.862756 -0.287282
N11   N     N_R   0.088453 0.691681 0.951921 0.218382
O25   O     O_R   0.122041 0.841834 0.950686 -0.270363
O26   O     O_R   0.196152 0.605079 0.970965 -0.343672
N12   N     N_R   0.621548 0.970021 0.022011 0.200789
O27   O     O_R   0.488513 0.870106 0.027405 -0.305520
O28   O     O_R   0.744895 0.942472 0.988104 -0.366529

loop_
_geom_bond_atom_site_label_1
_geom_bond_atom_site_label_2
_geom_bond_distance
_ccdc_geom_bond_type
C38   N10   1.428575 S    
C41   H7    1.087783 S    
C13   C15   1.390241 A    
C35   H5    1.072105 S    
N1    C17   1.442151 S    
C32   C39   1.423226 A    
C31   C33   1.410600 A    
N9    O21   1.301555 A    
O5    C3    1.297288 A    
C19   C25   1.410397 A    
N6    O16   1.300027 A    
O1    C1    1.275457 A    
N1    C7    1.369843 A    
C10   C12   1.389969 A    
C25   C38   1.408145 A    
C29   C35   1.406378 A    
C30   C36   1.408339 A    
C1    C41   1.404638 S    
C2    C42   1.404682 S    
O4    Zn1   1.983621 S    
C4    C28   1.470875 S    
C24   C40   1.412164 A    
Zn2   N3    2.011122 S    
C6    N2    1.369764 A    
C32   C34   1.412281 A    
C14   N6    1.433982 S    
C15   H1    1.082580 S    
C14   C28   1.416233 A    
C16   H2    1.083129 S    
O2    C2    1.275594 A    
C5    C21   1.403095 A    
C36   C38   1.390618 A    
N9    O22   1.301680 A    
C9    H4    1.083027 S    
N6    O15   1.301171 A    
N3    N4    1.272119 D    
O4    C2    1.284298 A    
C11   C27   1.418306 A    
N11   O25   1.301344 A    
N7    O18   1.301211 A    
C24   Br2   1.936478 S    
C19   C34   1.412301 A    
C23   Br1   1.930174 S    
C41   C42   1.335287 D    
C35   C37   1.387943 A    
C9    C17   1.402352 A    
C5    N1    1.368666 A    
O7    Zn2   1.985219 S    
C10   C18   1.397934 A    
N11   O26   1.301860 A    
C13   C27   1.418440 A    
C7    C25   1.407515 A    
C29   C33   1.420103 A    
O6    C4    1.291597 A    
C8    C26   1.397421 A    
N12   O28   1.301280 A    
O7    C3    1.292822 A    
O3    Zn2   1.983622 S    
O8    C4    1.299361 A    
C6    O10   1.345672 S    
N10   O24   1.301236 A    
C26   C37   1.410931 A    
N8    O20   1.301369 A    
C11   N8    1.437726 S    
C20   C26   1.412279 A    
O1    Zn1   1.963307 S    
C13   N5    1.439816 S    
C12   C28   1.417695 A    
N5    O14   1.301597 A    
N2    C18   1.442813 S    
C29   C32   1.419306 A    
C5    O9    1.348832 S    
C30   C31   1.421831 A    
C20   C33   1.413764 A    
O6    Zn2   1.973369 S    
C39   N11   1.437723 S    
C21   C23   1.408489 A    
N2    C8    1.365901 A    
O3    C1    1.284440 A    
O8    Zn1   1.985219 S    
C7    O12   1.348570 S    
C8    O11   1.349481 S    
C30   C34   1.415252 A    
C12   N7    1.441913 S    
C14   C16   1.401503 A    
C40   N12   1.442011 S    
N5    O13   1.301386 A    
C15   C17   1.398284 A    
C36   H6    1.077349 S    
C6    C22   1.419579 A    
C31   C40   1.420600 A    
C16   C18   1.402431 A    
C10   H3    1.082833 S    
C22   C24   1.424272 A    
C19   C21   1.405936 A    
C3    C27   1.469604 S    
C20   C22   1.418263 A    
C9    C11   1.399656 A    
N12   O27   1.301611 A    
O2    Zn2   1.963307 S    
N7    O17   1.301538 A    
O5    Zn1   1.973369 S    
N10   O23   1.300743 A    
N4    H10   1.028826 S    
N8    O19   1.301269 A    
C37   N9    1.439958 S    
N3    H9    1.028859 S    
C23   C39   1.407499 A    
C42   H8    1.087798 S    
Zn1   N4    2.011122 S    
