data_mof_unit_27128.cif
_audit_creation_date              2013-03-05T16:48:04-0500
_audit_creation_method            fapswitch 2.2
_symmetry_space_group_name_H-M    P1
_symmetry_Int_Tables_number       1
_space_group_crystal_system       triclinic
_cell_length_a                    19.18888
_cell_length_b                    8.929246
_cell_length_c                    8.107401
_cell_angle_alpha                 89.934943
_cell_angle_beta                  90.12724
_cell_angle_gamma                 90.012544
_cell_volume                      1389.13581325

loop_
_atom_site_label
_atom_site_type_symbol
_atom_site_description
_atom_site_fract_x
_atom_site_fract_y
_atom_site_fract_z
_atom_type_partial_charge
O1    O     O_R   0.500000 0.285350 0.636850 -0.620857
O2    O     O_R   0.500000 0.714650 0.363150 -0.621071
O3    O     O_R   0.500000 0.714650 0.636850 -0.607390
O4    O     O_R   0.500000 0.285350 0.363150 -0.608202
C1    C     C_R   0.500000 0.218002 0.500056 0.930779
C2    C     C_R   0.500008 0.781997 0.499944 0.930054
O5    O     O_R   0.398140 0.500000 0.636920 -0.617010
O6    O     O_R   0.601860 0.500000 0.363080 -0.616717
O7    O     O_R   0.601860 0.500000 0.636920 -0.573975
O8    O     O_R   0.398140 0.500000 0.363080 -0.575783
C3    C     C_R   0.365384 0.501204 0.499780 0.946085
C4    C     C_R   0.634634 0.499283 0.500215 0.943541
Zn1   Zn    Zn3+2 0.500000 0.500000 0.682780 1.041992
Zn2   Zn    Zn3+2 0.500000 0.500000 0.317220 1.041120
C5    C     C_1   0.500002 0.065199 0.500081 -0.154619
C6    C     C_1   0.500002 0.934799 0.499922 -0.154264
N1    N     N_1   0.500000 0.500000 0.073640 -0.011202
N2    N     N_1   0.500000 0.500000 0.926360 -0.010916
C7    C     C_R   0.254228 0.613298 0.594748 0.369391
C8    C     C_R   0.747453 0.396993 0.402596 0.369296
C9    C     C_R   0.744532 0.609276 0.595811 0.402839
C10   C     C_R   0.253893 0.398564 0.404709 0.402214
C11   C     C_R   0.181443 0.610038 0.600254 0.121242
C12   C     C_R   0.820106 0.406590 0.395780 0.121385
C13   C     C_R   0.817781 0.620146 0.588541 0.065086
C14   C     C_R   0.180469 0.394090 0.410629 0.065946
C15   C     C_R   0.145126 0.501837 0.506953 -0.059955
C16   C     C_R   0.854746 0.516653 0.490129 -0.059904
C17   C     C_R   0.289840 0.505557 0.499161 -0.277535
C18   C     C_R   0.710228 0.500231 0.500651 -0.278274
N3    N     N_R   0.036397 0.554685 0.365641 -0.163010
N4    N     N_R   0.963539 0.468495 0.632798 -0.162943
N5    N     N_R   0.967311 0.558670 0.361302 -0.170758
N6    N     N_R   0.032614 0.464508 0.637138 -0.170413
C19   C     C_R   0.930162 0.515410 0.494806 0.330021
C20   C     C_R   0.069758 0.507460 0.503541 0.330238
O9    O     O_3   0.288833 0.724364 0.681349 -0.743184
H1    H     H_    0.334531 0.744405 0.629524 0.330343
O10   O     O_3   0.714598 0.284270 0.314792 -0.743728
H2    H     H_    0.669360 0.260070 0.366760 0.330406
O11   O     O_3   0.704088 0.706779 0.687905 -0.744375
H3    H     H_    0.732671 0.757429 0.772541 0.352243
O12   O     O_3   0.292858 0.296860 0.314572 -0.744846
H4    H     H_    0.263626 0.247479 0.230263 0.352476
C21   C     C_3   0.141999 0.725415 0.700688 -0.759179
H5    H     H_    0.106261 0.789577 0.619089 0.218652
H6    H     H_    0.111142 0.668436 0.797905 0.235222
H7    H     H_    0.176476 0.807414 0.763114 0.283228
C22   C     C_3   0.861259 0.295767 0.292980 -0.758857
H8    H     H_    0.898455 0.233749 0.372922 0.218526
H9    H     H_    0.828084 0.211595 0.230128 0.282902
H10   H     H_    0.890652 0.356399 0.195892 0.235660
C23   C     C_3   0.855252 0.745213 0.679541 -0.860743
H11   H     H_    0.831512 0.854729 0.646722 0.248687
H12   H     H_    0.851268 0.726897 0.814676 0.242448
H13   H     H_    0.911275 0.754666 0.648485 0.249176
C24   C     C_3   0.141054 0.271199 0.320593 -0.861375
H14   H     H_    0.162606 0.160159 0.355602 0.248208
H15   H     H_    0.084767 0.266911 0.350274 0.249258
H16   H     H_    0.145936 0.287445 0.185310 0.242420

loop_
_geom_bond_atom_site_label_1
_geom_bond_atom_site_label_2
_geom_bond_distance
_ccdc_geom_bond_type
C7    C11   1.397771 A    
O12   H4    0.987499 S    
N3    N5    1.326567 A    
C23   H11   1.110709 S    
O9    H1    0.989397 S    
C11   C21   1.517326 S    
C10   C17   1.404969 A    
C11   C15   1.410785 A    
C15   C20   1.447318 S    
C9    C18   1.405612 A    
O7    Zn1   1.990439 S    
C10   O12   1.386377 S    
O3    Zn1   1.952084 S    
O6    C4    1.276151 A    
C22   H10   1.109803 S    
C23   H13   1.107826 S    
C23   H12   1.110355 S    
N1    N2    1.194057 T    
C24   H14   1.110714 S    
C8    C18   1.412962 A    
C21   H5    1.110613 S    
C13   C16   1.413569 A    
O5    C3    1.276034 A    
Zn2   N1    1.974801 S    
C14   C15   1.414137 A    
O2    C2    1.262194 A    
C10   C14   1.410400 A    
Zn1   N2    1.974801 S    
C9    O11   1.386394 S    
N5    C19   1.353228 A    
C13   C23   1.519086 S    
N6    C20   1.353010 A    
C21   H6    1.109821 S    
O4    Zn2   1.952085 S    
O2    Zn2   1.952915 S    
C14   C24   1.519211 S    
O1    C1    1.262195 A    
C1    C5    1.364420 S    
C24   H15   1.107730 S    
O8    C3    1.275385 A    
O10   H2    0.989499 S    
C2    C6    1.364402 S    
C5    C6    1.164378 T    
C7    C17   1.413297 A    
N4    C19   1.353936 A    
C12   C16   1.411370 A    
O5    Zn1   1.988819 S    
O1    Zn1   1.952915 S    
C3    C17   1.450128 S    
C22   H8    1.110625 S    
O11   H3    0.987494 S    
C21   H7    1.108631 S    
C12   C22   1.517427 S    
C8    O10   1.384436 S    
C9    C13   1.410256 A    
N3    C20   1.354047 A    
C24   H16   1.110341 S    
O6    Zn2   1.988817 S    
C7    O9    1.384423 S    
C4    C18   1.450580 S    
O7    C4    1.275555 A    
O3    C2    1.261785 A    
C8    C12   1.397965 A    
C16   C19   1.447608 S    
O8    Zn2   1.990441 S    
O4    C1    1.261789 A    
C22   H9    1.108611 S    
N4    N6    1.326347 A    
