data_mof_unit_41893.cif
_audit_creation_date              2012-12-10T18:04:52-0500
_audit_creation_method            fapswitch 2.2
_symmetry_space_group_name_H-M    P1
_symmetry_Int_Tables_number       1
_space_group_crystal_system       triclinic
_cell_length_a                    10.829449
_cell_length_b                    9.67234
_cell_length_c                    17.711792
_cell_angle_alpha                 89.999868
_cell_angle_beta                  94.461031
_cell_angle_gamma                 90.000023
_cell_volume                      1849.62084509

loop_
_atom_site_label
_atom_site_type_symbol
_atom_type_description
_atom_site_fract_x
_atom_site_fract_y
_atom_site_fract_z
_atom_type_partial_charge
C1    C     C_R   0.262543 0.499952 0.500309 0.752307
C2    C     C_R   0.737457 0.499952 0.499691 0.752309
C3    C     C_1   0.498008 0.489789 0.966070 0.150932
C4    C     C_1   0.501997 0.489788 0.033931 0.150932
C5    C     C_R   0.063911 0.374191 0.500346 -0.189594
C6    C     C_R   0.936110 0.625076 0.499170 -0.192916
C7    C     C_R   0.936089 0.374191 0.499651 -0.189593
C8    C     C_R   0.063892 0.625076 0.500836 -0.192913
C9    C     C_R   0.502148 0.499982 0.355945 0.790065
C10   C     C_R   0.497852 0.499982 0.644055 0.790066
C11   C     C_R   0.871498 0.499726 0.499355 -0.025292
C12   C     C_R   0.128502 0.499726 0.500646 -0.025288
C13   C     C_R   0.540830 0.609671 0.849326 0.382135
C14   C     C_R   0.556245 0.381737 0.157601 0.372382
C15   C     C_R   0.459160 0.609664 0.150673 0.382137
C16   C     C_R   0.443770 0.381730 0.842400 0.372380
C17   C     C_R   0.539533 0.611896 0.770091 -0.305725
C18   C     C_R   0.557145 0.386145 0.236938 -0.311717
C19   C     C_R   0.460455 0.611889 0.229909 -0.305727
C20   C     C_R   0.442868 0.386139 0.763063 -0.311719
C21   C     C_R   0.493156 0.499536 0.726815 -0.101269
C22   C     C_R   0.506845 0.499536 0.273185 -0.101267
C23   C     C_R   0.401375 0.073589 0.466124 0.433077
C24   C     C_R   0.600151 0.926111 0.531101 0.382532
C25   C     C_R   0.598625 0.073589 0.533876 0.433072
C26   C     C_R   0.399848 0.926112 0.468898 0.382529
C27   C     C_R   0.494008 0.493517 0.885028 0.031628
C28   C     C_R   0.505996 0.493517 0.114973 0.031626
Cu1   Cu    Cu3+1 0.500000 0.640660 0.500000 0.965569
Cu2   Cu    Cu3+1 0.500000 0.359340 0.500000 0.966552
H1    H     H_    0.576715 0.700324 0.742631 0.131716
H2    H     H_    0.596290 0.300685 0.270317 0.163361
H3    H     H_    0.423262 0.700312 0.257366 0.131711
H4    H     H_    0.403731 0.300673 0.729686 0.163364
H5    H     H_    0.111610 0.275919 0.500842 0.200496
H6    H     H_    0.888543 0.723353 0.497827 0.213229
H7    H     H_    0.888389 0.275920 0.499151 0.200494
H8    H     H_    0.111459 0.723353 0.502182 0.213222
N1    N     N_R   0.500000 0.852070 0.500000 -0.301915
N2    N     N_R   0.500000 0.147930 0.500000 -0.297794
O1    O     O_R   0.319640 0.618740 0.499990 -0.545125
O2    O     O_R   0.680360 0.381260 0.500010 -0.555907
O3    O     O_R   0.680360 0.618740 0.500010 -0.545119
O4    O     O_R   0.319640 0.381260 0.499990 -0.555905
O5    O     O_R   0.500000 0.618830 0.391250 -0.593509
O6    O     O_R   0.500000 0.381170 0.608750 -0.578666
O7    O     O_R   0.500000 0.618830 0.608750 -0.593509
O8    O     O_R   0.500000 0.381170 0.391250 -0.578666
O9    O     O_3   0.588117 0.718787 0.892917 -0.701976
H9    H     H_    0.617173 0.791697 0.859124 0.328480
O10   O     O_3   0.602986 0.269725 0.120683 -0.704360
H10   H     H_    0.633765 0.200228 0.158797 0.331514
O11   O     O_3   0.411863 0.718774 0.107082 -0.701977
H11   H     H_    0.382802 0.791682 0.140874 0.328482
O12   O     O_3   0.397044 0.269712 0.879319 -0.704360
H12   H     H_    0.366275 0.200209 0.841207 0.331515
O13   O     O_3   0.290333 0.137464 0.442314 -0.566776
C29   C     C_3   0.283142 0.196165 0.368063 0.170551
H13   H     H_    0.294141 0.309219 0.371371 0.165258
H14   H     H_    0.185878 0.185460 0.344191 0.128207
C30   C     C_3   0.365926 0.137774 0.308928 -0.890485
H15   H     H_    0.324073 0.044810 0.281488 0.230318
H16   H     H_    0.369050 0.214275 0.262556 0.232844
H17   H     H_    0.462367 0.117651 0.332012 0.237231
O14   O     O_3   0.711688 0.860521 0.550793 -0.542581
C31   C     C_3   0.718137 0.813783 0.626704 0.161915
H18   H     H_    0.710715 0.699930 0.627960 0.166829
H19   H     H_    0.643424 0.854533 0.659863 0.100432
C32   C     C_3   0.844962 0.847041 0.665724 -0.841168
H20   H     H_    0.846433 0.820603 0.726800 0.208567
H21   H     H_    0.917512 0.785764 0.639970 0.247611
H22   H     H_    0.867152 0.957845 0.659928 0.267243
O15   O     O_3   0.709668 0.137462 0.557685 -0.566782
C33   C     C_3   0.716862 0.196163 0.631935 0.170551
H23   H     H_    0.705859 0.309216 0.628628 0.165261
H24   H     H_    0.814127 0.185462 0.655806 0.128212
C34   C     C_3   0.634086 0.137768 0.691073 -0.890494
H25   H     H_    0.675948 0.044811 0.718514 0.230326
H26   H     H_    0.630959 0.214271 0.737444 0.232842
H27   H     H_    0.537646 0.117635 0.667991 0.237225
O16   O     O_3   0.288311 0.860523 0.449206 -0.542578
C35   C     C_3   0.281864 0.813778 0.373297 0.161911
H28   H     H_    0.289286 0.699926 0.372044 0.166835
H29   H     H_    0.356578 0.854526 0.340137 0.100434
C36   C     C_3   0.155040 0.847031 0.334274 -0.841149
H30   H     H_    0.132874 0.957849 0.340034 0.267210
H31   H     H_    0.153553 0.820525 0.273205 0.208560
H32   H     H_    0.082482 0.785806 0.360054 0.247637

loop_
_geom_bond_atom_site_label_1
_geom_bond_atom_site_label_2
_ccdc_geom_bond_type
C31   H19   S    
O12   H12   S    
C9    O5    A    
C30   H17   S    
O15   C33   S    
C14   C18   A    
O16   C35   S    
C15   C28   A    
C34   H25   S    
C7    C11   A    
C33   H24   S    
Cu1   O7    S    
C15   O11   S    
Cu2   O8    S    
C2    O2    A    
C25   N2    A    
C36   H30   S    
C26   N1    A    
C36   H32   S    
C31   C32   S    
C29   H14   S    
C23   N2    A    
C24   N1    A    
C30   H16   S    
C23   C26   A    
C32   H21   S    
C33   C34   S    
C10   O6    A    
C8    C12   A    
C20   H4    S    
C29   C30   S    
C36   H31   S    
C31   H18   S    
Cu1   O3    S    
Cu2   O4    S    
C30   H15   S    
C1    C12   S    
C8    H8    S    
C2    C11   S    
C4    C28   S    
C34   H26   S    
C10   C21   S    
C33   H23   S    
O10   H10   S    
C19   C22   A    
C24   C25   A    
C5    C12   A    
C19   H3    S    
C6    C11   A    
C5    C7    A    
C6    C8    A    
C29   H13   S    
O11   H11   S    
C35   H28   S    
C17   C21   A    
Cu1   O5    S    
C32   H22   S    
C15   C19   A    
Cu1   Cu2   S    
C1    O4    A    
C14   O10   S    
C2    O3    A    
C16   C20   A    
Cu1   N1    S    
C7    H7    S    
Cu2   N2    S    
C24   O14   S    
C13   O9    S    
C1    O1    A    
O14   C31   S    
C26   O16   S    
C35   H29   S    
C17   H1    S    
C18   H2    S    
C3    C4    T    
C34   H27   S    
C23   O13   S    
Cu1   O1    S    
C18   C22   A    
Cu2   O6    S    
C13   C27   A    
C35   C36   S    
C13   C17   A    
C3    C27   S    
C16   O12   S    
O13   C29   S    
C16   C27   A    
C5    H5    S    
C6    H6    S    
C25   O15   S    
C32   H20   S    
C9    C22   S    
C20   C21   A    
C9    O8    A    
O9    H9    S    
C10   O7    A    
Cu2   O2    S    
C14   C28   A    
