data_mof_unit_24592.cif
_audit_creation_date              2012-12-10T20:58:03-0500
_audit_creation_method            fapswitch 2.2
_symmetry_space_group_name_H-M    P1
_symmetry_Int_Tables_number       1
_space_group_crystal_system       triclinic
_cell_length_a                    18.208392
_cell_length_b                    18.307768
_cell_length_c                    18.394767
_cell_angle_alpha                 120.167767
_cell_angle_beta                  89.905085
_cell_angle_gamma                 120.004948
_cell_volume                      4328.22358622

loop_
_atom_site_label
_atom_site_type_symbol
_atom_type_description
_atom_site_fract_x
_atom_site_fract_y
_atom_site_fract_z
_atom_type_partial_charge
C1    C     C_R   0.358305 0.220030 0.360926 0.497360
C2    C     C_3   0.750880 0.942379 0.644544 -0.128356
C3    C     C_2   0.116274 0.141708 0.806062 0.649621
C4    C     C_2   0.098818 0.227990 0.714135 0.575211
C5    C     C_3   0.699084 0.897702 0.696214 0.060190
C6    C     C_R   0.641014 0.781021 0.639089 0.499088
C7    C     C_3   0.798750 0.102902 0.800808 0.032531
C8    C     C_3   0.822426 0.059993 0.844330 -0.272522
C9    C     C_3   0.815640 0.063470 0.708932 -0.032400
C10   C     C_3   0.688772 0.395968 0.253880 -0.204077
C11   C     C_3   0.746721 0.390943 0.190604 0.059208
C12   C     C_3   0.669807 0.512499 0.232519 -0.226100
C13   C     C_3   0.798944 0.589275 0.359495 -0.240748
C14   C     C_3   0.353265 0.606396 0.316487 -0.217163
C15   C     C_3   0.698501 0.499834 0.302488 0.038586
C16   C     C_3   0.799066 0.497260 0.200120 0.059860
C17   C     C_3   0.730989 0.514993 0.174514 -0.235602
C18   C     C_R   0.359226 0.500554 0.640666 0.500117
C19   C     C_3   0.857633 0.589649 0.299639 -0.247810
C20   C     C_R   0.308390 0.144616 0.582960 -0.104645
C21   C     C_R   0.304662 0.097085 0.493903 -0.088390
C22   C     C_R   0.258138 0.099523 0.435264 0.058957
C23   C     C_R   0.214070 0.148328 0.466245 -0.059340
C24   C     C_R   0.217983 0.195749 0.555327 -0.065786
C25   C     C_3   0.300702 0.500246 0.302047 0.035409
C26   C     C_R   0.265269 0.194097 0.613695 -0.065182
C27   C     C_R   0.205333 0.944043 0.286191 -0.156634
C28   C     C_R   0.197832 0.892175 0.196229 0.017128
C29   C     C_R   0.243926 0.948589 0.160739 -0.031139
C30   C     C_R   0.640791 0.500621 0.359596 0.491374
C31   C     C_R   0.294376 0.055644 0.216053 -0.157637
C32   C     C_R   0.301088 0.107551 0.305887 0.016045
C33   C     C_R   0.255906 0.050992 0.341528 -0.032600
C34   C     C_R   0.294401 0.860516 0.036859 0.051785
C35   C     C_R   0.290371 0.815387 0.947210 -0.080146
C36   C     C_3   0.198008 0.501960 0.202584 0.089477
C37   C     C_R   0.235567 0.809223 0.888266 -0.113510
C38   C     C_R   0.184324 0.848054 0.918009 -0.107317
C39   C     C_R   0.187810 0.893440 0.006883 -0.083592
C40   C     C_R   0.242148 0.899644 0.066834 0.077019
C41   C     C_R   0.915385 0.708615 0.625653 -0.102024
C42   C     C_R   0.642019 0.500278 0.640054 0.504585
C43   C     C_R   0.866623 0.632285 0.640411 -0.057776
C44   C     C_R   0.843630 0.656757 0.718384 0.063069
C45   C     C_R   0.871353 0.758592 0.782059 -0.090251
C46   C     C_R   0.920576 0.834831 0.767269 -0.112583
C47   C     C_3   0.147811 0.464849 0.259587 -0.104382
C48   C     C_R   0.942241 0.809759 0.688953 -0.091902
C49   C     C_R   0.841614 0.574588 0.790092 -0.156294
C50   C     C_R   0.799369 0.497641 0.805034 0.019806
C51   C     C_R   0.705690 0.420528 0.763771 -0.035699
C52   C     C_R   0.656625 0.423713 0.709853 -0.156531
C53   C     C_R   0.698751 0.500800 0.695221 0.018710
C54   C     C_R   0.358039 0.499848 0.359322 0.494762
C55   C     C_R   0.792839 0.576215 0.734377 -0.037193
C56   C     C_R   0.633109 0.234926 0.700903 -0.085623
C57   C     C_R   0.582581 0.149985 0.704742 -0.079505
C58   C     C_3   0.292638 0.610705 0.261579 -0.097963
C59   C     C_R   0.554331 0.161646 0.778558 0.026446
C60   C     C_R   0.576842 0.259212 0.848213 -0.072853
C61   C     C_R   0.626914 0.344111 0.844072 -0.069831
C62   C     C_R   0.656123 0.332487 0.770786 0.053495
C63   C     C_R   0.369666 0.780343 0.696170 -0.099756
C64   C     C_R   0.355319 0.719573 0.726496 -0.063543
C65   C     C_R   0.276442 0.618836 0.681755 0.056788
C66   C     C_3   0.273108 0.415559 0.201483 -0.236748
C67   C     C_R   0.211058 0.580605 0.607914 -0.089441
C68   C     C_R   0.225312 0.642132 0.578289 -0.117736
C69   C     C_3   0.639508 0.938483 0.726434 -0.259854
C70   C     C_R   0.304800 0.741709 0.622050 -0.099622
C71   C     C_R   0.207267 0.550588 0.766557 -0.159087
C72   C     C_R   0.195887 0.499346 0.806341 0.057227
C73   C     C_R   0.238847 0.448949 0.791575 0.009770
C74   C     C_R   0.291385 0.450825 0.736977 -0.161516
C75   C     C_R   0.303203 0.502507 0.697574 0.013456
C76   C     C_R   0.261880 0.554950 0.714121 -0.038679
C77   C     C_R   0.310539 0.462186 0.914744 -0.160996
C78   C     C_3   0.219452 0.422327 0.143320 -0.252413
C79   C     C_R   0.321018 0.420029 0.955575 -0.164561
C80   C     C_3   0.697210 0.057635 0.785015 -0.240291
C81   C     C_R   0.258286 0.315635 0.921238 0.032387
C82   C     C_R   0.183516 0.252080 0.842942 0.032469
C83   C     C_R   0.173443 0.294661 0.799821 0.048119
C84   C     C_R   0.238011 0.401074 0.837252 0.007930
C85   C     C_R   0.857012 0.499576 0.142791 0.495897
C86   C     C_R   0.139269 0.500344 0.862432 0.534909
C87   C     C_R   0.856710 0.219184 0.862402 0.550966
C88   C     C_R   0.139621 0.779875 0.141234 0.494783
C89   C     C_R   0.855790 0.499133 0.861495 0.509865
C90   C     C_3   0.214779 0.481502 0.327564 -0.210150
C91   C     C_3   0.766490 0.940562 0.781997 -0.237003
C92   C     C_R   0.139962 0.500440 0.143281 0.495183
C93   C     C_3   0.292996 0.707038 0.323664 -0.407336
C94   C     C_3   0.092960 0.506443 0.303965 -0.404597
C95   C     C_3   0.802151 0.896875 0.596305 -0.389796
C96   C     C_2   0.809636 0.111186 0.663159 0.545714
C97   C     C_3   0.813339 0.372719 0.218499 -0.390906
C98   C     C_2   0.684625 0.298886 0.094173 0.582045
C99   C     C_3   0.354621 0.867301 0.099426 -0.400153
C100  C     C_3   0.499940 0.070771 0.783064 -0.419381
C101  C     C_2   0.271785 0.276865 0.970699 0.574464
H1    H     H_    0.231386 0.337579 0.188140 0.138822
H2    H     H_    0.698894 0.919710 0.590784 0.139845
H3    H     H_    0.886423 0.087707 0.723441 0.176400
H4    H     H_    0.812223 0.915773 0.765051 0.133066
H5    H     H_    0.895160 0.092138 0.859844 0.171579
H6    H     H_    0.616433 0.330560 0.217087 0.165836
H7    H     H_    0.709174 0.387854 0.305010 0.087160
H8    H     H_    0.598774 0.447326 0.188847 0.186141
H9    H     H_    0.259123 0.445876 0.103875 0.133703
H10   H     H_    0.689350 0.456423 0.102778 0.173998
H11   H     H_    0.807821 0.665035 0.397672 0.133564
H12   H     H_    0.234047 0.549181 0.395821 0.145137
H13   H     H_    0.821816 0.580209 0.408631 0.129431
H14   H     H_    0.912323 0.587854 0.323491 0.133390
H15   H     H_    0.891677 0.664212 0.306671 0.133563
H16   H     H_    0.673777 0.585317 0.266733 0.105602
H17   H     H_    0.767955 0.591390 0.184693 0.099255
H18   H     H_    0.268622 0.231124 0.682736 0.117535
H19   H     H_    0.344925 0.143365 0.628200 0.115667
H20   H     H_    0.338754 0.059448 0.470830 0.099740
H21   H     H_    0.156507 0.343984 0.094766 0.162521
H22   H     H_    0.177649 0.150448 0.421670 0.094112
H23   H     H_    0.602149 0.910198 0.764738 0.131631
H24   H     H_    0.184598 0.234067 0.579035 0.133312
H25   H     H_    0.169761 0.901143 0.313554 0.143367
H26   H     H_    0.330068 0.098549 0.188736 0.147617
H27   H     H_    0.329684 0.784886 0.922728 0.098403
H28   H     H_    0.232864 0.774349 0.819379 0.117176
H29   H     H_    0.141888 0.843096 0.872147 0.122215
H30   H     H_    0.147687 0.923316 0.029044 0.105785
H31   H     H_    0.980203 0.868636 0.677374 0.144001
H32   H     H_    0.181756 0.412439 0.329235 0.098775
H33   H     H_    0.932695 0.689501 0.565356 0.094079
H34   H     H_    0.588468 0.908533 0.667358 0.125381
H35   H     H_    0.846317 0.554168 0.591101 0.096102
H36   H     H_    0.854831 0.778712 0.842869 0.098851
H37   H     H_    0.942057 0.913326 0.816680 0.115086
H38   H     H_    0.913625 0.633533 0.820899 0.145418
H39   H     H_    0.584716 0.364286 0.678409 0.145645
H40   H     H_    0.653890 0.224658 0.643234 0.101413
H41   H     H_    0.565561 0.075252 0.650100 0.104721
H42   H     H_    0.554832 0.269312 0.905198 0.134566
H43   H     H_    0.096322 0.379602 0.212980 0.122107
H44   H     H_    0.643021 0.418771 0.897787 0.103849
H45   H     H_    0.675465 0.083918 0.752440 0.183906
H46   H     H_    0.315986 0.788991 0.598722 0.099462
H47   H     H_    0.431115 0.857268 0.730310 0.093893
H48   H     H_    0.405893 0.750367 0.784143 0.093252
H49   H     H_    0.149483 0.503427 0.573410 0.103450
H50   H     H_    0.174801 0.612609 0.521383 0.093179
H51   H     H_    0.174589 0.589293 0.777394 0.140732
H52   H     H_    0.325363 0.413714 0.727367 0.134329
H53   H     H_    0.360760 0.543053 0.942729 0.114130
H54   H     H_    0.378197 0.470077 0.015538 0.139080
H55   H     H_    0.379073 0.669072 0.389011 0.135515
H56   H     H_    0.684952 0.085759 0.850001 0.158226
H57   H     H_    0.413499 0.619434 0.295401 0.098672
H58   H     H_    0.325621 0.624726 0.214538 0.115040
H59   H     H_    0.271336 0.708118 0.380202 0.132043
H60   H     H_    0.363020 0.777311 0.353234 0.109502
H61   H     H_    0.252897 0.715871 0.287803 0.174914
H62   H     H_    0.066916 0.479732 0.346684 0.105243
H63   H     H_    0.132591 0.591596 0.345975 0.152233
H64   H     H_    0.033385 0.474988 0.252647 0.151171
H65   H     H_    0.847418 0.902458 0.641938 0.145874
H66   H     H_    0.754442 0.814747 0.538898 0.146478
H67   H     H_    0.729214 0.908403 0.818066 0.114104
H68   H     H_    0.843552 0.939118 0.568748 0.183540
H69   H     H_    0.784204 0.205634 0.661130 0.330785
H70   H     H_    0.860282 0.375573 0.179711 0.145879
H71   H     H_    0.853620 0.430562 0.290493 0.098981
H72   H     H_    0.775666 0.295419 0.206418 0.136131
H73   H     H_    0.565221 0.211749 0.998899 0.330864
H74   H     H_    0.392483 0.835657 0.065590 0.113252
H75   H     H_    0.403951 0.949406 0.156287 0.131339
H76   H     H_    0.313794 0.822417 0.125170 0.128885
H77   H     H_    0.485069 0.998929 0.721589 0.109193
H78   H     H_    0.809109 0.084603 0.908800 0.124644
H79   H     H_    0.537816 0.084604 0.840981 0.138705
H80   H     H_    0.435204 0.059327 0.790437 0.146301
H81   H     H_    0.216438 0.183477 0.011646 0.334585
H82   H     H_    0.985982 0.027355 0.766966 0.308159
H83   H     H_    0.009960 0.215441 0.635398 0.358088
H84   H     H_    0.333798 0.425072 0.182623 0.173787
O1    O     O_3   0.500000 0.500000 0.500000 -0.436651
O2    O     O_R   0.113800 0.731630 0.056520 -0.535068
O3    O     O_R   0.819390 0.439310 0.886160 -0.529501
O4    O     O_R   0.383400 0.268380 0.323710 -0.550261
O5    O     O_R   0.115110 0.560720 0.179280 -0.557007
O6    O     O_R   0.941380 0.560750 0.885620 -0.552548
O7    O     O_R   0.115110 0.439270 0.057830 -0.555426
O8    O     O_R   0.942690 0.268390 0.886930 -0.531017
O9    O     O_R   0.114340 0.731630 0.178520 -0.561162
O10   O     O_R   0.820160 0.439310 0.057830 -0.523403
O11   O     O_R   0.113800 0.560730 0.885620 -0.554012
O12   O     O_R   0.383400 0.560740 0.616060 -0.532934
O13   O     O_R   0.555060 0.731630 0.615290 -0.552478
O14   O     O_R   0.383950 0.439280 0.616600 -0.550107
O15   O     O_R   0.677590 0.560710 0.444390 -0.553627
O16   O     O_R   0.556370 0.439260 0.616600 -0.552216
O17   O     O_R   0.382640 0.439290 0.322940 -0.544867
O18   O     O_R   0.678360 0.560700 0.616060 -0.535665
O19   O     O_R   0.382640 0.560750 0.444390 -0.547056
O20   O     O_2   0.828529 0.090156 0.594719 -0.539672
O21   O     O_R   0.783813 0.178948 0.697976 -0.705781
O22   O     O_2   0.707754 0.244965 0.044155 -0.536049
O23   O     O_R   0.555060 0.439270 0.322940 -0.542458
O24   O     O_R   0.600745 0.275717 0.062482 -0.733011
O25   O     O_2   0.348054 0.313273 0.010556 -0.539160
O26   O     O_R   0.197981 0.201730 0.974695 -0.688908
O27   O     O_2   0.140094 0.084556 0.787727 -0.501363
O28   O     O_R   0.025555 0.103390 0.791924 -0.703969
O29   O     O_2   0.073881 0.138971 0.658337 -0.522647
O30   O     O_R   0.057679 0.267191 0.696553 -0.684654
O31   O     O_R   0.383950 0.268380 0.445700 -0.534617
O32   O     O_R   0.677590 0.731610 0.615290 -0.544639
O33   O     O_3   0.997750 0.500010 0.002220 -0.446885
O34   O     O_R   0.942690 0.560750 0.179280 -0.562407
O35   O     O_R   0.114340 0.439270 0.886160 -0.508460
O36   O     O_R   0.820160 0.268410 0.886930 -0.492809
Zn1   Zn    Zn3+2 0.456040 0.586770 0.543190 0.923278
Zn2   Zn    Zn3+2 0.456820 0.413240 0.543960 0.928516
Zn3   Zn    Zn3+2 0.631110 0.586750 0.543190 0.919526
Zn4   Zn    Zn3+2 0.456040 0.413240 0.369660 0.928338
Zn5   Zn    Zn3+2 0.041710 0.413240 0.959030 0.968888
Zn6   Zn    Zn3+2 0.866640 0.413270 0.959030 0.982609
Zn7   Zn    Zn3+2 0.040930 0.586780 0.958260 0.938352
Zn8   Zn    Zn3+2 0.041710 0.586770 0.132560 0.892737

loop_
_geom_bond_atom_site_label_1
_geom_bond_atom_site_label_2
_ccdc_geom_bond_type
H82   O28   S    
C30   O15   A    
O1    Zn2   S    
O11   Zn7   S    
O6    Zn7   S    
H73   O24   S    
C73   C74   A    
C66   H1    S    
C10   H7    S    
C44   C55   S    
C31   H26   S    
C43   C44   A    
O3    Zn6   S    
C100  H77   S    
C81   C82   A    
C42   O18   A    
C7    C8    S    
C81   C101  S    
C45   C46   A    
C101  O26   S    
C4    C83   S    
C25   C90   S    
C18   C75   S    
C65   C76   S    
C39   H30   S    
C57   H41   S    
C14   H57   S    
C11   C98   S    
C34   C40   A    
C38   H29   S    
C28   C29   A    
O13   Zn1   S    
C58   C93   S    
C24   C26   A    
O8    Zn5   S    
H69   O21   S    
C13   H11   S    
C36   C58   S    
C58   H58   S    
C16   C19   S    
C60   H42   S    
C5    C6    S    
C77   H53   S    
C27   H25   S    
C57   C59   A    
C56   C57   A    
C36   C47   S    
C35   H27   S    
C34   C35   A    
C90   H12   S    
C91   H4    S    
C12   H8    S    
C61   H44   S    
C86   O11   A    
C25   C66   S    
C47   C94   S    
C88   O2    A    
C7    C87   S    
C99   H75   S    
C71   H51   S    
C16   C17   S    
C65   C67   A    
C12   C17   S    
C28   C88   S    
C5    C69   S    
C23   C24   A    
C12   C15   S    
C19   H15   S    
C93   H60   S    
C73   C84   S    
C13   H13   S    
C46   H37   S    
C14   H55   S    
C36   C92   S    
O32   Zn3   S    
C80   H45   S    
O1    Zn1   S    
C80   H56   S    
C59   C60   A    
C69   H34   S    
C4    O30   S    
C21   C22   A    
C67   H49   S    
C59   C100  S    
C41   C43   A    
O9    Zn8   S    
C10   H6    S    
C61   C62   A    
C51   C62   S    
O34   Zn8   S    
C14   C58   S    
C17   H10   S    
C94   H64   S    
O33   Zn7   S    
C41   H33   S    
C92   O5    A    
C50   C51   A    
O17   Zn4   S    
C53   C55   A    
C38   C39   A    
C66   C78   S    
C98   O24   S    
C46   C48   A    
C97   H72   S    
C74   C75   A    
C13   C19   S    
C51   C52   A    
O15   Zn3   S    
C88   O9    A    
C91   H67   S    
C4    O29   D    
C26   H18   S    
C87   O8    A    
O12   Zn1   S    
C39   C40   A    
C79   C81   A    
C90   H32   S    
C85   O10   A    
H83   O30   S    
C23   H22   S    
C69   H23   S    
C54   O17   A    
C47   H43   S    
C1    C32   S    
C27   C33   A    
C67   C68   A    
C74   H52   S    
C8    H5    S    
C60   C61   A    
C93   H59   S    
C75   C76   A    
O33   Zn8   S    
C37   C38   A    
O23   Zn4   S    
C6    O32   A    
C11   C16   S    
C50   C89   S    
C96   O21   S    
C83   C84   A    
C63   C70   A    
C19   H14   S    
C52   H39   S    
C30   O23   A    
C3    C82   S    
C45   H36   S    
C34   C99   S    
C89   O6    A    
C77   C79   A    
O35   Zn5   S    
C78   H9    S    
C8    C91   S    
C86   O35   A    
C25   C54   S    
C100  H80   S    
C95   H68   S    
C9    C96   S    
C5    C91   S    
C17   H17   S    
C56   H40   S    
C68   C70   A    
C49   C50   A    
C97   H71   S    
C13   C15   S    
C16   C85   S    
C89   O3    A    
C56   C62   A    
C98   O22   D    
C2    C5    S    
O14   Zn2   S    
O16   Zn2   S    
C100  H79   S    
C95   H65   S    
C94   H63   S    
C63   H47   S    
C20   H19   S    
C52   C53   A    
C35   C37   A    
C15   C30   S    
C6    O13   A    
C3    O27   D    
C7    C9    S    
C22   C33   S    
O1    Zn3   S    
C2    C95   S    
O19   Zn1   S    
C31   C32   A    
O4    Zn4   S    
C44   C45   A    
C72   C73   A    
C69   C80   S    
C95   H66   S    
C77   C84   A    
C72   C86   S    
C87   O36   A    
C99   H76   S    
C70   H46   S    
C1    O31   A    
C101  O25   D    
C3    O28   S    
O36   Zn6   S    
C18   O12   A    
C97   H70   S    
O10   Zn6   S    
C64   H48   S    
C10   C15   S    
O5    Zn8   S    
C64   C65   A    
C49   H38   S    
C85   O34   A    
O31   Zn2   S    
C71   C72   A    
C42   C53   S    
C68   H50   S    
C49   C55   A    
C32   C33   A    
O2    Zn7   S    
C8    H78   S    
C96   O20   D    
C71   C76   A    
O1    Zn4   S    
C20   C26   A    
C2    H2    S    
C9    H3    S    
C54   O19   A    
C29   C40   S    
O7    Zn5   S    
H81   O26   S    
C47   C90   S    
C41   C48   A    
C37   H28   S    
O18   Zn3   S    
C14   C25   S    
C21   H20   S    
C43   H35   S    
C78   H21   S    
C93   H61   S    
C10   C11   S    
C79   H54   S    
C63   C64   A    
C99   H74   S    
C20   C21   A    
C29   C31   A    
C82   C83   A    
C66   H84   S    
C18   O14   A    
C22   C23   A    
C48   H31   S    
C42   O16   A    
C36   C78   S    
O33   Zn6   S    
C12   H16   S    
C24   H24   S    
C2    C9    S    
C94   H62   S    
O33   Zn5   S    
C11   C97   S    
C92   O7    A    
C7    C80   S    
C27   C28   A    
C1    O4    A    
