data_mof_unit_63435.cif
_audit_creation_date              2012-12-10T19:59:41-0500
_audit_creation_method            fapswitch 2.2
_symmetry_space_group_name_H-M    P1
_symmetry_Int_Tables_number       1
_space_group_crystal_system       triclinic
_cell_length_a                    32.088655
_cell_length_b                    32.090446
_cell_length_c                    21.756512
_cell_angle_alpha                 90.11323
_cell_angle_beta                  89.925936
_cell_angle_gamma                 89.920455
_cell_volume                      22403.4502235

loop_
_atom_site_label
_atom_site_type_symbol
_atom_type_description
_atom_site_fract_x
_atom_site_fract_y
_atom_site_fract_z
_atom_type_partial_charge
C1    C     C_R   0.419346 0.000032 0.500274 1.046836
C2    C     C_R   0.000106 0.293348 0.499983 -0.078828
C3    C     C_R   0.973202 0.472566 0.219084 -0.180484
C4    C     C_R   0.474078 0.972072 0.781096 -0.184093
C5    C     C_R   0.972223 0.525997 0.781328 -0.183275
C6    C     C_R   0.525838 0.028322 0.781221 -0.179942
C7    C     C_R   0.027482 0.473072 0.780709 -0.183906
C8    C     C_R   0.020518 0.467634 0.717957 -0.185964
C9    C     C_R   0.531652 0.021645 0.718466 -0.185996
C10   C     C_R   0.978900 0.531894 0.718667 -0.186530
C11   C     C_R   0.468303 0.978790 0.718407 -0.185163
C12   C     C_R   0.980278 0.467273 0.281828 -0.186915
C13   C     C_R   0.706637 1.000000 0.499850 -0.079226
C14   C     C_R   0.466494 0.018482 0.281896 -0.204480
C15   C     C_R   0.020206 0.532509 0.281599 -0.188832
C16   C     C_R   0.532727 0.979970 0.281464 -0.185708
C17   C     C_R   0.499669 0.999529 0.186696 -0.054714
C18   C     C_R   0.999894 0.499922 0.186668 -0.053481
C19   C     C_R   0.500020 0.000129 0.813415 -0.054034
C20   C     C_R   0.000110 0.499731 0.813320 -0.057611
C21   C     C_R   0.999872 0.499977 0.686202 -0.046513
C22   C     C_R   0.500037 0.000137 0.686293 -0.046704
C23   C     C_R   0.000105 0.500053 0.313795 -0.047158
C24   C     C_R   0.999100 0.706646 0.498584 -0.081095
C25   C     C_R   0.499950 0.999718 0.313789 -0.045862
C26   C     C_R   0.228101 0.964158 0.518710 0.406403
C27   C     C_R   0.036351 0.227987 0.517682 0.405817
C28   C     C_R   0.771876 0.036141 0.518412 0.405464
C29   C     C_R   0.962923 0.772001 0.517372 0.404145
C30   C     C_R   0.772088 0.963939 0.481629 0.405763
C31   C     C_R   0.963822 0.228015 0.482674 0.405524
C32   C     C_R   0.227900 0.035715 0.479699 0.400772
C33   C     C_R   0.034547 0.772009 0.478496 0.405948
C34   C     C_R   0.728310 0.480565 0.047447 0.417700
C35   C     C_R   0.793303 0.499989 0.997872 -0.105215
C36   C     C_R   0.525601 0.727971 0.041929 0.446012
C37   C     C_R   0.271921 0.535022 0.023301 0.446748
C38   C     C_R   0.465624 0.272426 0.022465 0.406180
C39   C     C_R   0.272218 0.464819 0.979580 0.406729
C40   C     C_R   0.475564 0.727830 0.957479 0.445301
C41   C     C_R   0.727557 0.521279 0.952628 0.447749
C42   C     C_R   0.534616 0.271829 0.974786 0.447206
C43   C     C_R   0.206396 0.999936 0.499365 -0.154432
C44   C     C_R   0.000084 0.206393 0.500216 -0.157494
C45   C     C_R   0.793593 0.000053 0.500056 -0.157021
C46   C     C_R   0.500502 0.793339 0.999629 -0.126569
C47   C     C_R   0.998760 0.793584 0.498044 -0.158952
C48   C     C_R   0.706381 0.500981 0.000386 -0.181075
C49   C     C_R   0.500531 0.706359 0.999822 -0.197470
C50   C     C_R   0.293614 0.500096 0.001042 -0.181208
C51   C     C_R   0.500354 0.293667 0.998915 -0.181405
C52   C     C_R   0.271689 0.035509 0.478339 0.071549
C53   C     C_R   0.964059 0.271792 0.481373 0.094551
C54   C     C_R   0.728309 0.964142 0.480376 0.094274
C55   C     C_R   0.034568 0.728252 0.477770 0.091818
C56   C     C_R   0.728087 0.035873 0.519501 0.089983
C57   C     C_R   0.206668 0.499675 0.001926 -0.101577
C58   C     C_R   0.036132 0.271773 0.518755 0.092901
C59   C     C_R   0.271881 0.964456 0.519710 0.091323
C60   C     C_R   0.963312 0.728200 0.518707 0.089642
C61   C     C_R   0.771239 0.522134 0.952401 0.055463
C62   C     C_R   0.474598 0.771523 0.958316 0.076401
C63   C     C_R   0.228464 0.464190 0.981082 0.091577
C64   C     C_R   0.534819 0.228129 0.975802 0.063644
C65   C     C_R   0.228224 0.535290 0.022548 0.063695
C66   C     C_R   0.526546 0.771658 0.040876 0.076792
C67   C     C_R   0.772011 0.478483 0.044793 0.091645
C68   C     C_R   0.499757 0.206722 0.998674 -0.101512
C69   C     C_R   0.464880 0.228691 0.021247 0.093009
C70   C     C_3   0.329991 0.058637 0.282549 -0.210359
C71   C     C_3   0.893625 0.377272 0.351243 -0.193855
C72   C     C_3   0.622437 0.892336 0.349584 -0.193921
C73   C     C_3   0.109733 0.620255 0.349643 -0.202150
C74   C     C_3   0.616978 0.112686 0.648799 -0.195324
C75   C     C_3   0.108776 0.379021 0.647825 -0.196855
C76   C     C_3   0.381406 0.888452 0.649817 -0.197260
C77   C     C_3   0.888461 0.619122 0.651174 -0.196478
C78   C     C_3   0.902784 0.628058 0.854255 -0.232093
C79   C     C_1   0.161852 0.999937 0.499645 0.098481
C80   C     C_3   0.371121 0.903571 0.852394 -0.223004
C81   C     C_3   0.093672 0.366291 0.847523 -0.250127
C82   C     C_3   0.626412 0.100849 0.852931 -0.218461
C83   C     C_3   0.095767 0.630094 0.147235 -0.216884
C84   C     C_3   0.631926 0.906548 0.146885 -0.222056
C85   C     C_3   0.909347 0.364809 0.150892 -0.244073
C86   C     C_3   0.368672 0.089836 0.141621 -0.298539
C87   C     C_3   0.604676 0.022282 0.346196 -0.288864
C88   C     C_3   0.978614 0.604988 0.346230 -0.289150
C89   C     C_3   0.399011 0.972960 0.349859 -0.319929
C90   C     C_1   0.000081 0.161850 0.500224 0.100275
C91   C     C_3   0.023314 0.395738 0.346711 -0.290453
C92   C     C_3   0.394620 0.018690 0.655020 -0.291678
C93   C     C_3   0.018745 0.605455 0.655078 -0.292176
C94   C     C_3   0.605685 0.982258 0.655162 -0.291103
C95   C     C_3   0.978778 0.395237 0.653705 -0.292154
C96   C     C_3   0.106157 0.500742 0.840895 -0.336491
C97   C     C_3   0.496167 0.107798 0.840488 -0.314271
C98   C     C_3   0.895137 0.494443 0.840233 -0.336208
C99   C     C_3   0.503722 0.893456 0.840379 -0.333391
C100  C     C_3   0.891344 0.495869 0.159815 -0.307813
C101  C     C_1   0.838140 0.000067 0.500115 0.100239
C102  C     C_3   0.496859 0.105267 0.161677 -0.335706
C103  C     C_3   0.107562 0.499816 0.160653 -0.313885
C104  C     C_3   0.500078 0.893299 0.160223 -0.335573
C105  C     C_3   0.312059 0.902079 0.497223 -0.788476
C106  C     C_3   0.098042 0.311676 0.493386 -0.788648
C107  C     C_3   0.687853 0.097948 0.495808 -0.781039
C108  C     C_3   0.901331 0.687526 0.496631 -0.785056
C109  C     C_3   0.688357 0.902041 0.504372 -0.790094
C110  C     C_3   0.902186 0.312052 0.506567 -0.792307
C111  C     C_3   0.312121 0.097970 0.499088 -0.724260
C112  C     C_R   0.000026 0.419345 0.499965 1.048322
C113  C     C_1   0.999212 0.838133 0.499089 0.106614
C114  C     C_3   0.094656 0.683872 0.500548 -0.811380
C115  C     C_3   0.815496 0.418183 0.069782 -0.681557
C116  C     C_3   0.595836 0.797071 0.061558 -0.677295
C117  C     C_3   0.201228 0.603484 0.998520 -0.710085
C118  C     C_3   0.432180 0.186000 0.100410 -0.707315
C119  C     C_3   0.183926 0.429663 0.905516 -0.689799
C120  C     C_3   0.405223 0.796494 0.936715 -0.675380
C121  C     C_3   0.795300 0.589067 0.916724 -0.665989
C122  C     C_3   0.603620 0.201078 0.995744 -0.709191
C123  C     C_3   0.193469 0.905224 0.489985 -0.295688
C124  C     C_1   0.661845 0.500520 0.000301 0.108483
C125  C     C_3   0.094535 0.193133 0.485818 -0.294089
C126  C     C_3   0.806491 0.094637 0.487991 -0.291880
C127  C     C_3   0.904153 0.806833 0.488619 -0.293593
C128  C     C_3   0.806854 0.905511 0.512278 -0.293859
C129  C     C_3   0.905643 0.193479 0.514712 -0.292731
C130  C     C_3   0.193347 0.094802 0.508354 -0.291716
C131  C     C_3   0.095642 0.801734 0.507335 -0.309350
C132  C     C_3   0.697678 0.487996 0.140858 -0.322164
C133  C     C_3   0.529266 0.701230 0.138113 -0.276738
C134  C     C_3   0.299323 0.566794 0.107124 -0.273084
C135  C     C_1   0.500386 0.661836 0.000054 0.109988
C136  C     C_3   0.436852 0.302498 0.106939 -0.293471
C137  C     C_3   0.301476 0.433672 0.896373 -0.298812
C138  C     C_3   0.472100 0.700549 0.861461 -0.270272
C139  C     C_3   0.700194 0.515367 0.857008 -0.275253
C140  C     C_3   0.564098 0.298923 0.889014 -0.272126
C141  C     C_1   0.338149 0.500270 0.000674 0.111020
C142  C     C_1   0.500590 0.338187 0.999135 0.110089
C143  C     C_1   0.337910 0.000097 0.499316 0.088223
C144  C     C_1   0.000109 0.337910 0.499884 0.090048
C145  C     C_1   0.662079 0.999957 0.499774 0.087038
C146  C     C_1   0.999527 0.662086 0.499459 0.098973
C147  C     C_1   0.837881 0.500423 0.998095 0.016680
C148  C     C_R   0.580652 0.999975 0.499997 1.039685
C149  C     C_1   0.500291 0.837898 0.999777 -0.031156
C150  C     C_1   0.162100 0.499659 0.001577 0.020814
C151  C     C_1   0.499663 0.162142 0.999358 0.023900
C152  C     C_1   0.375163 0.000096 0.499756 -0.144119
C153  C     C_1   0.000085 0.375164 0.499877 -0.157263
C154  C     C_1   0.624825 0.999938 0.499814 -0.157861
C155  C     C_1   0.999826 0.624834 0.499928 -0.158890
C156  C     C_1   0.875152 0.500324 0.998808 -0.188334
C157  C     C_1   0.500122 0.875163 0.999915 -0.182149
C158  C     C_1   0.124833 0.499825 0.000938 -0.190113
C159  C     C_R   0.999966 0.580655 0.500188 1.040392
C160  C     C_1   0.499834 0.124866 0.999938 -0.192925
C161  C     C_1   0.124564 0.999961 0.499837 -0.188392
C162  C     C_1   0.000052 0.124563 0.500173 -0.188829
C163  C     C_1   0.875431 0.000050 0.500108 -0.188584
C164  C     C_1   0.999635 0.875419 0.499687 -0.180998
C165  C     C_1   0.624567 0.500218 0.000062 -0.171154
C166  C     C_1   0.500214 0.624561 0.000132 -0.168817
C167  C     C_1   0.375430 0.500226 0.000294 -0.171452
C168  C     C_1   0.500455 0.375456 0.999574 -0.171507
C169  C     C_R   0.999985 0.919629 0.499936 0.888249
C170  C     C_R   0.919336 0.500067 0.999828 1.019923
C171  C     C_R   0.080364 0.999990 0.499960 0.889349
C172  C     C_R   0.000010 0.080364 0.500055 0.888382
C173  C     C_R   0.919634 0.000016 0.500036 0.888354
C174  C     C_R   0.500141 0.419643 0.999912 0.899064
C175  C     C_R   0.580365 0.499991 0.999987 0.896045
C176  C     C_R   0.500030 0.580363 0.000051 0.895782
C177  C     C_R   0.419634 0.500078 0.000057 0.899181
C178  C     C_R   0.500179 0.999945 0.379825 1.059110
C179  C     C_R   0.000030 0.500193 0.379829 1.062440
C180  C     C_R   0.500082 0.000041 0.620205 1.053597
C181  C     C_R   0.500029 0.919341 0.000046 1.026567
C182  C     C_R   0.999966 0.500179 0.620174 1.059252
C183  C     C_R   0.000259 0.499932 0.879660 1.037404
C184  C     C_R   0.500017 0.000076 0.879691 1.043750
C185  C     C_R   0.999817 0.500003 0.120342 1.036053
C186  C     C_R   0.499937 0.999866 0.120347 1.033459
C187  C     C_R   0.570350 0.966320 0.309107 0.339361
C188  C     C_R   0.034314 0.569910 0.309443 0.341787
C189  C     C_R   0.428482 0.030825 0.309949 0.380660
C190  C     C_R   0.967014 0.429675 0.309893 0.341255
C191  C     C_R   0.431244 0.963765 0.690685 0.344383
C192  C     C_R   0.080658 0.499961 0.000182 1.020188
C193  C     C_R   0.963863 0.569061 0.691293 0.342339
C194  C     C_R   0.568558 0.037010 0.690697 0.342816
C195  C     C_R   0.034586 0.430280 0.689760 0.343175
C196  C     C_R   0.061305 0.451487 0.807986 0.366521
C197  C     C_R   0.545917 0.062924 0.808861 0.355455
C198  C     C_R   0.937721 0.546257 0.809126 0.363903
C199  C     C_R   0.453575 0.937743 0.808689 0.361210
C200  C     C_R   0.939998 0.450111 0.191647 0.360370
C201  C     C_R   0.448572 0.058292 0.191816 0.370851
C202  C     C_R   0.060930 0.548219 0.191275 0.359626
C203  C     C_R   0.499962 0.080671 0.000278 1.018733
C204  C     C_R   0.548926 0.939254 0.191116 0.363710
C205  C     C_R   0.595394 0.936582 0.278946 0.321039
C206  C     C_R   0.064408 0.594458 0.279526 0.324691
C207  C     C_R   0.401469 0.058323 0.279487 0.347037
C208  C     C_R   0.937642 0.404203 0.280119 0.319717
C209  C     C_R   0.407290 0.933267 0.720791 0.318920
C210  C     C_R   0.933315 0.592957 0.721747 0.319520
C211  C     C_R   0.591993 0.068043 0.720615 0.322876
C212  C     C_R   0.064593 0.405469 0.719400 0.317635
C213  C     C_R   0.078485 0.416524 0.778191 0.322007
C214  C     C_R   0.293350 0.000023 0.499048 -0.080078
C215  C     C_R   0.580163 0.081613 0.779336 0.316635
C216  C     C_R   0.919679 0.581082 0.780350 0.322699
C217  C     C_R   0.418899 0.919730 0.779489 0.319776
C218  C     C_R   0.923619 0.414818 0.221302 0.318211
C219  C     C_R   0.412187 0.073348 0.220787 0.309155
C220  C     C_R   0.078315 0.583177 0.220759 0.312481
C221  C     C_R   0.584241 0.922466 0.220276 0.317451
C222  C     C_R   0.527172 0.972906 0.218780 -0.181498
C223  C     C_R   0.027048 0.526910 0.218854 -0.179162
C224  C     C_R   0.471579 0.025488 0.219195 -0.184584
H1    H     H_    0.333507 0.027848 0.259216 0.094201
H2    H     H_    0.135857 0.602696 0.327897 0.146477
H3    H     H_    0.331136 0.919670 0.463564 0.238436
H4    H     H_    0.088412 0.278902 0.574140 0.271690
H5    H     H_    0.114361 0.286554 0.467829 0.232926
H6    H     H_    0.121800 0.332080 0.514981 0.224345
H7    H     H_    0.079737 0.330770 0.460605 0.239736
H8    H     H_    0.720795 0.087614 0.576237 0.272834
H9    H     H_    0.712855 0.114567 0.470622 0.231143
H10   H     H_    0.667363 0.121445 0.518060 0.224815
H11   H     H_    0.668797 0.079924 0.462596 0.239124
H12   H     H_    0.912020 0.721315 0.576335 0.272763
H13   H     H_    0.096394 0.602155 0.388530 0.175707
H14   H     H_    0.884617 0.712222 0.470932 0.231184
H15   H     H_    0.877922 0.667424 0.519599 0.224559
H16   H     H_    0.919206 0.667951 0.463769 0.239332
H17   H     H_    0.721440 0.912246 0.423936 0.271670
H18   H     H_    0.713401 0.885641 0.529787 0.232725
H19   H     H_    0.668129 0.878355 0.482233 0.224419
H20   H     H_    0.669040 0.920090 0.537367 0.240299
H21   H     H_    0.911747 0.278778 0.426028 0.271282
H22   H     H_    0.885874 0.287134 0.532324 0.233330
H23   H     H_    0.878420 0.332402 0.484860 0.224609
H24   H     H_    0.122858 0.649454 0.368850 0.178885
H25   H     H_    0.920515 0.331284 0.539189 0.240022
H26   H     H_    0.278348 0.086257 0.419889 0.264960
H27   H     H_    0.287374 0.115283 0.524007 0.217771
H28   H     H_    0.332516 0.120837 0.475482 0.246907
H29   H     H_    0.331368 0.080552 0.532717 0.230926
H30   H     H_    0.087531 0.721030 0.422265 0.270416
H31   H     H_    0.126562 0.697186 0.502669 0.223341
H32   H     H_    0.097019 0.650600 0.487047 0.246579
H33   H     H_    0.080667 0.685704 0.547295 0.236124
H34   H     H_    0.780739 0.453073 0.132864 0.253986
H35   H     H_    0.596834 0.137918 0.667819 0.141093
H36   H     H_    0.800895 0.390483 0.091458 0.233697
H37   H     H_    0.848716 0.419563 0.083605 0.279072
H38   H     H_    0.813993 0.414278 0.019020 0.222200
H39   H     H_    0.541467 0.820815 0.099424 0.249375
H40   H     H_    0.614913 0.811698 0.098227 0.242198
H41   H     H_    0.597226 0.816948 0.019824 0.215840
H42   H     H_    0.609240 0.765914 0.051088 0.259617
H43   H     H_    0.179362 0.565030 0.067925 0.249346
H44   H     H_    0.186014 0.631026 0.019931 0.224112
H45   H     H_    0.181279 0.592058 0.960318 0.216164
H46   H     H_    0.601414 0.097292 0.609162 0.185929
H47   H     H_    0.231953 0.613313 0.979995 0.268721
H48   H     H_    0.400760 0.222154 0.035394 0.261334
H49   H     H_    0.408113 0.197984 0.132699 0.236593
H50   H     H_    0.463291 0.190706 0.121797 0.222943
H51   H     H_    0.427125 0.152191 0.093547 0.287906
H52   H     H_    0.221998 0.399713 0.969758 0.260653
H53   H     H_    0.195679 0.405500 0.873190 0.232932
H54   H     H_    0.187271 0.460578 0.883046 0.227530
H55   H     H_    0.150417 0.423832 0.914455 0.288511
H56   H     H_    0.459649 0.820602 0.899765 0.252510
H57   H     H_    0.645854 0.127503 0.631354 0.172418
H58   H     H_    0.386197 0.810513 0.899543 0.242553
H59   H     H_    0.403282 0.816743 0.978130 0.214469
H60   H     H_    0.392159 0.765299 0.947450 0.261060
H61   H     H_    0.820198 0.531984 0.891245 0.247143
H62   H     H_    0.808895 0.604551 0.875800 0.255074
H63   H     H_    0.815656 0.595137 0.957049 0.214843
H64   H     H_    0.763949 0.602671 0.925135 0.257857
H65   H     H_    0.563136 0.179044 0.928957 0.251727
H66   H     H_    0.630491 0.185745 0.972731 0.222569
H67   H     H_    0.593290 0.181279 0.034751 0.217066
H68   H     H_    0.134574 0.398017 0.667496 0.139459
H69   H     H_    0.614029 0.231845 0.013435 0.269345
H70   H     H_    0.217572 0.902079 0.453404 0.144754
H71   H     H_    0.164421 0.918153 0.469955 0.172993
H72   H     H_    0.186290 0.873424 0.506803 0.180737
H73   H     H_    0.096794 0.217192 0.449166 0.146943
H74   H     H_    0.081121 0.164106 0.466395 0.172982
H75   H     H_    0.126724 0.185874 0.500957 0.180323
H76   H     H_    0.782290 0.097408 0.451598 0.146959
H77   H     H_    0.835414 0.081292 0.467968 0.173137
H78   H     H_    0.813884 0.126619 0.503984 0.180810
H79   H     H_    0.094370 0.395398 0.608143 0.186639
H80   H     H_    0.899946 0.782148 0.453165 0.148067
H81   H     H_    0.917945 0.834983 0.467163 0.171801
H82   H     H_    0.872739 0.815517 0.505718 0.180628
H83   H     H_    0.782738 0.903094 0.548938 0.146533
H84   H     H_    0.835917 0.918659 0.531908 0.173418
H85   H     H_    0.813985 0.873403 0.496473 0.180008
H86   H     H_    0.903250 0.217789 0.551131 0.146721
H87   H     H_    0.919164 0.164609 0.534432 0.173182
H88   H     H_    0.873499 0.186062 0.499580 0.180813
H89   H     H_    0.185235 0.126289 0.491134 0.180208
H90   H     H_    0.122670 0.349652 0.630292 0.173879
H91   H     H_    0.218009 0.098731 0.543823 0.148133
H92   H     H_    0.164921 0.081587 0.529872 0.172849
H93   H     H_    0.106543 0.772387 0.529193 0.169111
H94   H     H_    0.080414 0.822101 0.542205 0.166935
H95   H     H_    0.123535 0.818417 0.490063 0.183048
H96   H     H_    0.726324 0.502861 0.159582 0.140399
H97   H     H_    0.682599 0.470733 0.178975 0.196837
H98   H     H_    0.675414 0.512351 0.125251 0.172396
H99   H     H_    0.500077 0.683052 0.131545 0.150045
H100  H     H_    0.522183 0.731814 0.159991 0.163667
H101  H     H_    0.400952 0.862997 0.669321 0.141811
H102  H     H_    0.549360 0.683492 0.170248 0.188331
H103  H     H_    0.317941 0.538705 0.119300 0.148590
H104  H     H_    0.269021 0.566565 0.132067 0.169854
H105  H     H_    0.316955 0.594508 0.122950 0.188804
H106  H     H_    0.439544 0.273163 0.133781 0.164509
H107  H     H_    0.409077 0.319514 0.124180 0.194920
H108  H     H_    0.464515 0.322575 0.115323 0.162301
H109  H     H_    0.321214 0.461229 0.885783 0.162267
H110  H     H_    0.271823 0.435294 0.870059 0.163695
H111  H     H_    0.318566 0.405554 0.880557 0.195132
H112  H     H_    0.318323 0.082231 0.249572 0.190001
H113  H     H_    0.397374 0.903044 0.609892 0.184685
H114  H     H_    0.501245 0.682284 0.868305 0.150491
H115  H     H_    0.479283 0.730981 0.839429 0.163207
H116  H     H_    0.452060 0.682717 0.829330 0.189380
H117  H     H_    0.682396 0.486944 0.869964 0.150614
H118  H     H_    0.730685 0.506535 0.836282 0.163597
H119  H     H_    0.681985 0.531958 0.821303 0.188111
H120  H     H_    0.535738 0.317584 0.878422 0.148479
H121  H     H_    0.563100 0.268554 0.864265 0.170719
H122  H     H_    0.591398 0.316432 0.871462 0.188683
H123  H     H_    0.352231 0.874072 0.632696 0.173042
H124  H     H_    0.862920 0.599744 0.670741 0.142445
H125  H     H_    0.903030 0.603050 0.611199 0.184892
H126  H     H_    0.874214 0.648383 0.634076 0.173178
H127  H     H_    0.926714 0.649940 0.836064 0.153374
H128  H     H_    0.915824 0.609433 0.892790 0.186028
H129  H     H_    0.876896 0.647145 0.873095 0.167601
H130  H     H_    0.349680 0.927664 0.833453 0.151298
H131  H     H_    0.389329 0.916567 0.891438 0.183138
H132  H     H_    0.305789 0.054821 0.318515 0.175635
H133  H     H_    0.351538 0.877990 0.870698 0.166363
H134  H     H_    0.071902 0.344075 0.824855 0.166323
H135  H     H_    0.077668 0.382909 0.885830 0.172837
H136  H     H_    0.119426 0.347801 0.867808 0.177166
H137  H     H_    0.649440 0.077690 0.835386 0.150776
H138  H     H_    0.608095 0.087374 0.891494 0.182810
H139  H     H_    0.644141 0.127685 0.871582 0.173261
H140  H     H_    0.071927 0.652363 0.164925 0.149852
H141  H     H_    0.082758 0.611309 0.108774 0.181802
H142  H     H_    0.121943 0.648679 0.128400 0.173109
H143  H     H_    0.867606 0.395796 0.331185 0.140482
H144  H     H_    0.653138 0.931102 0.165036 0.151085
H145  H     H_    0.613058 0.918962 0.108149 0.183224
H146  H     H_    0.651706 0.881081 0.128350 0.167303
H147  H     H_    0.932133 0.343135 0.172517 0.163302
H148  H     H_    0.924316 0.382190 0.112564 0.172661
H149  H     H_    0.884010 0.345654 0.130840 0.174438
H150  H     H_    0.351513 0.060329 0.150668 0.120897
H151  H     H_    0.390918 0.085159 0.103099 0.210941
H152  H     H_    0.345502 0.113358 0.126541 0.180749
H153  H     H_    0.582537 0.044381 0.324089 0.150336
H154  H     H_    0.907453 0.393991 0.391123 0.185880
H155  H     H_    0.616425 0.037729 0.388247 0.169900
H156  H     H_    0.631956 0.016552 0.315635 0.178860
H157  H     H_    0.956367 0.583069 0.323974 0.148530
H158  H     H_    0.963144 0.616991 0.388162 0.169261
H159  H     H_    0.984655 0.632141 0.315724 0.178839
H160  H     H_    0.423502 0.952009 0.330790 0.154963
H161  H     H_    0.387268 0.958148 0.392349 0.176257
H162  H     H_    0.372313 0.975042 0.317440 0.152553
H163  H     H_    0.045151 0.417784 0.323891 0.149776
H164  H     H_    0.039037 0.384437 0.388751 0.169512
H165  H     H_    0.880151 0.347741 0.368573 0.174788
H166  H     H_    0.017655 0.368174 0.316719 0.179037
H167  H     H_    0.416033 0.041483 0.677143 0.149399
H168  H     H_    0.381934 0.033912 0.613465 0.168436
H169  H     H_    0.367816 0.011825 0.685921 0.180032
H170  H     H_    0.041621 0.583827 0.676552 0.148706
H171  H     H_    0.033750 0.618292 0.613412 0.172401
H172  H     H_    0.012104 0.632132 0.686415 0.178692
H173  H     H_    0.584359 0.959359 0.677176 0.148433
H174  H     H_    0.618637 0.967019 0.613670 0.169032
H175  H     H_    0.632319 0.989402 0.686183 0.179000
H176  H     H_    0.603723 0.866432 0.329597 0.141605
H177  H     H_    0.956613 0.417046 0.676587 0.148977
H178  H     H_    0.963074 0.383428 0.611925 0.169090
H179  H     H_    0.985105 0.367948 0.683827 0.178881
H180  H     H_    0.128599 0.491361 0.804249 0.167085
H181  H     H_    0.086846 0.527499 0.825217 0.158439
H182  H     H_    0.124831 0.511778 0.880277 0.179242
H183  H     H_    0.507211 0.131821 0.807387 0.173407
H184  H     H_    0.470457 0.089191 0.819891 0.154444
H185  H     H_    0.482924 0.124582 0.880367 0.180467
H186  H     H_    0.871574 0.503276 0.805014 0.166660
H187  H     H_    0.605934 0.906313 0.389632 0.185574
H188  H     H_    0.915788 0.469348 0.822210 0.159807
H189  H     H_    0.878039 0.481100 0.879641 0.171532
H190  H     H_    0.493604 0.869715 0.806103 0.169189
H191  H     H_    0.529469 0.912713 0.821275 0.158243
H192  H     H_    0.516607 0.876367 0.880082 0.175337
H193  H     H_    0.868599 0.483131 0.193624 0.175344
H194  H     H_    0.907719 0.523381 0.179478 0.147737
H195  H     H_    0.873097 0.506945 0.120082 0.190525
H196  H     H_    0.486306 0.126981 0.198583 0.176567
H197  H     H_    0.524015 0.086635 0.177631 0.160137
H198  H     H_    0.651987 0.878680 0.366652 0.174069
H199  H     H_    0.507778 0.124632 0.122944 0.178895
H200  H     H_    0.130257 0.511325 0.195466 0.170637
H201  H     H_    0.089478 0.473124 0.179388 0.154431
H202  H     H_    0.125963 0.487868 0.121469 0.180320
H203  H     H_    0.511071 0.870023 0.194509 0.170055
H204  H     H_    0.473836 0.911919 0.179496 0.156347
H205  H     H_    0.487511 0.875694 0.120739 0.173582
H206  H     H_    0.279152 0.913455 0.577574 0.273236
H207  H     H_    0.287031 0.885192 0.472484 0.231196
H208  H     H_    0.332518 0.878824 0.519860 0.224707
N1    N     N_2   0.294366 0.929554 0.543266 -0.258599
N2    N     N_2   0.553248 0.793207 0.082474 -0.272679
N3    N     N_2   0.206474 0.571226 0.044144 -0.270783
N4    N     N_2   0.428733 0.206869 0.041623 -0.294981
N5    N     N_2   0.206487 0.427512 0.963107 -0.299013
N6    N     N_2   0.447998 0.792931 0.916459 -0.272142
N7    N     N_2   0.792349 0.544764 0.905455 -0.276386
N8    N     N_2   0.570062 0.206224 0.952150 -0.270302
N9    N     N_2   0.071577 0.294146 0.540653 -0.260457
N10   N     N_2   0.705588 0.071071 0.542348 -0.258972
N11   N     N_2   0.928421 0.705825 0.542475 -0.259960
N12   N     N_2   0.706046 0.928840 0.457688 -0.260326
N13   N     N_2   0.928614 0.294160 0.459385 -0.261319
N14   N     N_2   0.293929 0.070264 0.453926 -0.256922
N15   N     N_2   0.070021 0.706017 0.455248 -0.257885
N16   N     N_2   0.794619 0.455817 0.090322 -0.288912
O1    O     O_R   0.439000 0.034460 0.500000 -0.610471
O2    O     O_R   0.465540 0.939000 0.000000 -0.618878
O3    O     O_R   0.061000 0.465540 0.000000 -0.612782
O4    O     O_R   0.534460 0.061000 0.000000 -0.619199
O5    O     O_R   0.061000 0.534460 0.000000 -0.618689
O6    O     O_R   0.534460 0.939000 0.000000 -0.615847
O7    O     O_R   0.939000 0.465540 0.000000 -0.615247
O8    O     O_R   0.465540 0.061000 0.000000 -0.615405
O9    O     O_R   0.499990 0.034460 0.408410 -0.621732
O10   O     O_R   0.965540 0.499990 0.408410 -0.632345
O11   O     O_R   0.500010 0.965540 0.408410 -0.634679
O12   O     O_R   0.965540 0.439000 0.500000 -0.626178
O13   O     O_R   0.034460 0.500010 0.408410 -0.631019
O14   O     O_R   0.500010 0.034460 0.591590 -0.631995
O15   O     O_R   0.034460 0.499990 0.591590 -0.632582
O16   O     O_R   0.499990 0.965540 0.591590 -0.631621
O17   O     O_R   0.965540 0.500010 0.591590 -0.630219
O18   O     O_R   0.999990 0.534460 0.908410 -0.629113
O19   O     O_R   0.465540 0.999990 0.908410 -0.625949
O20   O     O_R   0.000010 0.465540 0.908410 -0.624679
O21   O     O_R   0.534460 0.000010 0.908410 -0.627801
O22   O     O_R   0.000010 0.534460 0.091590 -0.626952
O23   O     O_R   0.561000 0.965540 0.500000 -0.626956
O24   O     O_R   0.534460 0.999990 0.091590 -0.627050
O25   O     O_R   0.999990 0.465540 0.091590 -0.622839
O26   O     O_R   0.465540 0.000010 0.091590 -0.625474
O27   O     O_R   0.999970 0.939080 0.448210 -0.611529
O28   O     O_R   0.060920 0.999970 0.448210 -0.612281
O29   O     O_R   0.000030 0.060920 0.448210 -0.611744
O30   O     O_R   0.939080 0.000030 0.448210 -0.611306
O31   O     O_R   0.000030 0.939080 0.551790 -0.611352
O32   O     O_R   0.939080 0.999970 0.551790 -0.611641
O33   O     O_R   0.999970 0.060920 0.551790 -0.611608
O34   O     O_R   0.034460 0.561000 0.500000 -0.627905
O35   O     O_R   0.060920 0.000030 0.551790 -0.610705
O36   O     O_R   0.499970 0.439080 0.948210 -0.617488
O37   O     O_R   0.560920 0.499970 0.948210 -0.615052
O38   O     O_R   0.500030 0.560920 0.948210 -0.613297
O39   O     O_R   0.439080 0.500030 0.948210 -0.615360
O40   O     O_R   0.500030 0.439080 0.051790 -0.614928
O41   O     O_R   0.439080 0.499970 0.051790 -0.617079
O42   O     O_R   0.499970 0.560920 0.051790 -0.616894
O43   O     O_R   0.560920 0.500030 0.051790 -0.614039
O44   O     O_3   0.366845 0.073075 0.310825 -0.536359
O45   O     O_R   0.561000 0.034460 0.500000 -0.624338
O46   O     O_3   0.924179 0.367567 0.306832 -0.558575
O47   O     O_3   0.632091 0.922772 0.305174 -0.557028
O48   O     O_3   0.078864 0.630745 0.306283 -0.554763
O49   O     O_3   0.628019 0.083512 0.694339 -0.556854
O50   O     O_3   0.078729 0.368965 0.692713 -0.559161
O51   O     O_3   0.370953 0.918404 0.694758 -0.556830
O52   O     O_3   0.918392 0.629392 0.696068 -0.556866
O53   O     O_3   0.886843 0.602138 0.807472 -0.566373
O54   O     O_3   0.397583 0.887155 0.806531 -0.562254
O55   O     O_3   0.110746 0.394496 0.804791 -0.569355
O56   O     O_R   0.034460 0.439000 0.500000 -0.624655
O57   O     O_3   0.600272 0.115334 0.805494 -0.564124
O58   O     O_3   0.111261 0.604490 0.194600 -0.564425
O59   O     O_3   0.606340 0.890120 0.193642 -0.562618
O60   O     O_3   0.891814 0.392143 0.194671 -0.563918
O61   O     O_3   0.388891 0.105059 0.194768 -0.563720
O62   O     O_3   0.584907 0.984542 0.362443 -0.598917
O63   O     O_3   0.016153 0.584823 0.362695 -0.596704
O64   O     O_3   0.415128 0.012840 0.364100 -0.575878
O65   O     O_3   0.985489 0.415453 0.363161 -0.598804
O66   O     O_3   0.415759 0.981782 0.637825 -0.597602
O67   O     O_R   0.439000 0.965540 0.500000 -0.628676
O68   O     O_3   0.981711 0.584558 0.638273 -0.596575
O69   O     O_3   0.584343 0.018966 0.637883 -0.596282
O70   O     O_3   0.016144 0.415484 0.636748 -0.597355
O71   O     O_3   0.080981 0.466936 0.859661 -0.585811
O72   O     O_3   0.529212 0.081956 0.860325 -0.591490
O73   O     O_3   0.918264 0.529459 0.860079 -0.584593
O74   O     O_3   0.469930 0.918488 0.860049 -0.585583
O75   O     O_3   0.919982 0.465122 0.140053 -0.586902
O76   O     O_3   0.464075 0.079322 0.141328 -0.593621
O77   O     O_3   0.080863 0.532000 0.140213 -0.588209
O78   O     O_R   0.965540 0.561000 0.500000 -0.623827
O79   O     O_3   0.533025 0.919129 0.140076 -0.582997
O80   O     O_3   0.206853 0.929599 0.540337 -0.594651
O81   O     O_3   0.071399 0.206632 0.537438 -0.595707
O82   O     O_3   0.793120 0.071016 0.539036 -0.596213
O83   O     O_3   0.928350 0.793393 0.539010 -0.596434
O84   O     O_3   0.793541 0.929071 0.461150 -0.595658
O85   O     O_3   0.928765 0.206671 0.463023 -0.595965
O86   O     O_3   0.206415 0.070151 0.458035 -0.600533
O87   O     O_3   0.068910 0.793725 0.457278 -0.593758
O88   O     O_3   0.707034 0.459557 0.093234 -0.583176
O89   O     O_R   0.939000 0.534460 0.000000 -0.618261
O90   O     O_3   0.550930 0.706295 0.082200 -0.579816
O91   O     O_3   0.293489 0.569861 0.043062 -0.578970
O92   O     O_3   0.431366 0.294431 0.043713 -0.592039
O93   O     O_3   0.294121 0.430034 0.960063 -0.591620
O94   O     O_3   0.450306 0.706020 0.917222 -0.578717
O95   O     O_3   0.705442 0.542277 0.907720 -0.580484
O96   O     O_3   0.568929 0.293258 0.952867 -0.579106
Zn1   Zn    Zn3+2 0.500000 0.046010 0.500000 0.977503
Zn2   Zn    Zn3+2 0.000000 1.000000 0.569050 0.980323
Zn3   Zn    Zn3+2 0.500000 0.500000 0.930950 0.963924
Zn4   Zn    Zn3+2 0.500000 0.500000 0.069050 0.963279
Zn5   Zn    Zn3+2 0.953990 0.500000 0.500000 0.952571
Zn6   Zn    Zn3+2 0.500000 0.953990 0.500000 0.950424
Zn7   Zn    Zn3+2 0.046010 0.500000 0.500000 0.950408
Zn8   Zn    Zn3+2 0.000000 0.546010 0.000000 0.956076
Zn9   Zn    Zn3+2 0.453990 0.000000 0.000000 0.956658
Zn10  Zn    Zn3+2 0.000000 0.453990 0.000000 0.963647
Zn11  Zn    Zn3+2 0.546010 0.000000 0.000000 0.957199
Zn12  Zn    Zn3+2 0.000000 1.000000 0.430950 0.979069

loop_
_geom_bond_atom_site_label_1
_geom_bond_atom_site_label_2
_ccdc_geom_bond_type
C33   C55   A    
C88   H157  S    
C200  C218  A    
C77   H126  S    
C30   C45   A    
C16   C222  A    
C41   C61   A    
C78   H127  S    
C198  C216  A    
C83   H142  S    
C134  H105  S    
C86   H150  S    
C52   N14   S    
C140  O96   S    
C132  H98   S    
C12   C23   A    
C46   C62   A    
O25   Zn10  S    
C182  O15   A    
C60   N11   S    
C114  H32   S    
C80   H131  S    
C119  H55   S    
C80   O54   S    
C159  O34   A    
O23   Zn6   S    
C184  O19   A    
C81   H135  S    
C32   C52   A    
C114  N15   S    
C115  H37   S    
C137  H110  S    
C14   C189  A    
C4    C199  A    
O17   Zn5   S    
C150  C158  T    
C26   C59   A    
C110  N13   S    
C23   C179  S    
C134  O91   S    
C50   C141  S    
C107  H9    S    
C130  H89   S    
C36   O90   S    
C93   H172  S    
C87   H155  S    
C91   H166  S    
C79   C161  T    
C140  H122  S    
C129  H88   S    
C82   H138  S    
C10   C21   A    
C72   O47   S    
C64   N8    S    
C204  O79   S    
C101  C163  T    
C201  C219  A    
C111  N14   S    
C105  H207  S    
C178  O9    A    
C57   C65   A    
C25   C178  S    
C70   O44   S    
C76   H123  S    
H56   N6    S    
C27   C58   A    
C106  H6    S    
O56   Zn7   S    
C139  H119  S    
C123  O80   S    
C29   O83   S    
C77   H124  S    
C84   H145  S    
C116  H40   S    
C158  C192  S    
C17   C186  S    
C122  H69   S    
C18   C223  A    
C107  N10   S    
O21   Zn11  S    
C85   O60   S    
C94   H175  S    
C88   H159  S    
C134  H103  S    
C33   C47   A    
C34   C48   A    
C140  H120  S    
C98   O73   S    
C75   H79   S    
C42   C64   A    
C83   H140  S    
C13   C54   A    
C191  O66   S    
C16   C25   A    
C205  O47   S    
H61   N7    S    
C202  C223  A    
C95   O70   S    
O34   Zn7   S    
C2    C53   A    
C119  H53   S    
C117  H45   S    
C97   H185  S    
C96   O71   S    
C198  O73   S    
C38   O92   S    
C104  H204  S    
C209  C217  A    
O8    Zn9   S    
C136  H106  S    
C126  O82   S    
C103  H200  S    
O89   Zn8   S    
C68   C151  S    
C102  O76   S    
O78   Zn5   S    
C125  H74   S    
C190  O65   S    
C126  H77   S    
C109  H18   S    
C180  O14   A    
C181  O6    A    
C37   C50   A    
C135  C166  T    
C70   H132  S    
C207  O44   S    
C36   C66   A    
C121  H62   S    
C109  N12   S    
C96   H180  S    
C70   H1    S    
C61   N7    S    
C117  H44   S    
C142  C168  T    
C59   N1    S    
C170  O89   A    
C212  C213  A    
C73   O48   S    
O31   Zn2   S    
C87   H153  S    
C54   N12   S    
C91   H164  S    
C65   N3    S    
C7    C196  A    
C121  H64   S    
C182  O17   A    
C89   H162  S    
C110  H23   S    
C111  H29   S    
C128  H84   S    
C204  C221  A    
C62   N6    S    
C93   O68   S    
C2    C144  S    
C122  H66   S    
C13   C145  S    
C123  H71   S    
C160  C203  S    
C179  O13   A    
C97   H183  S    
C7    C8    A    
C5    C20   A    
C192  O5    A    
C187  O62   S    
C168  C174  S    
C6    C19   A    
C30   C54   A    
C90   C162  T    
C26   O80   S    
C115  N16   S    
C64   C68   A    
C169  O27   A    
C171  O35   A    
C102  H197  S    
C116  H42   S    
C83   O58   S    
C40   C49   A    
C194  O69   S    
C148  O23   A    
C8    C195  A    
C202  C220  A    
C34   O88   S    
O2    Zn9   S    
C80   H130  S    
C94   H173  S    
C27   C44   A    
C196  O71   S    
C74   H57   S    
C37   C65   A    
C76   H113  S    
C29   C60   A    
C104  H205  S    
C100  O75   S    
O42   Zn4   S    
C219  O61   S    
C138  O94   S    
C13   C56   A    
C49   C135  S    
C132  O88   S    
C96   H181  S    
O16   Zn6   S    
C207  C219  A    
C117  H47   S    
C57   C63   A    
C189  O64   S    
O3    Zn10  S    
C21   C182  S    
C136  O92   S    
C130  H92   S    
O41   Zn4   S    
C155  C159  S    
C138  H115  S    
C136  H108  S    
O14   Zn1   S    
C137  H111  S    
C127  H80   S    
C206  O48   S    
C38   C51   A    
C109  H20   S    
C111  H28   S    
C180  O16   A    
C127  H82   S    
C128  H85   S    
C89   H160  S    
C177  O39   A    
C77   O52   S    
H8    N10   S    
C211  O49   S    
C108  N11   S    
C92   O66   S    
C88   O63   S    
C108  H15   S    
C35   C67   A    
C187  C205  A    
C52   C214  A    
C3    C200  A    
O7    Zn10  S    
O22   Zn8   S    
O12   Zn5   S    
C35   C61   A    
C125  O81   S    
C39   O93   S    
C86   O61   S    
C66   N2    S    
C84   H144  S    
C185  O25   A    
C191  C209  A    
C133  H100  S    
C145  C154  T    
C103  O77   S    
C202  O77   S    
C76   O51   S    
O33   Zn2   S    
C131  H94   S    
C163  C173  S    
C118  H50   S    
C78   O53   S    
C212  O50   S    
C172  O29   A    
C97   O72   S    
C74   O49   S    
C176  O42   A    
C221  O59   S    
C78   H128  S    
C75   H68   S    
C186  O24   A    
C19   C184  S    
C103  H202  S    
C83   H141  S    
C100  H193  S    
C201  O76   S    
C15   C188  A    
C18   C185  S    
C121  N7    S    
C122  N8    S    
C195  C212  A    
C72   H187  S    
C99   H192  S    
C193  C210  A    
C95   H178  S    
C118  H51   S    
C92   H169  S    
C32   C43   A    
O32   Zn2   S    
O36   Zn3   S    
C11   C191  A    
C81   H134  S    
C105  H3    S    
C114  H33   S    
C38   C69   A    
C124  C165  T    
C161  C171  S    
C46   C149  S    
C162  C172  S    
C75   O50   S    
C177  O41   A    
C28   C56   A    
C1    O1    A    
O6    Zn11  S    
O29   Zn12  S    
C93   H171  S    
C131  H95   S    
O35   Zn2   S    
C172  O33   A    
C132  H96   S    
C28   O82   S    
C199  C217  A    
C137  O93   S    
C176  O38   A    
C193  O68   S    
C129  H87   S    
C139  O95   S    
C82   H139  S    
C85   H149  S    
C181  O2    A    
C188  C206  A    
C148  C154  S    
C74   H46   S    
C156  C170  S    
H34   N16   S    
C46   C66   A    
O20   Zn10  S    
C73   H2    S    
O4    Zn11  S    
C92   H167  S    
C106  H7    S    
C213  O55   S    
C77   H125  S    
C112  O56   A    
C84   H146  S    
C218  O60   S    
C85   H148  S    
C146  C155  T    
C127  O83   S    
C68   C69   A    
C71   H165  S    
C88   H158  S    
C179  O10   A    
C80   H133  S    
C120  H58   S    
C210  O52   S    
C110  H25   S    
C134  H104  S    
C184  O21   A    
C169  O31   A    
C157  C181  S    
C6    C9    A    
O19   Zn9   S    
C40   O94   S    
C100  H195  S    
C200  O75   S    
C208  C218  A    
C132  H97   S    
C31   O85   S    
C141  C167  T    
C94   O69   S    
C22   C180  S    
C99   H190  S    
O1    Zn1   S    
C215  O57   S    
C9    C194  A    
O38   Zn3   S    
C206  C220  A    
C173  O32   A    
C174  O40   A    
O10   Zn5   S    
C117  N3    S    
C71   H143  S    
C1    O67   A    
C81   H136  S    
O24   Zn11  S    
C30   O84   S    
C175  O37   A    
C115  H38   S    
C220  O58   S    
C6    C197  A    
C125  H73   S    
C81   O55   S    
C71   H154  S    
C126  H78   S    
C4    C11   A    
C147  C156  T    
H206  N1    S    
C86   H151  S    
C45   C101  S    
O27   Zn12  S    
C20   C183  S    
C143  C152  T    
C167  C177  S    
C107  H10   S    
C29   C47   A    
C197  O72   S    
C131  H93   S    
C69   N4    S    
C87   H156  S    
C10   C193  A    
C91   H163  S    
C107  H11   S    
C140  H121  S    
C89   H161  S    
C185  O22   A    
C82   H137  S    
C138  H116  S    
C47   C113  S    
C128  O84   S    
H12   N11   S    
C204  C222  A    
C131  O87   S    
C122  H67   S    
C56   N10   S    
C105  H208  S    
C34   C67   A    
C2    C58   A    
C37   O91   S    
C175  O43   A    
C171  O28   A    
C106  H5    S    
C27   O81   S    
C41   O95   S    
C24   C146  S    
C84   O59   S    
C173  O30   A    
C189  C207  A    
C210  C216  A    
C78   H129  S    
C12   C190  A    
C14   C25   A    
C15   C223  A    
C98   H188  S    
C94   H174  S    
C192  O3    A    
C120  H60   S    
C195  O70   S    
C95   H179  S    
C7    C20   A    
C120  N6    S    
C67   N16   S    
C183  O20   A    
C203  O8    A    
C149  C157  T    
C36   C49   A    
C118  N4    S    
H52   N5    S    
C113  C164  T    
C55   N15   S    
C130  O86   S    
C211  C215  A    
C91   O65   S    
C136  H107  S    
C98   H189  S    
C96   H182  S    
C203  O4    A    
C119  H54   S    
C59   C214  A    
C40   C62   A    
C99   O74   S    
C73   H24   S    
C74   H35   S    
C24   C55   A    
C102  H199  S    
C1    C152  S    
C104  H203  S    
C14   C224  A    
H26   N14   S    
C116  N2    S    
C115  H36   S    
C33   O87   S    
C125  H75   S    
C9    C22   A    
C126  H76   S    
C109  H19   S    
C111  H27   S    
C127  H81   S    
C32   O86   S    
C3    C18   A    
C121  H63   S    
C144  C153  T    
C72   H176  S    
C17   C222  A    
C82   O57   S    
C194  C211  A    
C4    C19   A    
C72   H198  S    
C108  H16   S    
O67   Zn6   S    
C105  N1    S    
C3    C12   A    
O11   Zn6   S    
O39   Zn3   S    
C197  C215  A    
C42   C51   A    
C133  H99   S    
C110  H22   S    
C15   C23   A    
C104  O79   S    
C128  H83   S    
H30   N15   S    
H17   N12   S    
C164  C169  S    
H21   N13   S    
C123  H72   S    
O26   Zn9   S    
C137  H109  S    
C97   H184  S    
C26   C43   A    
C76   H101  S    
C120  H59   S    
C28   C45   A    
C114  H31   S    
C31   C44   A    
C139  H118  S    
O37   Zn3   S    
O43   Zn4   S    
C106  N9    S    
C102  H196  S    
C116  H41   S    
C48   C124  S    
C103  H201  S    
C100  H194  S    
C5    C198  A    
C53   N13   S    
C112  O12   A    
C42   O96   S    
H39   N2    S    
C98   H186  S    
C73   H13   S    
C63   N5    S    
C99   H191  S    
C139  H117  S    
C95   H177  S    
C24   C60   A    
C57   C150  S    
C209  O51   S    
H65   N8    S    
H4    N9    S    
C35   C147  S    
C31   C53   A    
C183  O18   A    
C186  O26   A    
C43   C79   S    
C16   C187  A    
C143  C214  S    
C190  C208  A    
C112  C153  S    
C86   H152  S    
O13   Zn7   S    
C133  O90   S    
C44   C90   S    
C119  N5    S    
C51   C142  S    
O45   Zn1   S    
C174  O36   A    
C130  H91   S    
O9    Zn1   S    
C93   H170  S    
O30   Zn12  S    
O18   Zn8   S    
C138  H114  S    
C87   O62   S    
O5    Zn8   S    
C108  H14   S    
C8    C21   A    
O40   Zn4   S    
C129  H86   S    
C129  O85   S    
C133  H102  S    
C165  C175  S    
C39   C63   A    
C11   C22   A    
C166  C176  S    
C89   O64   S    
C151  C160  T    
C159  O78   A    
C5    C10   A    
C17   C224  A    
C178  O11   A    
C58   N9    S    
C196  C213  A    
C92   H168  S    
O28   Zn12  S    
C205  C221  A    
C170  O7    A    
C41   C48   A    
C199  O74   S    
C75   H90   S    
C70   H112  S    
C148  O45   A    
C71   O46   S    
C85   H147  S    
C39   C50   A    
H43   N3    S    
C217  O54   S    
C208  O46   S    
C188  O63   S    
C201  C224  A    
O15   Zn7   S    
C216  O53   S    
C123  H70   S    
C118  H49   S    
H48   N4    S    
