data_mof_unit_32297.cif
_audit_creation_date              2013-03-05T15:46:53-0500
_audit_creation_method            fapswitch 2.2
_symmetry_space_group_name_H-M    P1
_symmetry_Int_Tables_number       1
_space_group_crystal_system       triclinic
_cell_length_a                    14.810271
_cell_length_b                    14.851564
_cell_length_c                    14.878325
_cell_angle_alpha                 109.146682
_cell_angle_beta                  109.824886
_cell_angle_gamma                 109.238998
_cell_volume                      2525.44365187

loop_
_atom_site_label
_atom_site_type_symbol
_atom_site_description
_atom_site_fract_x
_atom_site_fract_y
_atom_site_fract_z
_atom_type_partial_charge
C1    C     C_R   0.193779 0.993941 0.902975 -0.123388
C2    C     C_R   0.747429 0.932424 0.025533 -0.116188
H1    H     H_    0.164957 0.017096 0.841805 0.092425
H2    H     H_    0.756319 0.878561 0.057535 0.109112
N1    N     N_R   0.293810 0.002730 0.945950 -0.038712
N2    N     N_R   0.706190 0.997270 0.054050 -0.043757
C3    C     C_R   0.804571 0.208678 0.300500 -0.128894
C4    C     C_R   0.251760 0.777525 0.685395 -0.121911
H3    H     H_    0.832473 0.175426 0.351865 0.086175
H4    H     H_    0.241659 0.799820 0.622051 0.097174
N3    N     N_R   0.706160 0.152130 0.208910 -0.037740
N4    N     N_R   0.293840 0.847870 0.791090 -0.043018
C5    C     C_R   0.407292 0.973649 0.222273 -0.111538
C6    C     C_R   0.591332 0.095775 0.791290 -0.136397
H5    H     H_    0.321472 0.941032 0.199801 0.098086
H6    H     H_    0.675797 0.156513 0.824670 0.092809
N5    N     N_R   0.443140 0.945920 0.152090 -0.042975
N6    N     N_R   0.556860 0.054080 0.847910 -0.038976
C7    C     C_R   0.589374 0.314956 0.063311 -0.092942
C8    C     C_R   0.410423 0.703905 0.011026 -0.145653
H7    H     H_    0.674615 0.379123 0.116537 0.114312
H8    H     H_    0.325816 0.654590 0.988100 0.092198
N7    N     N_R   0.556830 0.208940 0.002760 -0.045864
N8    N     N_R   0.443170 0.791060 0.997240 -0.041802
C9    C     C_R   0.592138 0.066052 0.314632 -0.124427
C10   C     C_R   0.408047 0.004252 0.699642 -0.136010
H9    H     H_    0.677855 0.119139 0.377818 0.093265
H10   H     H_    0.323226 0.980520 0.648322 0.087283
N9    N     N_R   0.556790 0.002750 0.208910 -0.042766
N10   N     N_R   0.443210 0.997250 0.791090 -0.039212
C11   C     C_R   0.404897 0.220482 0.969897 -0.114942
C12   C     C_R   0.593061 0.794455 0.100348 -0.096996
H11   H     H_    0.318493 0.193000 0.935470 0.117347
H12   H     H_    0.678549 0.829420 0.159088 0.107881
N11   N     N_R   0.443180 0.152110 0.945950 -0.047726
N12   N     N_R   0.556820 0.847890 0.054050 -0.048946
C13   C     C_R   0.804087 0.300341 0.208962 -0.133914
C14   C     C_R   0.252103 0.685449 0.778060 -0.117727
H13   H     H_    0.831207 0.351729 0.175815 0.104580
H14   H     H_    0.242864 0.622662 0.801107 0.096000
N13   N     N_R   0.706170 0.208950 0.152090 -0.039765
N14   N     N_R   0.293830 0.791050 0.847910 -0.042283
C15   C     C_R   0.195314 0.903057 0.994993 -0.124533
C16   C     C_R   0.748088 0.024637 0.933211 -0.114277
H15   H     H_    0.168784 0.841604 0.018064 0.088290
H16   H     H_    0.758573 0.056590 0.879805 0.091890
N15   N     N_R   0.293800 0.945910 0.002760 -0.037057
N16   N     N_R   0.706200 0.054090 0.997240 -0.041031
C17   C     C_R   0.129558 0.930392 0.931389 0.055864
C18   C     C_R   0.772730 0.945947 0.947543 0.041679
C19   C     C_R   0.868560 0.302120 0.302535 0.049608
C20   C     C_R   0.226254 0.674330 0.674704 0.043230
C21   C     C_R   0.499509 0.051192 0.325487 0.046823
C22   C     C_R   0.499484 0.066750 0.697847 0.052162
C23   C     C_R   0.494615 0.324887 0.045963 0.075389
C24   C     C_R   0.503028 0.704932 0.078507 0.091364
Ni1   Ni    Ni4+2 0.369690 0.999990 0.869700 0.216713
Ni2   Ni    Ni4+2 0.630310 0.000010 0.130300 0.218678
Ni3   Ni    Ni4+2 0.369670 0.869670 0.000000 0.216349
Ni4   Ni    Ni4+2 0.630330 0.130330 0.000000 0.227973
H17   H     H_    0.964505 0.129230 0.816483 0.119924
H18   H     H_    0.986550 0.993334 0.492065 0.123038
C25   C     C_R   0.107626 0.228985 0.817307 -0.102332
C26   C     C_R   0.812225 0.903318 0.431235 -0.105287
H19   H     H_    0.062910 0.203589 0.730941 0.110034
H20   H     H_    0.814959 0.963957 0.498521 0.109786
C27   C     C_R   0.220000 0.305909 0.880807 -0.212699
C28   C     C_R   0.712094 0.808341 0.348663 -0.169526
H21   H     H_    0.261055 0.340536 0.842702 0.141475
H22   H     H_    0.638075 0.796186 0.353686 0.139063
C29   C     C_R   0.279092 0.340615 0.993487 -0.071766
C30   C     C_R   0.707301 0.728698 0.260883 -0.072207
C31   C     C_R   0.223426 0.296020 0.042650 0.361697
C32   C     C_R   0.805376 0.746293 0.255946 0.341502
C33   C     C_R   0.109589 0.218888 0.976829 -0.208450
C34   C     C_R   0.905708 0.841879 0.340883 -0.215577
H23   H     H_    0.064498 0.183707 0.011752 0.169707
H24   H     H_    0.981511 0.857330 0.338821 0.157704
C35   C     C_R   0.052290 0.186803 0.865577 -0.170106
C36   C     C_R   0.908931 0.919737 0.427700 -0.158018
C37   C     C_R   0.400958 0.534902 0.075127 -0.243143
C38   C     C_R   0.592942 0.526375 0.165552 -0.136514
H25   H     H_    0.325018 0.537043 0.041689 0.133931
H26   H     H_    0.668159 0.525742 0.207414 0.119962
C39   C     C_R   0.502762 0.626208 0.118724 0.033990
C40   C     C_R   0.491746 0.427923 0.092455 0.101534
C41   C     C_R   0.599895 0.626503 0.179307 0.110322
C42   C     C_R   0.393130 0.434489 0.058662 0.118058
C43   C     C_R   0.036783 0.477149 0.377914 -0.131742
C44   C     C_R   0.129180 0.471244 0.571881 -0.151995
H27   H     H_    0.001988 0.482728 0.304647 0.126031
H28   H     H_    0.162018 0.466863 0.646238 0.108231
C45   C     C_R   0.128573 0.570543 0.471341 -0.142827
C46   C     C_R   0.037319 0.377823 0.478528 -0.152680
H29   H     H_    0.160908 0.644428 0.466485 0.116673
H30   H     H_    0.002881 0.305095 0.484609 0.104486
C47   C     C_R   0.167029 0.570930 0.571563 0.132902
C48   C     C_R   0.984189 0.383809 0.384484 0.133879
C49   C     C_R   0.599228 0.159510 0.622389 -0.158997
C50   C     C_R   0.399110 0.058091 0.428693 -0.142532
H31   H     H_    0.678171 0.197816 0.695507 0.112290
H32   H     H_    0.320299 0.016692 0.354442 0.117007
C51   C     C_R   0.599187 0.157439 0.528737 -0.160111
C52   C     C_R   0.399048 0.060063 0.522303 -0.165409
H33   H     H_    0.678030 0.194252 0.533331 0.110162
H34   H     H_    0.320155 0.019978 0.516555 0.110822
C53   C     C_R   0.499224 0.095609 0.428668 0.143315
C54   C     C_R   0.499198 0.100735 0.616132 0.137734
C55   C     C_R   0.963901 0.838931 0.942739 -0.150683
C56   C     C_R   0.862837 0.929448 0.834201 -0.165737
H35   H     H_    0.002059 0.805221 0.987654 0.125015
H36   H     H_    0.825579 0.965940 0.792537 0.104352
C57   C     C_R   0.871982 0.840828 0.944870 -0.134590
C58   C     C_R   0.954552 0.926625 0.831175 -0.163032
H37   H     H_    0.843224 0.808177 0.990967 0.143145
H38   H     H_    0.985204 0.960405 0.786710 0.117367
C59   C     C_R   0.830020 0.898570 0.902285 0.132645
C60   C     C_R   0.012765 0.893170 0.896391 0.126949
N17   N     N_R   0.278779 0.329803 0.158048 0.233407
O1    O     O_R   0.384554 0.367171 0.212983 -0.402598
O2    O     O_R   0.221798 0.314911 0.207108 -0.397323
N18   N     N_R   0.804027 0.670993 0.164443 0.217394
O3    O     O_R   0.720095 0.619882 0.065452 -0.423318
O4    O     O_R   0.892099 0.663250 0.177540 -0.429628

loop_
_geom_bond_atom_site_label_1
_geom_bond_atom_site_label_2
_geom_bond_distance
_ccdc_geom_bond_type
C49   C51   1.383390 A    
C25   H19   1.082705 S    
C31   N17   1.442489 S    
C18   C59   1.462393 S    
N5    N9    1.375031 A    
C6    N6    1.333912 A    
C7    N7    1.340838 A    
C8    C24   1.389762 A    
C52   H34   1.080434 S    
N1    Ni1   1.848307 S    
C25   C35   1.391364 A    
C3    N3    1.334913 A    
C49   C54   1.402247 A    
N1    N15   1.376382 A    
N8    N12   1.375032 A    
N2    N16   1.376382 A    
C1    N1    1.340140 A    
C26   C28   1.395381 A    
H18   C36   1.082539 S    
C7    H7    1.078435 S    
C9    C21   1.389575 A    
C14   N14   1.333458 A    
N12   Ni2   1.853760 S    
C55   H35   1.079972 S    
C13   C19   1.381394 A    
C40   C42   1.422447 A    
C14   C20   1.389603 A    
C46   C48   1.402063 A    
C16   C18   1.391478 A    
C38   C41   1.396058 A    
N10   Ni1   1.848506 S    
C20   C47   1.461488 S    
C50   C52   1.383760 A    
N2    Ni2   1.848308 S    
N4    N14   1.376502 A    
C2    C18   1.387579 A    
C8    N8    1.334414 A    
C11   H11   1.067969 S    
C44   C46   1.383935 A    
N6    N10   1.375031 A    
C43   H27   1.080310 S    
N3    Ni2   1.853889 S    
C15   N15   1.331011 A    
C56   C58   1.388022 A    
C44   C47   1.401992 A    
C27   C29   1.408152 A    
C55   C57   1.381688 A    
C19   C48   1.461280 S    
C39   C41   1.412687 A    
C45   H29   1.080650 S    
C43   C45   1.383847 A    
C26   C36   1.393875 A    
C2    N2    1.332634 A    
C10   C22   1.381510 A    
C56   C59   1.401569 A    
C37   H25   1.080682 S    
C16   H16   1.078499 S    
C55   C60   1.402443 A    
N16   Ni4   1.840003 S    
C5    C21   1.389442 A    
N17   O2    1.301762 A    
C9    N9    1.333859 A    
N7    Ni4   1.840121 S    
C25   C27   1.392855 A    
C30   C32   1.420672 A    
C29   C31   1.421406 A    
C15   C17   1.377034 A    
C38   C40   1.405007 A    
C28   C30   1.406499 A    
C1    H1    1.080407 S    
C12   H12   1.074676 S    
C2    H2    1.077368 S    
C15   H15   1.079730 S    
C21   C53   1.460753 S    
C44   H28   1.080643 S    
C17   C60   1.462459 S    
C4    N4    1.334638 A    
C50   H32   1.080614 S    
C51   H33   1.080604 S    
C46   H30   1.080434 S    
C33   H23   1.082798 S    
C58   C60   1.400992 A    
C32   C34   1.406994 A    
N5    Ni3   1.850335 S    
C57   C59   1.401300 A    
N4    Ni1   1.853889 S    
N6    Ni4   1.850337 S    
C32   N18   1.439643 S    
C8    H8    1.079025 S    
C10   N10   1.334583 A    
C38   H26   1.081248 S    
C5    H5    1.077823 S    
C6    H6    1.079947 S    
C31   C33   1.408950 A    
N18   O4    1.301434 A    
C45   C47   1.401459 A    
C52   C54   1.402025 A    
C30   C41   1.482573 S    
C7    C23   1.404860 A    
C3    H3    1.080055 S    
C4    C20   1.390935 A    
C50   C53   1.401769 A    
C6    C22   1.380853 A    
C10   H10   1.079994 S    
C34   C36   1.396376 A    
N13   Ni4   1.850390 S    
C34   H24   1.082662 S    
N14   Ni3   1.850393 S    
C58   H38   1.080172 S    
N17   O1    1.300442 A    
C12   N12   1.334500 A    
C5    N5    1.334113 A    
C9    H9    1.077817 S    
N7    N11   1.375031 A    
C22   C54   1.460592 S    
C43   C48   1.402459 A    
N11   Ni1   1.853760 S    
C11   C23   1.386269 A    
C23   C40   1.479998 S    
C3    C19   1.382448 A    
C13   H13   1.079937 S    
C14   H14   1.078568 S    
C24   C39   1.477327 S    
C33   C35   1.396565 A    
H17   C35   1.080977 S    
N8    Ni3   1.840119 S    
C12   C24   1.380457 A    
N3    N13   1.376502 A    
C11   N11   1.326127 A    
C13   N13   1.333567 A    
C56   H36   1.080709 S    
C37   C42   1.387289 A    
N15   Ni3   1.840005 S    
C29   C42   1.478867 S    
N9    Ni2   1.848504 S    
C4    H4    1.077933 S    
C28   H22   1.083478 S    
C51   C53   1.401387 A    
C27   H21   1.083785 S    
N18   O3    1.301374 A    
C1    C17   1.384562 A    
C49   H31   1.080295 S    
C37   C39   1.394679 A    
C16   N16   1.337945 A    
C26   H20   1.082559 S    
C57   H37   1.080334 S    
