data_mof_unit_62507.cif
_audit_creation_date              2012-12-11T16:16:19-0500
_audit_creation_method            fapswitch 2.2
_symmetry_space_group_name_H-M    P1
_symmetry_Int_Tables_number       1
_space_group_crystal_system       triclinic
_cell_length_a                    7.209961
_cell_length_b                    26.161983
_cell_length_c                    28.554312
_cell_angle_alpha                 89.997377
_cell_angle_beta                  90.023595
_cell_angle_gamma                 90.011648
_cell_volume                      5386.11012703

loop_
_atom_site_label
_atom_site_type_symbol
_atom_type_description
_atom_site_fract_x
_atom_site_fract_y
_atom_site_fract_z
_atom_type_partial_charge
O1    O     O_R   0.600980 0.796780 0.202430 -0.525459
O2    O     O_R   0.399020 0.203220 0.797570 -0.529129
O3    O     O_R   0.399020 0.203220 0.702430 -0.525543
O4    O     O_R   0.600980 0.796780 0.297570 -0.528804
O5    O     O_R   0.100980 0.703220 0.297570 -0.519862
O6    O     O_R   0.899020 0.296780 0.702430 -0.528922
O7    O     O_R   0.899020 0.296780 0.797570 -0.518865
O8    O     O_R   0.100980 0.703220 0.202430 -0.529002
O9    O     O_R   0.271240 0.802920 0.297240 -0.506865
O10   O     O_R   0.728760 0.197080 0.702760 -0.511621
O11   O     O_R   0.728760 0.197080 0.797240 -0.506533
O12   O     O_R   0.271240 0.802920 0.202760 -0.511723
O13   O     O_R   0.771240 0.697080 0.202760 -0.508105
O14   O     O_R   0.228760 0.302920 0.797240 -0.517160
O15   O     O_R   0.228760 0.302920 0.702760 -0.508383
O16   O     O_R   0.771240 0.697080 0.297240 -0.515665
C1    C     C_R   0.439884 0.814608 0.313547 0.767245
C2    C     C_R   0.559667 0.183542 0.688179 0.762017
C3    C     C_R   0.560179 0.185417 0.813559 0.767488
C4    C     C_R   0.440293 0.816470 0.188184 0.761856
C5    C     C_R   0.939947 0.684909 0.186727 0.783587
C6    C     C_R   0.059642 0.316243 0.812196 0.780858
C7    C     C_R   0.060000 0.315083 0.686724 0.783330
C8    C     C_R   0.940378 0.683826 0.312263 0.780415
O17   O     O_3   0.434470 0.717290 0.250000 -0.367190
O18   O     O_3   0.565530 0.282710 0.750000 -0.367631
O19   O     O_3   0.934470 0.782710 0.250000 -0.365520
O20   O     O_3   0.065530 0.217290 0.750000 -0.365642
V1    V     V_3+5 0.159620 0.756070 0.250000 1.601495
V2    V     V_3+5 0.840380 0.243930 0.750000 1.603325
V3    V     V_3+5 0.659620 0.743930 0.250000 1.592460
V4    V     V_3+5 0.340380 0.256070 0.750000 1.591260
C9    C     C_R   0.127049 0.626743 0.366377 0.316450
C10   C     C_R   0.886079 0.360437 0.620446 0.324264
C11   C     C_R   0.872627 0.373434 0.866083 0.302908
C12   C     C_R   0.113487 0.639639 0.120383 0.323571
C13   C     C_R   0.615818 0.886535 0.144930 0.331995
C14   C     C_R   0.390348 0.144238 0.882331 0.325363
C15   C     C_R   0.384114 0.113477 0.644911 0.332096
C16   C     C_R   0.610769 0.856328 0.381934 0.327946
C17   C     C_R   0.142661 0.600820 0.409468 0.316531
C18   C     C_R   0.877453 0.398320 0.585197 0.354401
C19   C     C_R   0.857632 0.399562 0.909105 0.304225
C20   C     C_R   0.122075 0.601762 0.085128 0.354326
C21   C     C_R   0.631838 0.920490 0.106621 0.349458
C22   C     C_R   0.378538 0.106411 0.917534 0.346921
C23   C     C_R   0.367984 0.079561 0.606575 0.349390
C24   C     C_R   0.622265 0.894090 0.417203 0.346564
C25   C     C_R   0.983804 0.579266 0.430522 -0.385484
C26   C     C_R   0.032586 0.430017 0.576188 -0.396648
C27   C     C_R   0.016087 0.422181 0.929361 -0.385025
C28   C     C_R   0.967133 0.569910 0.076189 -0.396315
C29   C     C_R   0.481857 0.927149 0.074926 -0.395078
C30   C     C_R   0.528410 0.072304 0.925374 -0.395218
C31   C     C_R   0.517820 0.072972 0.574854 -0.395058
C32   C     C_R   0.471518 0.927821 0.425308 -0.395907
C33   C     C_R   0.810047 0.592210 0.411789 0.525211
C34   C     C_R   0.196843 0.421621 0.601540 0.539161
C35   C     C_R   0.189694 0.410465 0.909711 0.512735
C36   C     C_R   0.803098 0.578217 0.101658 0.539549
C37   C     C_R   0.315319 0.900540 0.083852 0.545141
C38   C     C_R   0.690661 0.078385 0.898485 0.554119
C39   C     C_R   0.684335 0.099608 0.583784 0.545139
C40   C     C_R   0.308673 0.921349 0.398695 0.552416
C41   C     C_R   0.794680 0.627461 0.374925 0.450125
C42   C     C_R   0.205658 0.384296 0.636649 0.511365
C43   C     C_R   0.205297 0.373842 0.874019 0.456220
C44   C     C_R   0.794343 0.615574 0.136744 0.511455
C45   C     C_R   0.300325 0.866493 0.121409 0.492731
C46   C     C_R   0.701242 0.115285 0.863076 0.508044
C47   C     C_R   0.699419 0.133616 0.621364 0.492774
C48   C     C_R   0.298141 0.884404 0.363328 0.507543
C49   C     C_R   0.953155 0.645266 0.351217 -0.436913
C50   C     C_R   0.050273 0.353518 0.647480 -0.461166
C51   C     C_R   0.046778 0.355235 0.850777 -0.433986
C52   C     C_R   0.949550 0.646462 0.147488 -0.460918
C53   C     C_R   0.451572 0.857361 0.151526 -0.460119
C54   C     C_R   0.550436 0.148030 0.853442 -0.461892
C55   C     C_R   0.548306 0.142680 0.651504 -0.459972
C56   C     C_R   0.449763 0.852060 0.353391 -0.462809
N1    N     N_R   0.159254 0.515873 0.477946 -0.243176
N2    N     N_R   0.864879 0.498374 0.533307 -0.213946
N3    N     N_R   0.838129 0.483131 0.978685 -0.225088
N4    N     N_R   0.136650 0.502852 0.032032 -0.216271
N5    N     N_R   0.340606 0.979000 0.011217 -0.204460
N6    N     N_R   0.673246 0.013054 0.982772 -0.213228
N7    N     N_R   0.658919 0.021440 0.510944 -0.204189
N8    N     N_R   0.326493 0.986857 0.482826 -0.214684
N9    N     N_R   0.171200 0.481347 0.512187 -0.247565
N10   N     N_R   0.853118 0.532965 0.499127 -0.213845
N11   N     N_R   0.826312 0.517388 0.013163 -0.242038
N12   N     N_R   0.148455 0.468629 0.997560 -0.227026
N13   N     N_R   0.351205 0.012440 0.976114 -0.207638
N14   N     N_R   0.662604 0.979171 0.017566 -0.214055
N15   N     N_R   0.648364 0.988009 0.475836 -0.208052
N16   N     N_R   0.337070 0.020738 0.517621 -0.214941
C57   C     C_R   0.023804 0.471528 0.540402 0.610438
C58   C     C_R   0.999568 0.542294 0.470391 0.586506
C59   C     C_R   0.975858 0.528405 0.040325 0.607290
C60   C     C_R   0.000003 0.458285 0.969779 0.597822
C61   C     C_R   0.517499 0.031099 0.961668 0.591396
C62   C     C_R   0.495808 0.962091 0.033348 0.587534
C63   C     C_R   0.482214 0.969069 0.461566 0.591957
C64   C     C_R   0.503793 0.038067 0.533251 0.587801
O21   O     O_3   0.281352 0.632479 0.338246 -0.479186
C65   C     C_3   0.313966 0.585560 0.314806 0.186998
H1    H     H_    0.183187 0.565336 0.304812 0.046255
H2    H     H_    0.397491 0.559955 0.337667 0.187065
C66   C     C_3   0.420993 0.595241 0.269740 -0.514091
H3    H     H_    0.553653 0.615061 0.277234 0.248692
H4    H     H_    0.452192 0.558289 0.252317 0.166316
H5    H     H_    0.336340 0.618901 0.245545 0.227539
O22   O     O_3   0.727159 0.332530 0.629569 -0.485537
C67   C     C_3   0.732921 0.285676 0.604826 0.175916
H6    H     H_    0.792404 0.255605 0.627583 0.171721
H7    H     H_    0.818363 0.286806 0.572308 0.064616
C68   C     C_3   0.536131 0.270247 0.591669 -0.630661
H8    H     H_    0.474089 0.299327 0.568073 0.213376
H9    H     H_    0.537670 0.232726 0.573497 0.172980
H10   H     H_    0.449148 0.267156 0.623603 0.224274
O23   O     O_3   0.717718 0.367258 0.838234 -0.480458
C69   C     C_3   0.682360 0.414203 0.815049 0.186777
H11   H     H_    0.811886 0.435077 0.805143 0.047393
H12   H     H_    0.597633 0.439302 0.838079 0.189955
C70   C     C_3   0.575750 0.404417 0.769918 -0.515275
H13   H     H_    0.542845 0.441363 0.752675 0.166598
H14   H     H_    0.661463 0.381201 0.745620 0.228011
H15   H     H_    0.444010 0.384113 0.777286 0.247690
O24   O     O_3   0.272341 0.667605 0.129468 -0.485805
C71   C     C_3   0.266024 0.714515 0.104817 0.175506
H16   H     H_    0.206685 0.744512 0.127662 0.172060
H17   H     H_    0.180142 0.713433 0.072355 0.064738
C72   C     C_3   0.462581 0.730051 0.091578 -0.631009
H18   H     H_    0.524541 0.701042 0.067911 0.213254
H19   H     H_    0.460630 0.767603 0.073458 0.173324
H20   H     H_    0.549916 0.733118 0.123471 0.223967
O25   O     O_3   0.768256 0.880599 0.173995 -0.483641
C73   C     C_3   0.737104 0.906255 0.216981 0.131302
H21   H     H_    0.664549 0.880738 0.241989 0.123237
H22   H     H_    0.652180 0.941638 0.213235 0.045654
C74   C     C_3   0.923177 0.920876 0.238278 -0.534859
H23   H     H_    0.901166 0.939955 0.272568 0.207320
H24   H     H_    0.009399 0.886220 0.243698 0.254613
H25   H     H_    0.998112 0.947445 0.214586 0.181325
O26   O     O_3   0.238435 0.175755 0.875561 -0.489200
C75   C     C_3   0.267641 0.223114 0.898497 0.181775
H26   H     H_    0.326465 0.251115 0.873439 0.162837
H27   H     H_    0.364824 0.220989 0.928853 0.040975
C76   C     C_3   0.082186 0.243388 0.915999 -0.699228
H28   H     H_    0.022501 0.216976 0.942361 0.213495
H29   H     H_    0.101543 0.281498 0.932407 0.144175
H30   H     H_    0.982832 0.246811 0.886473 0.219706
O27   O     O_3   0.231795 0.119363 0.673994 -0.483714
C77   C     C_3   0.263299 0.093744 0.716992 0.130143
H31   H     H_    0.335771 0.119309 0.741985 0.123252
H32   H     H_    0.348459 0.058406 0.713265 0.046258
C78   C     C_3   0.077414 0.079042 0.738304 -0.534026
H33   H     H_    0.099681 0.060029 0.772620 0.207733
H34   H     H_    0.990942 0.113657 0.743671 0.254827
H35   H     H_    0.002617 0.052392 0.714650 0.181378
O28   O     O_3   0.763971 0.825446 0.374662 -0.486063
C79   C     C_3   0.739030 0.778092 0.397900 0.170318
H36   H     H_    0.680097 0.749708 0.373216 0.159996
H37   H     H_    0.643714 0.779942 0.428612 0.046871
C80   C     C_3   0.926785 0.758732 0.414715 -0.694431
H38   H     H_    0.987044 0.785644 0.440580 0.217456
H39   H     H_    0.910691 0.720710 0.431510 0.149846
H40   H     H_    0.024039 0.755413 0.384756 0.219830
O29   O     O_3   0.315298 0.596389 0.429940 -0.464784
C81   C     C_3   0.326829 0.629681 0.469145 0.309179
H41   H     H_    0.426571 0.612956 0.494515 0.180330
H42   H     H_    0.193539 0.634091 0.488555 0.036027
C82   C     C_3   0.398579 0.682328 0.454856 -0.716463
H43   H     H_    0.309190 0.699290 0.427286 0.216526
H44   H     H_    0.398190 0.708129 0.485724 0.147948
H45   H     H_    0.542846 0.679370 0.441781 0.256679
O30   O     O_3   0.709767 0.406725 0.562746 -0.464349
C83   C     C_3   0.714624 0.385247 0.517302 0.145733
H46   H     H_    0.717182 0.342955 0.519028 0.090336
H47   H     H_    0.836903 0.398255 0.496750 0.086776
C84   C     C_3   0.540707 0.401105 0.490917 -0.528019
H48   H     H_    0.535524 0.443388 0.487712 0.276973
H49   H     H_    0.541655 0.384112 0.455286 0.144138
H50   H     H_    0.415448 0.387564 0.509861 0.210844
O31   O     O_3   0.689470 0.399825 0.932229 -0.458853
C85   C     C_3   0.690520 0.358220 0.964031 0.242515
H51   H     H_    0.803931 0.362561 0.990280 0.066244
H52   H     H_    0.708748 0.321208 0.945188 0.083355
C86   C     C_3   0.508139 0.355817 0.990688 -0.551282
H53   H     H_    0.393883 0.344748 0.966735 0.212787
H54   H     H_    0.517771 0.326542 0.018743 0.121713
H55   H     H_    0.477291 0.393432 0.006944 0.270359
O32   O     O_3   0.289727 0.593497 0.062652 -0.464397
C87   C     C_3   0.284702 0.615161 0.017281 0.148212
H56   H     H_    0.281954 0.657440 0.019137 0.089792
H57   H     H_    0.162398 0.602199 0.996684 0.086835
C88   C     C_3   0.458696 0.599469 0.990870 -0.528776
H58   H     H_    0.464044 0.557206 0.987482 0.277946
H59   H     H_    0.457732 0.616648 0.955312 0.144610
H60   H     H_    0.583922 0.612926 0.009905 0.209332
O33   O     O_3   0.802382 0.943010 0.098278 -0.459660
C89   C     C_3   0.806304 0.992258 0.118558 0.206936
H61   H     H_    0.775812 0.991048 0.156591 0.077386
H62   H     H_    0.704353 0.018130 0.101436 0.078621
C90   C     C_3   0.999368 0.014711 0.112385 -0.619196
H63   H     H_    0.037076 0.015301 0.074718 0.257594
H64   H     H_    0.003000 0.054354 0.126237 0.140733
H65   H     H_    0.102511 0.991188 0.131643 0.204050
O34   O     O_3   0.211466 0.100464 0.940831 -0.464789
C91   C     C_3   0.221256 0.124062 0.985298 0.190607
H66   H     H_    0.253430 0.165365 0.982400 0.075458
H67   H     H_    0.328616 0.106048 0.007855 0.079757
C92   C     C_3   0.034232 0.118521 0.009414 -0.631695
H68   H     H_    0.997381 0.077478 0.012525 0.260086
H69   H     H_    0.040246 0.135656 0.044957 0.142006
H70   H     H_    0.925034 0.138185 0.988715 0.203739
O35   O     O_3   0.197440 0.057025 0.598230 -0.459767
C93   C     C_3   0.193466 0.007820 0.618602 0.207749
H71   H     H_    0.225582 0.009013 0.656557 0.076881
H72   H     H_    0.294253 0.981799 0.601263 0.079706
C94   C     C_3   0.999758 0.985618 0.612930 -0.620634
H73   H     H_    0.960481 0.984997 0.575358 0.256529
H74   H     H_    0.995974 0.946011 0.626870 0.141496
H75   H     H_    0.897829 0.009326 0.632383 0.204159
O36   O     O_3   0.789837 0.900430 0.440223 -0.463789
C95   C     C_3   0.782023 0.876917 0.484759 0.189806
H76   H     H_    0.752906 0.835447 0.481958 0.076851
H77   H     H_    0.673535 0.894373 0.507320 0.078911
C96   C     C_3   0.968774 0.883525 0.508817 -0.624726
H78   H     H_    0.002707 0.924767 0.511813 0.261658
H79   H     H_    0.964197 0.866474 0.544409 0.141344
H80   H     H_    0.079199 0.864378 0.488150 0.204199
F1    F     F_    0.654847 0.570137 0.428892 -0.607217
F2    F     F_    0.347980 0.451451 0.593909 -0.576857
F3    F     F_    0.344978 0.434119 0.925285 -0.603621
F4    F     F_    0.652023 0.548317 0.094153 -0.576377
F5    F     F_    0.166689 0.905617 0.055013 -0.565903
F6    F     F_    0.838389 0.046972 0.904952 -0.568390
F7    F     F_    0.832881 0.094589 0.554941 -0.566043
F8    F     F_    0.160193 0.952423 0.405389 -0.568120
F9    F     F_    0.624227 0.643645 0.362320 -0.633688
F10   F     F_    0.366243 0.379915 0.661163 -0.603301
F11   F     F_    0.375681 0.356480 0.862746 -0.632104
F12   F     F_    0.633971 0.619883 0.161326 -0.603424
F13   F     F_    0.137699 0.841043 0.126931 -0.614565
F14   F     F_    0.859120 0.117556 0.837269 -0.617991
F15   F     F_    0.862001 0.159097 0.626886 -0.614666
F16   F     F_    0.139451 0.881734 0.337840 -0.616050

loop_
_geom_bond_atom_site_label_1
_geom_bond_atom_site_label_2
_ccdc_geom_bond_type
O17   V3    S    
C87   H57   S    
N8    N16   A    
O18   V4    S    
C80   H38   S    
C13   C21   A    
O12   V1    S    
O19   V1    S    
C68   H8    S    
O29   C81   S    
C30   C61   S    
C45   C53   A    
C10   C18   A    
C47   F15   S    
C94   H75   S    
C19   C27   A    
C47   C55   A    
O28   C79   S    
O31   C85   S    
C43   C51   A    
C25   C33   A    
O15   V4    S    
C90   H63   S    
C10   O22   S    
C23   O35   S    
C5    C52   S    
O11   C3    A    
C20   O32   S    
C78   H33   S    
C89   H62   S    
C4    C53   S    
C15   O27   S    
O8    V1    S    
C45   F13   S    
C23   C31   A    
N6    N14   A    
C75   H26   S    
C96   H80   S    
C68   H9    S    
C39   F7    S    
C8    C49   S    
C84   H50   S    
C87   C88   S    
C46   C54   A    
N1    C58   A    
C19   O31   S    
C18   O30   S    
C42   C50   A    
C84   H48   S    
O1    V3    S    
C41   C49   A    
C38   C46   A    
O3    C2    A    
O2    V4    S    
O33   C89   S    
C88   H59   S    
C95   C96   S    
C16   C24   A    
C65   C66   S    
C12   C52   A    
C66   H4    S    
C35   C43   A    
C25   C58   S    
N5    N13   A    
C34   C42   A    
C81   H41   S    
C81   H42   S    
C86   H55   S    
C2    C55   S    
C26   C57   S    
C89   C90   S    
C31   C39   A    
C70   H15   S    
C14   C54   A    
C16   C56   A    
C11   C19   A    
C77   H32   S    
O32   C87   S    
O9    V1    S    
O4    V3    S    
N1    N9    A    
C20   C28   A    
O15   C7    A    
C87   H56   S    
C21   C29   A    
O16   C8    A    
O7    V2    S    
C13   O25   S    
C72   H19   S    
N4    C59   A    
O12   C4    A    
C80   H39   S    
C29   C37   A    
C6    C51   S    
C17   C25   A    
C96   H78   S    
N15   C63   A    
O26   C75   S    
C75   H27   S    
C69   H11   S    
C92   H69   S    
O10   C2    A    
C14   C22   A    
C89   H61   S    
C33   C41   A    
C67   C68   S    
C83   H46   S    
C11   O23   S    
C9    O21   S    
O11   V2    S    
C77   C78   S    
C68   H10   S    
N13   C61   A    
C43   F11   S    
C30   C38   A    
O35   C93   S    
C92   H68   S    
C17   O29   S    
C31   C64   S    
C1    C56   S    
C48   C56   A    
N9    C57   A    
C67   H7    S    
O16   V3    S    
C74   H24   S    
C26   C34   A    
C78   H34   S    
C88   H60   S    
C71   H17   S    
C14   O26   S    
C94   H73   S    
C12   O24   S    
C72   H20   S    
C75   C76   S    
O10   V2    S    
C33   F1    S    
C41   F9    S    
C29   C62   S    
C11   C51   A    
C22   C30   A    
C32   C40   A    
O34   C91   S    
O23   C69   S    
O13   C5    A    
O3    V4    S    
C69   C70   S    
C38   F6    S    
O9    C1    A    
C42   F10   S    
C36   F4    S    
N14   C62   A    
C77   H31   S    
C82   H44   S    
C73   H22   S    
C18   C26   A    
O4    C1    A    
C76   H30   S    
C9    C49   A    
O6    V2    S    
C39   C47   A    
C95   H76   S    
C80   H40   S    
C95   H77   S    
N3    C60   A    
N16   C64   A    
C72   H18   S    
N2    C57   A    
C66   H5    S    
C71   C72   S    
C27   C35   A    
C7    C50   S    
C85   H52   S    
O7    C6    A    
O5    V1    S    
N8    C63   A    
N12   C60   A    
C93   C94   S    
C15   C23   A    
O22   C67   S    
O25   C73   S    
C90   H65   S    
C37   C45   A    
C27   C60   S    
C24   C32   A    
C92   H70   S    
N7    N15   A    
C86   H53   S    
O1    C4    A    
O36   C95   S    
O2    C3    A    
C79   C80   S    
O13   V3    S    
C35   F3    S    
C32   C63   S    
O14   V4    S    
C34   F2    S    
C73   C74   S    
O8    C5    A    
C91   C92   S    
C83   H47   S    
C67   H6    S    
C74   H25   S    
C78   H35   S    
C79   H36   S    
C22   O34   S    
N3    N11   A    
O21   C65   S    
C28   C59   S    
C91   H67   S    
N2    N10   A    
C93   H72   S    
C94   H74   S    
C3    C54   S    
C37   F5    S    
O14   C6    A    
C85   C86   S    
C76   H29   S    
C71   H16   S    
O24   C71   S    
C9    C17   A    
C16   O28   S    
C96   H79   S    
C79   H37   S    
C76   H28   S    
C24   O36   S    
C44   C52   A    
C48   F16   S    
C93   H71   S    
C70   H13   S    
O5    C8    A    
C65   H2    S    
C44   F12   S    
O6    C7    A    
O20   V2    S    
C82   H45   S    
N10   C58   A    
C40   C48   A    
C88   H58   S    
C21   O33   S    
C40   F8    S    
C83   C84   S    
C12   C20   A    
C73   H21   S    
O30   C83   S    
C82   H43   S    
N7    C64   A    
C46   F14   S    
C13   C53   A    
C36   C44   A    
C28   C36   A    
C91   H66   S    
C65   H1    S    
C66   H3    S    
C70   H14   S    
C10   C50   A    
N4    N12   A    
N11   C59   A    
C85   H51   S    
C74   H23   S    
C90   H64   S    
C69   H12   S    
N6    C61   A    
N5    C62   A    
C84   H49   S    
C15   C55   A    
C86   H54   S    
O27   C77   S    
C81   C82   S    
