data_mof_unit_58038.cif
_audit_creation_date              2012-10-26T18:27:32-0400
_audit_creation_method            fapswitch 2.2
_symmetry_space_group_name_H-M    P1
_symmetry_Int_Tables_number       1
_space_group_crystal_system       triclinic
_cell_length_a                    10.775475
_cell_length_b                    11.06904
_cell_length_c                    9.947556
_cell_angle_alpha                 111.113326
_cell_angle_beta                  98.872764
_cell_angle_gamma                 91.390727
_cell_volume                      1089.48263198

loop_
_atom_site_label
_atom_site_type_symbol
_atom_type_description
_atom_site_fract_x
_atom_site_fract_y
_atom_site_fract_z
_atom_type_partial_charge
C1    C     C_R   0.494756 0.254833 0.441032 0.566035
C2    C     C_2   0.473900 0.940974 0.505065 -0.053390
C3    C     C_2   0.520363 0.501389 0.081325 0.009466
C4    C     C_R   0.263160 0.500179 0.500376 0.541568
C5    C     C_2   0.504680 0.477388 0.918896 0.157637
C6    C     C_R   0.508941 0.744900 0.559222 0.525619
C7    C     C_R   0.736856 0.498850 0.499291 0.541418
C8    C     C_R   0.153470 0.737881 0.635871 -0.096205
C9    C     C_R   0.100240 0.853961 0.699281 -0.111552
C10   C     C_R   0.970962 0.853650 0.696887 -0.102240
C11   C     C_R   0.894533 0.737214 0.631368 -0.081208
C12   C     C_R   0.077537 0.618349 0.568536 0.018825
C13   C     C_R   0.946731 0.617820 0.566760 0.018175
C14   C     C_3   0.116122 0.256927 0.362575 -0.369734
C15   C     C_2   0.434823 0.351595 0.822841 0.319131
C16   C     C_2   0.622826 0.674860 0.956603 0.358586
C17   C     C_2   0.314784 0.414376 0.073802 0.411616
C18   C     C_3   0.840018 0.252918 0.355648 -0.345335
C19   C     C_3   0.350444 0.880470 0.401107 -0.353253
C20   C     C_2   0.635189 0.141660 0.636969 0.245797
C21   C     C_R   0.129190 0.500174 0.500898 0.032628
C22   C     C_R   0.053612 0.381198 0.431519 0.006977
C23   C     C_R   0.922601 0.380307 0.429672 0.006937
C24   C     C_R   0.870802 0.498862 0.498339 0.028788
C25   C     C_2   0.485737 0.115946 0.410453 -0.098403
C26   C     C_2   0.530095 0.068373 0.514252 0.008078
C27   C     C_2   0.531606 0.882337 0.591793 -0.105128
Cu1   Cu    Cu3+1 0.521920 0.521810 0.644910 1.034543
Cu2   Cu    Cu3+1 0.478080 0.478190 0.355090 0.936559
H1    H     H_    0.425317 0.055656 0.309130 0.077210
H2    H     H_    0.190358 0.243984 0.445860 0.165409
H3    H     H_    0.465241 0.262976 0.835194 0.031723
H4    H     H_    0.596803 0.764224 0.942939 0.109182
H5    H     H_    0.263970 0.332935 0.083376 0.092647
H6    H     H_    0.738800 0.261697 0.360491 0.169280
H7    H     H_    0.847783 0.210822 0.238001 0.119182
H8    H     H_    0.870279 0.183656 0.409295 0.175173
H9    H     H_    0.282548 0.955702 0.409727 0.121021
H10   H     H_    0.367780 0.838118 0.286828 0.161244
H11   H     H_    0.303336 0.803733 0.427635 0.154432
H12   H     H_    0.605570 0.555174 0.152553 0.186992
H13   H     H_    0.637049 0.140580 0.745764 0.079352
H14   H     H_    0.254294 0.743223 0.639598 0.117444
H15   H     H_    0.159514 0.944513 0.749850 0.118197
H16   H     H_    0.929574 0.943984 0.745480 0.124807
H17   H     H_    0.794402 0.742277 0.630991 0.120194
H18   H     H_    0.611132 0.929620 0.677958 0.064672
H19   H     H_    0.051845 0.166997 0.317090 0.121224
H20   H     H_    0.159985 0.263282 0.271238 0.134633
N1    N     N_2   0.445130 0.445430 0.137370 -0.297451
N2    N     N_2   0.554930 0.554500 0.862630 -0.248160
O1    O     O_R   0.511700 0.332330 0.577400 -0.448767
O2    O     O_2   0.716003 0.678159 0.045387 -0.532751
O3    O     O_2   0.257159 0.483440 0.018372 -0.476017
O4    O     O_2   0.721706 0.202458 0.616447 -0.505869
O5    O     O_R   0.474680 0.295500 0.332650 -0.531698
O6    O     O_R   0.338160 0.518420 0.622400 -0.446929
O7    O     O_R   0.301140 0.481590 0.377650 -0.522349
O8    O     O_R   0.525320 0.704500 0.667350 -0.546572
O9    O     O_R   0.488300 0.667670 0.422600 -0.485204
O10   O     O_R   0.698860 0.518410 0.622350 -0.468561
O11   O     O_R   0.661840 0.481580 0.377600 -0.519788
O12   O     O_2   0.336227 0.346377 0.741410 -0.465834

loop_
_geom_bond_atom_site_label_1
_geom_bond_atom_site_label_2
_ccdc_geom_bond_type
C17   N1    S    
C4    O6    A    
C20   H13   S    
C23   C24   A    
Cu2   O9    S    
C7    O11   A    
C2    C27   D    
C19   H9    S    
C16   H4    S    
C11   C13   A    
C18   H6    S    
C6    C27   S    
C16   N2    S    
C14   H2    S    
C8    C12   A    
C20   C26   S    
C10   C11   A    
Cu1   O10   S    
C14   C22   S    
C10   H16   S    
C6    O8    A    
C2    C19   S    
C15   H3    S    
C2    C26   S    
Cu1   O6    S    
C12   C13   A    
C1    C25   S    
C4    C21   S    
Cu1   O1    S    
C19   H10   S    
C20   O4    D    
C17   O3    D    
C8    H14   S    
C21   C22   A    
Cu1   Cu2   S    
Cu2   O5    S    
C3    N1    D    
C9    C10   A    
Cu2   N1    S    
C22   C23   A    
Cu1   N2    S    
C1    O1    A    
C5    C15   S    
C14   H20   S    
C17   H5    S    
C4    O7    A    
C18   C23   S    
C6    O9    A    
Cu2   O7    S    
C8    C9    A    
C19   H11   S    
Cu1   O8    S    
C27   H18   S    
C25   H1    S    
C15   O12   D    
C16   O2    D    
C7    O10   A    
C11   H17   S    
C14   H19   S    
C3    C5    S    
C25   C26   D    
Cu2   O11   S    
C18   H7    S    
C12   C21   A    
C1    O5    A    
C3    H12   S    
C7    C24   S    
C13   C24   A    
C18   H8    S    
C5    N2    D    
C9    H15   S    
