data_mof_unit_9741.cif
_audit_creation_date              2012-12-10T18:10:12-0500
_audit_creation_method            fapswitch 2.2
_symmetry_space_group_name_H-M    P1
_symmetry_Int_Tables_number       1
_space_group_crystal_system       triclinic
_cell_length_a                    18.367314
_cell_length_b                    18.372423
_cell_length_c                    59.716822
_cell_angle_alpha                 90.019416
_cell_angle_beta                  89.950001
_cell_angle_gamma                 89.724209
_cell_volume                      20151.3224227

loop_
_atom_site_label
_atom_site_type_symbol
_atom_type_description
_atom_site_fract_x
_atom_site_fract_y
_atom_site_fract_z
_atom_type_partial_charge
C1    C     C_R   0.499369 0.000021 0.810433 0.901353
C2    C     C_R   0.499689 0.999989 0.189625 0.958016
C3    C     C_R   0.000044 0.500001 0.810355 0.960646
C4    C     C_R   0.000112 0.499918 0.189601 0.909980
C5    C     C_R   0.999593 0.499994 0.310436 0.903731
C6    C     C_R   0.999719 0.499994 0.689629 0.958318
C7    C     C_R   0.500053 0.999994 0.310356 0.961051
C8    C     C_R   0.500116 0.999939 0.689601 0.909153
C9    C     C_R   0.464920 0.046266 0.559033 -0.086982
C10   C     C_R   0.570020 0.970938 0.440547 -0.093636
C11   C     C_R   0.940076 0.545073 0.559288 -0.092406
C12   C     C_R   0.042735 0.465695 0.441293 -0.091154
C13   C     C_R   0.556551 0.950327 0.559103 -0.089243
C14   C     C_R   0.449412 0.026037 0.441086 -0.091178
C15   C     C_R   0.025729 0.443789 0.559127 -0.063682
C16   C     C_R   0.924878 0.526441 0.440897 -0.093703
C17   C     C_R   0.964134 0.545954 0.059044 -0.087030
C18   C     C_R   0.069615 0.471266 0.940555 -0.093655
C19   C     C_R   0.438406 0.045146 0.059327 -0.092462
C20   C     C_R   0.539139 0.965161 0.941207 -0.093018
C21   C     C_R   0.056075 0.450306 0.059092 -0.089209
C22   C     C_R   0.948826 0.525970 0.941077 -0.091011
C23   C     C_R   0.523622 0.943505 0.059074 -0.063765
C24   C     C_R   0.421732 0.026752 0.940937 -0.093336
C25   C     C_R   0.422751 0.096914 0.547253 -0.254243
C26   C     C_R   0.631800 0.946728 0.452096 -0.248557
C27   C     C_R   0.896658 0.594753 0.547545 -0.237736
C28   C     C_R   0.101733 0.437414 0.453294 -0.237745
C29   C     C_R   0.601971 0.902501 0.547299 -0.240161
C30   C     C_R   0.389248 0.051679 0.453154 -0.244456
C31   C     C_R   0.064614 0.390348 0.547334 -0.317551
C32   C     C_R   0.863799 0.552384 0.452487 -0.247746
C33   C     C_R   0.921703 0.596407 0.047272 -0.254291
C34   C     C_R   0.131427 0.447189 0.952113 -0.248549
C35   C     C_R   0.395037 0.094986 0.047628 -0.237648
C36   C     C_R   0.598088 0.936476 0.953141 -0.236947
C37   C     C_R   0.101569 0.402577 0.047277 -0.239981
C38   C     C_R   0.888520 0.551317 0.953137 -0.244701
C39   C     C_R   0.562094 0.889858 0.047241 -0.317402
C40   C     C_R   0.360916 0.052994 0.952596 -0.247986
C41   C     C_R   0.501008 0.999564 0.664914 -0.266197
C42   C     C_R   0.500695 0.999842 0.334977 -0.241711
C43   C     C_R   0.996470 0.499945 0.664999 -0.242873
C44   C     C_R   0.996351 0.499937 0.335173 -0.273787
C45   C     C_R   0.000966 0.499469 0.164915 -0.265883
C46   C     C_R   0.000627 0.499895 0.834974 -0.241955
C47   C     C_R   0.496135 0.999919 0.164993 -0.242661
C48   C     C_R   0.495030 0.000149 0.835157 -0.269797
C49   C     C_R   0.953734 0.533591 0.988342 -0.057415
C50   C     C_R   0.063656 0.456490 0.011627 -0.060070
C51   C     C_R   0.420508 0.028138 0.988397 -0.064014
C52   C     C_R   0.525420 0.945106 0.011871 -0.009728
C53   C     C_R   0.070377 0.466976 0.988029 -0.065474
C54   C     C_R   0.961498 0.543828 0.011764 -0.052548
C55   C     C_R   0.533737 0.955977 0.988456 -0.027719
C56   C     C_R   0.428155 0.038062 0.011971 -0.061704
C57   C     C_R   0.454518 0.033861 0.488344 -0.057529
C58   C     C_R   0.564239 0.956458 0.511632 -0.059804
C59   C     C_R   0.923205 0.528066 0.488347 -0.064027
C60   C     C_R   0.028238 0.445559 0.511932 -0.009332
C61   C     C_R   0.570932 0.966841 0.488026 -0.065489
C62   C     C_R   0.462383 0.044149 0.511758 -0.052723
C63   C     C_R   0.036819 0.456517 0.488532 -0.027355
C64   C     C_R   0.930522 0.538038 0.511926 -0.061595
C65   C     C_R   0.011376 0.499813 0.976398 -0.042695
C66   C     C_R   0.011989 0.499522 0.023482 -0.040388
C67   C     C_R   0.477843 0.992940 0.976640 -0.049503
C68   C     C_R   0.477723 0.992236 0.023706 -0.053212
C69   C     C_R   0.511995 0.999816 0.476398 -0.042636
C70   C     C_R   0.512702 0.999667 0.523482 -0.040348
C71   C     C_R   0.980868 0.493168 0.476655 -0.049647
C72   C     C_R   0.980151 0.492431 0.523714 -0.053340
C73   C     C_R   0.889362 0.552831 0.976499 0.493816
C74   C     C_R   0.104251 0.403534 0.023879 0.476808
C75   C     C_R   0.357973 0.050350 0.975967 0.516918
C76   C     C_R   0.560900 0.887494 0.023541 0.535278
C77   C     C_R   0.133888 0.448239 0.975499 0.513529
C78   C     C_R   0.922477 0.597968 0.023925 0.492333
C79   C     C_R   0.597334 0.934638 0.976510 0.518061
C80   C     C_R   0.390840 0.093299 0.024272 0.478388
C81   C     C_R   0.390186 0.053324 0.476514 0.493682
C82   C     C_R   0.604722 0.903447 0.523899 0.476577
C83   C     C_R   0.860674 0.549895 0.475855 0.516810
C84   C     C_R   0.063798 0.388066 0.523632 0.535411
C85   C     C_R   0.634350 0.947881 0.475481 0.513556
C86   C     C_R   0.423614 0.098491 0.523908 0.492337
C87   C     C_R   0.100687 0.435543 0.476664 0.517898
C88   C     C_R   0.892787 0.593088 0.524185 0.478421
C89   C     C_R   0.640109 0.859923 0.749981 0.879185
C90   C     C_R   0.359661 0.140376 0.250016 0.943222
C91   C     C_R   0.140390 0.640384 0.749999 0.932424
C92   C     C_R   0.859767 0.359835 0.250018 0.913094
C93   C     C_R   0.359941 0.140084 0.750003 0.869361
C94   C     C_R   0.640369 0.859621 0.250000 0.943101
C95   C     C_R   0.859675 0.359527 0.750039 0.936682
C96   C     C_R   0.140219 0.640193 0.250011 0.911614
C97   C     C_R   0.640419 0.140357 0.249987 0.932164
C98   C     C_R   0.359767 0.859833 0.750017 0.913330
C99   C     C_R   0.140093 0.359888 0.249986 0.885776
C100  C     C_R   0.859590 0.640323 0.749987 0.943815
C101  C     C_R   0.359712 0.859484 0.250057 0.936400
C102  C     C_R   0.640237 0.140181 0.750014 0.913432
C103  C     C_R   0.859942 0.640085 0.250003 0.869570
C104  C     C_R   0.140359 0.359612 0.750004 0.942838
C105  C     C_R   0.765602 0.180340 0.741274 0.325471
C106  C     C_R   0.236786 0.815448 0.261333 0.329398
C107  C     C_R   0.792932 0.740483 0.730770 0.328695
C108  C     C_R   0.209818 0.264461 0.269706 0.320553
C109  C     C_R   0.234640 0.819372 0.741116 0.324562
C110  C     C_R   0.763603 0.184127 0.261103 0.332223
C111  C     C_R   0.208450 0.260617 0.730602 0.328196
C112  C     C_R   0.787391 0.732897 0.269994 0.347190
C113  C     C_R   0.739242 0.791577 0.269425 0.328474
C114  C     C_R   0.267215 0.212567 0.730022 0.346908
C115  C     C_R   0.819281 0.234714 0.258968 0.325952
C116  C     C_R   0.184137 0.763602 0.738930 0.329161
C117  C     C_R   0.258958 0.206643 0.269178 0.332359
C118  C     C_R   0.735096 0.789638 0.730298 0.320647
C119  C     C_R   0.180946 0.765053 0.259120 0.324125
C120  C     C_R   0.816307 0.235956 0.739166 0.328731
C121  C     C_R   0.265710 0.680225 0.241358 0.325657
C122  C     C_R   0.736635 0.315624 0.761245 0.329078
C123  C     C_R   0.293799 0.241285 0.230935 0.328195
C124  C     C_R   0.711749 0.766313 0.769935 0.346232
C125  C     C_R   0.734727 0.319276 0.241061 0.324143
C126  C     C_R   0.263551 0.684170 0.761117 0.331297
C127  C     C_R   0.708641 0.760801 0.230570 0.328237
C128  C     C_R   0.287516 0.233017 0.769988 0.347306
C129  C     C_R   0.239341 0.291672 0.769415 0.328644
C130  C     C_R   0.767419 0.712757 0.229999 0.346807
C131  C     C_R   0.319242 0.734746 0.758977 0.325784
C132  C     C_R   0.684305 0.263449 0.238845 0.329442
C133  C     C_R   0.759845 0.707607 0.769290 0.326790
C134  C     C_R   0.236050 0.290505 0.230411 0.320142
C135  C     C_R   0.680867 0.265123 0.759076 0.323867
C136  C     C_R   0.316434 0.735790 0.239248 0.332685
C137  C     C_R   0.803660 0.303141 0.750146 -0.377002
C138  C     C_R   0.196279 0.695869 0.250137 -0.358135
C139  C     C_R   0.696441 0.804577 0.750086 -0.366061
C140  C     C_R   0.303485 0.196714 0.250045 -0.383966
C141  C     C_R   0.196571 0.696609 0.750019 -0.378518
C142  C     C_R   0.803899 0.303941 0.250024 -0.357885
C143  C     C_R   0.304152 0.195961 0.750006 -0.376359
C144  C     C_R   0.696696 0.803346 0.250000 -0.389128
C145  C     C_R   0.804174 0.695982 0.250000 -0.376417
C146  C     C_R   0.196664 0.303314 0.750009 -0.389410
C147  C     C_R   0.696650 0.196535 0.249985 -0.379002
C148  C     C_R   0.303861 0.803973 0.750039 -0.356920
C149  C     C_R   0.196117 0.304223 0.250043 -0.358100
C150  C     C_R   0.803385 0.696667 0.750000 -0.385961
C151  C     C_R   0.303765 0.803023 0.250201 -0.378866
C152  C     C_R   0.696239 0.195922 0.750103 -0.355337
C153  C     C_R   0.463928 0.044025 0.582521 0.637003
C154  C     C_R   0.567307 0.970452 0.417012 0.636506
C155  C     C_R   0.943991 0.546547 0.582785 0.635199
C156  C     C_R   0.043334 0.467541 0.417801 0.637212
C157  C     C_R   0.553944 0.949957 0.582644 0.635763
C158  C     C_R   0.449113 0.024882 0.417579 0.636359
C159  C     C_R   0.027485 0.446714 0.582657 0.633986
C160  C     C_R   0.928408 0.528636 0.417387 0.638907
C161  C     C_R   0.963264 0.543753 0.082534 0.637170
C162  C     C_R   0.066975 0.470842 0.917020 0.636612
C163  C     C_R   0.442675 0.046666 0.082821 0.635196
C164  C     C_R   0.539548 0.967132 0.917717 0.637173
C165  C     C_R   0.053563 0.449953 0.082632 0.635856
C166  C     C_R   0.948612 0.524905 0.917569 0.636186
C167  C     C_R   0.525760 0.946500 0.082602 0.633957
C168  C     C_R   0.425135 0.029177 0.917420 0.637705
C169  C     C_R   0.460421 0.948490 0.629366 0.256436
C170  C     C_R   0.471071 0.941153 0.370387 0.276652
C171  C     C_R   0.045503 0.537739 0.628916 0.274481
C172  C     C_R   0.948416 0.449541 0.370011 0.264042
C173  C     C_R   0.550120 0.045706 0.629737 0.263406
C174  C     C_R   0.538230 0.055247 0.370172 0.273259
C175  C     C_R   0.937309 0.461671 0.630453 0.273894
C176  C     C_R   0.033213 0.550971 0.371157 0.262292
C177  C     C_R   0.960150 0.448409 0.129391 0.256964
C178  C     C_R   0.970833 0.441309 0.870385 0.276353
C179  C     C_R   0.544712 0.037640 0.128838 0.274507
C180  C     C_R   0.444413 0.951080 0.869820 0.264829
C181  C     C_R   0.049892 0.545586 0.129712 0.263364
C182  C     C_R   0.037898 0.555462 0.870171 0.273311
C183  C     C_R   0.436432 0.961738 0.130518 0.273705
C184  C     C_R   0.531097 0.050880 0.871257 0.265544
C185  C     C_R   0.457488 0.949772 0.652883 0.169994
C186  C     C_R   0.468263 0.942141 0.346872 0.165484
C187  C     C_R   0.049262 0.537697 0.652421 0.169186
C188  C     C_R   0.950733 0.450009 0.346502 0.167759
C189  C     C_R   0.547090 0.047933 0.653221 0.168777
C190  C     C_R   0.535720 0.056463 0.346669 0.167102
C191  C     C_R   0.940010 0.462458 0.653949 0.167763
C192  C     C_R   0.038006 0.550266 0.347671 0.174959
C193  C     C_R   0.957363 0.449685 0.152909 0.169814
C194  C     C_R   0.968126 0.442232 0.846869 0.165396
C195  C     C_R   0.548798 0.037594 0.152341 0.169427
C196  C     C_R   0.447745 0.951402 0.846314 0.173759
C197  C     C_R   0.047017 0.547803 0.153197 0.167884
C198  C     C_R   0.035521 0.556596 0.846666 0.166056
C199  C     C_R   0.439478 0.962499 0.154013 0.167669
C200  C     C_R   0.536998 0.049812 0.847793 0.178785
C201  C     C_R   0.506773 0.996227 0.617865 0.061062
C202  C     C_R   0.506062 0.997608 0.381993 0.058850
C203  C     C_R   0.989853 0.499412 0.617982 0.059945
C204  C     C_R   0.989044 0.500296 0.382286 0.055029
C205  C     C_R   0.006438 0.496139 0.117865 0.060301
C206  C     C_R   0.005731 0.497822 0.881991 0.058902
C207  C     C_R   0.488845 0.999409 0.117974 0.060075
C208  C     C_R   0.485629 0.001005 0.882247 0.055897
C209  C     C_R   0.511414 0.998711 0.547199 -0.062083
C210  C     C_R   0.510503 0.998937 0.452683 -0.060970
C211  C     C_R   0.981878 0.493685 0.547368 -0.059007
C212  C     C_R   0.982774 0.495044 0.452952 -0.061208
C213  C     C_R   0.010753 0.498552 0.047199 -0.062127
C214  C     C_R   0.009969 0.499030 0.952682 -0.060992
C215  C     C_R   0.479805 0.993547 0.047360 -0.058993
C216  C     C_R   0.479508 0.994878 0.952932 -0.060930
H1    H     H_    0.390626 0.137385 0.556077 0.205233
H2    H     H_    0.679912 0.929229 0.443023 0.209476
H3    H     H_    0.866089 0.636366 0.556396 0.211167
H4    H     H_    0.150277 0.418672 0.444682 0.210284
H5    H     H_    0.634875 0.862739 0.556139 0.211700
H6    H     H_    0.340106 0.068829 0.444585 0.211567
H7    H     H_    0.094765 0.350748 0.556947 0.193364
H8    H     H_    0.816631 0.572328 0.443447 0.209998
H9    H     H_    0.889415 0.636739 0.056101 0.205197
H10   H     H_    0.179616 0.429854 0.943049 0.209447
H11   H     H_    0.364782 0.136755 0.056511 0.211177
H12   H     H_    0.646429 0.917468 0.944476 0.210444
H13   H     H_    0.134573 0.362876 0.056108 0.211757
H14   H     H_    0.839337 0.568300 0.944559 0.211586
H15   H     H_    0.592226 0.850163 0.056822 0.193332
H16   H     H_    0.313791 0.073278 0.943606 0.210014
N1    N     N_R   0.508018 0.996353 0.593800 -0.315003
N2    N     N_R   0.507494 0.997348 0.406067 -0.317060
N3    N     N_R   0.987271 0.497790 0.593928 -0.317949
N4    N     N_R   0.986900 0.499064 0.406362 -0.315550
N5    N     N_R   0.007560 0.496239 0.093800 -0.314906
N6    N     N_R   0.007113 0.497584 0.906066 -0.317011
N7    N     N_R   0.485926 0.997768 0.093919 -0.317892
N8    N     N_R   0.483332 0.999270 0.906329 -0.316368
O1    O     O_3   0.500000 1.000000 0.750000 -0.528613
O2    O     O_3   0.500000 1.000000 0.250000 -0.510821
O3    O     O_3   1.000000 0.500000 0.750000 -0.510608
O4    O     O_3   1.000000 0.500000 0.250000 -0.527624
O5    O     O_R   0.500000 0.060550 0.799700 -0.608778
O6    O     O_R   0.500000 0.939450 0.200300 -0.627414
O7    O     O_R   0.939450 0.500000 0.799700 -0.627447
O8    O     O_R   0.060550 0.500000 0.200300 -0.620957
O9    O     O_R   0.500000 0.939450 0.799700 -0.607888
O10   O     O_R   0.500000 0.060550 0.200300 -0.625758
O11   O     O_R   0.060550 0.500000 0.799700 -0.628978
O12   O     O_R   0.939450 0.500000 0.200300 -0.604795
O13   O     O_R   1.000000 0.560550 0.299700 -0.604952
O14   O     O_R   0.000000 0.439450 0.700300 -0.627367
O15   O     O_R   0.439450 1.000000 0.299700 -0.626663
O16   O     O_R   0.560550 1.000000 0.700300 -0.619844
O17   O     O_R   0.000000 0.439450 0.299700 -0.618385
O18   O     O_R   0.000000 0.560550 0.700300 -0.626147
O19   O     O_R   0.560550 1.000000 0.299700 -0.629391
O20   O     O_R   0.439450 1.000000 0.700300 -0.604873
O21   O     O_R   0.585450 0.853690 0.762850 -0.628484
O22   O     O_R   0.414550 0.146310 0.237150 -0.637576
O23   O     O_R   0.146310 0.585450 0.762850 -0.628075
O24   O     O_R   0.853690 0.414550 0.237150 -0.595757
O25   O     O_R   0.414550 0.146310 0.762850 -0.625925
O26   O     O_R   0.585450 0.853690 0.237150 -0.639146
O27   O     O_R   0.853690 0.414550 0.762850 -0.627887
O28   O     O_R   0.146310 0.585450 0.237150 -0.597281
O29   O     O_R   0.585450 0.146310 0.237150 -0.627290
O30   O     O_R   0.414550 0.853690 0.762850 -0.595297
O31   O     O_R   0.146310 0.414550 0.237150 -0.621891
O32   O     O_R   0.853690 0.585450 0.762850 -0.638221
O33   O     O_R   0.414550 0.853690 0.237150 -0.626706
O34   O     O_R   0.585450 0.146310 0.762850 -0.597030
O35   O     O_R   0.853690 0.585450 0.237150 -0.626443
O36   O     O_R   0.146310 0.414550 0.762850 -0.639357
O37   O     O_R   0.085450 0.353690 0.262850 -0.622952
O38   O     O_R   0.914550 0.646310 0.737150 -0.638670
O39   O     O_R   0.646310 0.085450 0.262850 -0.628161
O40   O     O_R   0.353690 0.914550 0.737150 -0.596092
O41   O     O_R   0.914550 0.646310 0.262850 -0.625681
O42   O     O_R   0.085450 0.353690 0.737150 -0.639029
O43   O     O_R   0.353690 0.914550 0.262850 -0.627638
O44   O     O_R   0.646310 0.085450 0.737150 -0.595999
O45   O     O_R   0.085450 0.646310 0.737150 -0.627580
O46   O     O_R   0.914550 0.353690 0.262850 -0.596045
O47   O     O_R   0.646310 0.914550 0.737150 -0.619796
O48   O     O_R   0.353690 0.085450 0.262850 -0.638937
O49   O     O_R   0.914550 0.353690 0.737150 -0.626427
O50   O     O_R   0.085450 0.646310 0.262850 -0.596182
O51   O     O_R   0.353690 0.085450 0.737150 -0.626357
O52   O     O_R   0.646310 0.914550 0.262850 -0.639439
O53   O     O_2   0.419446 0.089198 0.594042 -0.534116
O54   O     O_2   0.623932 0.943597 0.405149 -0.530865
O55   O     O_2   0.904933 0.596155 0.594425 -0.526417
O56   O     O_2   0.099840 0.438161 0.406439 -0.537265
O57   O     O_2   0.596908 0.903823 0.594301 -0.539282
O58   O     O_2   0.391057 0.051121 0.406277 -0.528272
O59   O     O_2   0.068916 0.398926 0.594221 -0.534297
O60   O     O_2   0.873853 0.559771 0.405624 -0.529374
O61   O     O_2   0.918699 0.588808 0.094067 -0.533989
O62   O     O_2   0.123714 0.444188 0.905166 -0.530784
O63   O     O_2   0.403983 0.096457 0.094501 -0.526435
O64   O     O_2   0.595713 0.937314 0.906304 -0.528626
O65   O     O_2   0.096699 0.403950 0.094278 -0.540123
O66   O     O_2   0.890514 0.551006 0.906258 -0.529002
O67   O     O_2   0.567181 0.898582 0.094118 -0.534305
O68   O     O_2   0.370782 0.060915 0.905721 -0.529873
Zn1   Zn    Zn3+2 0.586770 0.000000 0.731050 1.000672
Zn2   Zn    Zn3+2 0.413230 0.000000 0.268950 0.998819
Zn3   Zn    Zn3+2 1.000000 0.586770 0.731050 0.997483
Zn4   Zn    Zn3+2 0.000000 0.413230 0.268950 0.998682
Zn5   Zn    Zn3+2 0.413230 0.000000 0.731050 1.005004
Zn6   Zn    Zn3+2 0.586770 0.000000 0.268950 0.995017
Zn7   Zn    Zn3+2 0.000000 0.413230 0.731050 0.996885
Zn8   Zn    Zn3+2 0.000000 0.586770 0.268950 1.004007
Zn9   Zn    Zn3+2 0.086770 0.500000 0.231050 0.999072
Zn10  Zn    Zn3+2 0.913230 0.500000 0.768950 0.997848
Zn11  Zn    Zn3+2 0.500000 0.086770 0.231050 0.998339
Zn12  Zn    Zn3+2 0.500000 0.913230 0.768950 1.003261
Zn13  Zn    Zn3+2 0.913230 0.500000 0.231050 1.005187
Zn14  Zn    Zn3+2 0.086770 0.500000 0.768950 0.994961
Zn15  Zn    Zn3+2 0.500000 0.913230 0.231050 0.996755
Zn16  Zn    Zn3+2 0.500000 0.086770 0.768950 1.002514
O69   O     O_3   0.782776 0.111765 0.733208 -0.596799
C217  C     C_3   0.818517 0.072244 0.750265 0.137490
H17   H     H_    0.782489 0.066515 0.765199 0.117326
H18   H     H_    0.869986 0.099727 0.755276 0.161193
C218  C     C_3   0.837197 0.996417 0.741414 -0.323911
H19   H     H_    0.786388 0.968613 0.736179 0.257717
H20   H     H_    0.873301 0.001558 0.726554 0.230801
C219  C     C_3   0.875466 0.950292 0.759128 -0.992417
H21   H     H_    0.927921 0.975628 0.763982 0.273305
H22   H     H_    0.886667 0.895189 0.752301 0.263606
H23   H     H_    0.840470 0.944672 0.774180 0.262240
O70   O     O_3   0.222675 0.879206 0.272989 -0.616106
C220  C     C_3   0.245081 0.871035 0.295588 0.155021
H24   H     H_    0.260922 0.925729 0.301755 0.173997
H25   H     H_    0.294255 0.835623 0.297529 0.156120
C221  C     C_3   0.182973 0.842405 0.310282 -0.383549
H26   H     H_    0.132273 0.873638 0.306799 0.249384
H27   H     H_    0.173168 0.784162 0.306411 0.273279
C222  C     C_3   0.201397 0.848738 0.335118 -0.807918
H28   H     H_    0.251219 0.816672 0.339013 0.303785
H29   H     H_    0.155626 0.827197 0.345264 0.288986
H30   H     H_    0.210278 0.906562 0.339768 0.258427
O71   O     O_3   0.833106 0.729698 0.711370 -0.603923
C223  C     C_3   0.895352 0.775199 0.711410 0.195478
H31   H     H_    0.939903 0.744522 0.703011 0.178581
H32   H     H_    0.915591 0.788535 0.728551 0.115277
C224  C     C_3   0.881501 0.845340 0.698189 -0.346814
H33   H     H_    0.857462 0.831939 0.681626 0.256196
H34   H     H_    0.842799 0.880524 0.707493 0.251526
C225  C     C_3   0.951784 0.887821 0.694670 -0.980963
H35   H     H_    0.977757 0.900314 0.711019 0.276406
H36   H     H_    0.939511 0.939858 0.685972 0.278825
H37   H     H_    0.990193 0.855782 0.684182 0.274181
O72   O     O_3   0.172010 0.278796 0.289282 -0.609783
C226  C     C_3   0.207860 0.334575 0.301140 0.126208
H38   H     H_    0.209858 0.385453 0.291011 0.107058
H39   H     H_    0.264373 0.317544 0.305579 0.161762
C227  C     C_3   0.165647 0.350081 0.322706 -0.334700
H40   H     H_    0.107807 0.361820 0.318598 0.258936
H41   H     H_    0.167434 0.301176 0.333651 0.238431
C228  C     C_3   0.197115 0.414897 0.335335 -0.869391
H42   H     H_    0.254629 0.403930 0.340029 0.273983
H43   H     H_    0.165007 0.424646 0.350828 0.295218
H44   H     H_    0.194445 0.464644 0.324796 0.268704
O73   O     O_3   0.217566 0.887826 0.732955 -0.596165
C229  C     C_3   0.180685 0.927260 0.749830 0.138660
H45   H     H_    0.215701 0.932954 0.764975 0.119362
H46   H     H_    0.128912 0.899722 0.754520 0.161694
C230  C     C_3   0.162576 0.003121 0.740920 -0.324885
H47   H     H_    0.213752 0.031110 0.736117 0.255547
H48   H     H_    0.127824 0.998024 0.725775 0.232157
C231  C     C_3   0.122611 0.048982 0.758375 -0.993535
H49   H     H_    0.069798 0.023473 0.762777 0.273591
H50   H     H_    0.111883 0.104125 0.751522 0.263953
H51   H     H_    0.156221 0.054541 0.773708 0.262903
O74   O     O_3   0.778068 0.119941 0.272476 -0.614031
C232  C     C_3   0.756023 0.127064 0.295156 0.160261
H52   H     H_    0.738916 0.072341 0.300971 0.173391
H53   H     H_    0.707780 0.163564 0.297441 0.156001
C233  C     C_3   0.818990 0.153001 0.309936 -0.386289
H54   H     H_    0.868561 0.120070 0.306348 0.246888
H55   H     H_    0.830877 0.210968 0.306263 0.277116
C234  C     C_3   0.800126 0.146536 0.334749 -0.807529
H56   H     H_    0.751565 0.180400 0.338751 0.305849
H57   H     H_    0.846634 0.165898 0.344977 0.286235
H58   H     H_    0.788901 0.088975 0.339202 0.257854
O75   O     O_3   0.168787 0.271888 0.711159 -0.610119
C235  C     C_3   0.107035 0.225758 0.710870 0.185259
H59   H     H_    0.062771 0.255823 0.702154 0.177293
H60   H     H_    0.085762 0.212529 0.727908 0.119020
C236  C     C_3   0.122564 0.155517 0.697853 -0.340118
H61   H     H_    0.147221 0.168912 0.681366 0.257275
H62   H     H_    0.161335 0.121129 0.707392 0.250971
C237  C     C_3   0.053075 0.111962 0.694125 -0.983635
H63   H     H_    0.026553 0.099338 0.710391 0.275643
H64   H     H_    0.066494 0.059977 0.685538 0.280082
H65   H     H_    0.014666 0.143279 0.683461 0.273874
O76   O     O_3   0.821400 0.715342 0.290004 -0.609311
C238  C     C_3   0.789694 0.652187 0.299393 0.132021
H66   H     H_    0.832306 0.624653 0.309570 0.179358
H67   H     H_    0.771778 0.611709 0.286634 0.087946
C239  C     C_3   0.725936 0.672633 0.314738 -0.344088
H68   H     H_    0.743799 0.714643 0.326929 0.259185
H69   H     H_    0.680719 0.695567 0.304560 0.238788
C240  C     C_3   0.698030 0.606445 0.327507 -0.879085
H70   H     H_    0.679308 0.563909 0.315643 0.256010
H71   H     H_    0.651493 0.622840 0.338295 0.285925
H72   H     H_    0.741706 0.583530 0.338304 0.284193
O77   O     O_3   0.727714 0.831148 0.288890 -0.609469
C241  C     C_3   0.773625 0.893056 0.289231 0.185209
H73   H     H_    0.743150 0.937315 0.297840 0.177720
H74   H     H_    0.787282 0.914165 0.272209 0.118302
C242  C     C_3   0.843550 0.877958 0.302427 -0.340108
H75   H     H_    0.829741 0.853619 0.318922 0.258007
H76   H     H_    0.878301 0.839071 0.293029 0.251406
C243  C     C_3   0.886831 0.947631 0.306144 -0.978877
H77   H     H_    0.900034 0.973712 0.289861 0.275265
H78   H     H_    0.938524 0.934556 0.314928 0.280611
H79   H     H_    0.855033 0.986299 0.316615 0.273515
O78   O     O_3   0.284834 0.178488 0.710008 -0.610420
C244  C     C_3   0.348116 0.210046 0.700632 0.134281
H80   H     H_    0.375544 0.167424 0.690409 0.180735
H81   H     H_    0.388641 0.227747 0.713398 0.088894
C245  C     C_3   0.327895 0.273941 0.685352 -0.347781
H82   H     H_    0.285895 0.256266 0.673138 0.258212
H83   H     H_    0.305005 0.319128 0.695574 0.237807
C246  C     C_3   0.394241 0.301763 0.672621 -0.878880
H84   H     H_    0.436764 0.320315 0.684508 0.257670
H85   H     H_    0.378011 0.348384 0.661872 0.283733
H86   H     H_    0.417133 0.258109 0.661789 0.285411
O79   O     O_3   0.887789 0.217302 0.267013 -0.595005
C247  C     C_3   0.928297 0.184515 0.249588 0.140777
H87   H     H_    0.933658 0.222468 0.235113 0.120233
H88   H     H_    0.901801 0.133264 0.243901 0.155913
C248  C     C_3   0.004301 0.166085 0.258316 -0.321580
H89   H     H_    0.030262 0.216281 0.264843 0.263026
H90   H     H_    0.999672 0.126357 0.272275 0.227811
C249  C     C_3   0.052382 0.133751 0.239956 -0.988705
H91   H     H_    0.028757 0.082060 0.233697 0.274444
H92   H     H_    0.107424 0.122305 0.246778 0.261305
H93   H     H_    0.057843 0.172683 0.225841 0.257962
O80   O     O_3   0.120217 0.777806 0.727389 -0.616836
C250  C     C_3   0.128262 0.756165 0.704704 0.160936
H94   H     H_    0.073729 0.739340 0.698653 0.175917
H95   H     H_    0.164685 0.707833 0.702501 0.154687
C251  C     C_3   0.155092 0.819292 0.690118 -0.387308
H96   H     H_    0.122728 0.869126 0.693825 0.247351
H97   H     H_    0.213181 0.830367 0.693867 0.274789
C252  C     C_3   0.148702 0.801399 0.665243 -0.807256
H98   H     H_    0.182466 0.752918 0.661093 0.306602
H99   H     H_    0.168301 0.848209 0.655185 0.283546
H100  H     H_    0.091119 0.790552 0.660719 0.260044
O81   O     O_3   0.268926 0.165831 0.288473 -0.601750
C253  C     C_3   0.223582 0.103490 0.288045 0.196983
H101  H     H_    0.254496 0.058435 0.296066 0.178971
H102  H     H_    0.210001 0.084439 0.270790 0.113559
C254  C     C_3   0.153633 0.116202 0.301502 -0.347033
H103  H     H_    0.167267 0.139166 0.318194 0.255849
H104  H     H_    0.118149 0.155398 0.292540 0.251998
C255  C     C_3   0.111438 0.045573 0.304642 -0.977704
H105  H     H_    0.098851 0.020563 0.288155 0.276148
H106  H     H_    0.059443 0.057109 0.313489 0.278651
H107  H     H_    0.143748 0.006668 0.314850 0.273811
O82   O     O_3   0.719240 0.826072 0.710610 -0.608542
C256  C     C_3   0.665864 0.786732 0.698768 0.122275
H108  H     H_    0.615105 0.781838 0.708891 0.106911
H109  H     H_    0.686392 0.731313 0.694394 0.167854
C257  C     C_3   0.647914 0.827561 0.677160 -0.336660
H110  H     H_    0.629009 0.883492 0.681299 0.250884
H111  H     H_    0.697812 0.831819 0.666702 0.241918
C258  C     C_3   0.588736 0.789023 0.663807 -0.859036
H112  H     H_    0.607399 0.733748 0.658824 0.272952
H113  H     H_    0.576214 0.820768 0.648449 0.295791
H114  H     H_    0.538284 0.784398 0.673960 0.274259
O83   O     O_3   0.112536 0.782128 0.267366 -0.594543
C259  C     C_3   0.073124 0.819410 0.250598 0.139801
H115  H     H_    0.067352 0.784728 0.235374 0.119939
H116  H     H_    0.100752 0.871215 0.246013 0.161629
C260  C     C_3   0.997276 0.837466 0.259582 -0.323654
H117  H     H_    0.969159 0.786257 0.264262 0.256226
H118  H     H_    0.002428 0.871843 0.274816 0.232364
C261  C     C_3   0.951519 0.877926 0.242240 -0.994616
H119  H     H_    0.977146 0.930788 0.237973 0.274642
H120  H     H_    0.896370 0.888589 0.249127 0.263903
H121  H     H_    0.945917 0.844697 0.226820 0.263095
O84   O     O_3   0.880615 0.221414 0.727830 -0.617139
C262  C     C_3   0.873406 0.242539 0.705084 0.164797
H122  H     H_    0.927876 0.260541 0.699278 0.175403
H123  H     H_    0.835930 0.289893 0.702628 0.159002
C263  C     C_3   0.848901 0.178615 0.690451 -0.388338
H124  H     H_    0.882401 0.129675 0.694303 0.245260
H125  H     H_    0.790973 0.166053 0.693994 0.276466
C264  C     C_3   0.855891 0.196563 0.665592 -0.812171
H126  H     H_    0.821178 0.244234 0.661314 0.308342
H127  H     H_    0.837847 0.149254 0.655477 0.282759
H128  H     H_    0.913367 0.208790 0.661260 0.257756
O85   O     O_3   0.283176 0.611572 0.233424 -0.597193
C265  C     C_3   0.315270 0.571182 0.250966 0.140343
H129  H     H_    0.276761 0.566001 0.265323 0.118094
H130  H     H_    0.366364 0.597641 0.256801 0.156448
C266  C     C_3   0.333904 0.495102 0.242318 -0.322978
H131  H     H_    0.283901 0.469204 0.235632 0.262407
H132  H     H_    0.374185 0.499570 0.228488 0.227648
C267  C     C_3   0.365447 0.447066 0.260785 -0.988628
H133  H     H_    0.416944 0.470629 0.267214 0.274812
H134  H     H_    0.377070 0.391986 0.254001 0.261337
H135  H     H_    0.325948 0.441739 0.274772 0.256925
O86   O     O_3   0.722322 0.379659 0.772735 -0.616257
C268  C     C_3   0.744418 0.372132 0.795384 0.157971
H136  H     H_    0.760944 0.426865 0.801345 0.173883
H137  H     H_    0.793068 0.336116 0.797531 0.155342
C269  C     C_3   0.681740 0.345054 0.810120 -0.384315
H138  H     H_    0.631579 0.376967 0.806479 0.247921
H139  H     H_    0.671049 0.286838 0.806448 0.273847
C270  C     C_3   0.700060 0.352042 0.834946 -0.811670
H140  H     H_    0.749340 0.319344 0.838998 0.304077
H141  H     H_    0.653864 0.331629 0.845134 0.287477
H142  H     H_    0.709834 0.409884 0.839396 0.258386
O87   O     O_3   0.334783 0.231306 0.211653 -0.603971
C271  C     C_3   0.396986 0.276843 0.212091 0.198195
H143  H     H_    0.442140 0.246122 0.204021 0.179413
H144  H     H_    0.416011 0.290380 0.229351 0.114038
C272  C     C_3   0.384012 0.346810 0.198703 -0.347815
H145  H     H_    0.360877 0.333214 0.182033 0.255300
H146  H     H_    0.344853 0.382185 0.207749 0.251568
C273  C     C_3   0.454543 0.389130 0.195493 -0.979663
H147  H     H_    0.479792 0.401586 0.211951 0.276101
H148  H     H_    0.442797 0.441180 0.186734 0.278318
H149  H     H_    0.493333 0.356980 0.185172 0.274116
O88   O     O_3   0.676566 0.782716 0.789869 -0.610428
C274  C     C_3   0.707717 0.845325 0.799767 0.133145
H150  H     H_    0.664930 0.871478 0.810239 0.179813
H151  H     H_    0.724960 0.887087 0.787321 0.087247
C275  C     C_3   0.771898 0.824305 0.814843 -0.344132
H152  H     H_    0.754616 0.781172 0.826738 0.259105
H153  H     H_    0.817222 0.802650 0.804421 0.237978
C276  C     C_3   0.799344 0.889747 0.828060 -0.883941
H154  H     H_    0.817515 0.933363 0.816489 0.256647
H155  H     H_    0.846172 0.872964 0.838644 0.285993
H156  H     H_    0.755600 0.911404 0.839099 0.283042
O89   O     O_3   0.717689 0.387679 0.232851 -0.595861
C277  C     C_3   0.680402 0.427085 0.249647 0.138503
H157  H     H_    0.715075 0.432815 0.264866 0.118992
H158  H     H_    0.628553 0.399498 0.254228 0.161667
C278  C     C_3   0.662422 0.502931 0.240701 -0.325578
H159  H     H_    0.713685 0.531003 0.236032 0.255382
H160  H     H_    0.628089 0.497806 0.225466 0.232294
C279  C     C_3   0.621916 0.548706 0.258060 -0.992655
H161  H     H_    0.569011 0.523117 0.262320 0.274740
H162  H     H_    0.611301 0.603845 0.251189 0.264126
H163  H     H_    0.655106 0.554294 0.273480 0.262725
O90   O     O_3   0.277992 0.620011 0.772507 -0.614661
C280  C     C_3   0.255875 0.627181 0.795179 0.159819
H164  H     H_    0.238851 0.572450 0.801010 0.173470
H165  H     H_    0.207560 0.663601 0.797438 0.156251
C281  C     C_3   0.318752 0.653295 0.809966 -0.385798
H166  H     H_    0.368416 0.620495 0.806388 0.246962
H167  H     H_    0.330490 0.711291 0.806289 0.277155
C282  C     C_3   0.299867 0.646797 0.834776 -0.806663
H168  H     H_    0.251199 0.680520 0.838769 0.305847
H169  H     H_    0.346300 0.666307 0.845010 0.286427
H170  H     H_    0.288809 0.589205 0.839232 0.257790
O91   O     O_3   0.669136 0.772235 0.211105 -0.610164
C283  C     C_3   0.607423 0.726062 0.210724 0.184590
H171  H     H_    0.563264 0.756121 0.201957 0.177061
H172  H     H_    0.585928 0.712785 0.227732 0.119532
C284  C     C_3   0.623172 0.655853 0.197713 -0.339785
H173  H     H_    0.648057 0.669294 0.181262 0.257463
H174  H     H_    0.661815 0.621456 0.207298 0.250985
C285  C     C_3   0.553764 0.612266 0.193883 -0.983963
H175  H     H_    0.527050 0.599554 0.210112 0.275784
H176  H     H_    0.567330 0.560326 0.185291 0.280209
H177  H     H_    0.515463 0.643596 0.183186 0.273908
O92   O     O_3   0.321739 0.215678 0.789983 -0.609604
C286  C     C_3   0.290286 0.152509 0.799443 0.132383
H178  H     H_    0.333060 0.125166 0.809604 0.179022
H179  H     H_    0.272374 0.111887 0.786728 0.088149
C287  C     C_3   0.226609 0.172894 0.814827 -0.345090
H180  H     H_    0.244462 0.215053 0.826970 0.259113
H181  H     H_    0.181238 0.195619 0.804669 0.238757
C288  C     C_3   0.199016 0.106725 0.827670 -0.878058
H182  H     H_    0.180306 0.064039 0.815856 0.256248
H183  H     H_    0.152535 0.123070 0.838488 0.285749
H184  H     H_    0.242860 0.084019 0.838445 0.284296
O93   O     O_3   0.227931 0.331355 0.788866 -0.609382
C289  C     C_3   0.273815 0.393286 0.789143 0.185853
H185  H     H_    0.243337 0.437609 0.797720 0.177786
H186  H     H_    0.287436 0.414248 0.772101 0.118034
C290  C     C_3   0.343767 0.378339 0.802341 -0.340853
H187  H     H_    0.329998 0.354114 0.818855 0.257837
H188  H     H_    0.378532 0.339406 0.792966 0.251365
C291  C     C_3   0.387002 0.448071 0.806003 -0.978360
H189  H     H_    0.400134 0.474061 0.789700 0.275259
H190  H     H_    0.438733 0.435096 0.814779 0.280522
H191  H     H_    0.355203 0.486776 0.816461 0.273512
O94   O     O_3   0.785236 0.678851 0.209975 -0.610493
C292  C     C_3   0.848607 0.710496 0.200684 0.133859
H192  H     H_    0.876187 0.667941 0.190474 0.180647
H193  H     H_    0.888970 0.728180 0.213502 0.088955
C293  C     C_3   0.828510 0.774442 0.185409 -0.347472
H194  H     H_    0.786656 0.756790 0.173144 0.258187
H195  H     H_    0.805474 0.819567 0.195626 0.237793
C294  C     C_3   0.894974 0.802365 0.172758 -0.879014
H196  H     H_    0.937357 0.820888 0.184697 0.257541
H197  H     H_    0.878831 0.849026 0.162014 0.283701
H198  H     H_    0.918009 0.758776 0.161930 0.285508
O95   O     O_3   0.387736 0.717410 0.767051 -0.594552
C295  C     C_3   0.428007 0.683670 0.749747 0.140974
H199  H     H_    0.433298 0.720874 0.735085 0.119416
H200  H     H_    0.401360 0.632185 0.744337 0.157254
C296  C     C_3   0.504071 0.665560 0.758490 -0.322041
H201  H     H_    0.530446 0.716159 0.764545 0.260057
H202  H     H_    0.499476 0.627123 0.772788 0.229508
C297  C     C_3   0.551617 0.631297 0.740330 -0.991630
H203  H     H_    0.527662 0.579119 0.734597 0.274705
H204  H     H_    0.606773 0.620294 0.747137 0.261692
H205  H     H_    0.556887 0.668821 0.725851 0.258599
O96   O     O_3   0.620605 0.277479 0.227173 -0.616783
C298  C     C_3   0.629177 0.255659 0.204522 0.158860
H206  H     H_    0.574679 0.239381 0.198305 0.176035
H207  H     H_    0.665128 0.206912 0.202469 0.154815
C299  C     C_3   0.657231 0.318396 0.189988 -0.386535
H208  H     H_    0.625645 0.368743 0.193667 0.248489
H209  H     H_    0.715446 0.328518 0.193821 0.273799
C300  C     C_3   0.650886 0.300720 0.165098 -0.805770
H210  H     H_    0.683808 0.251642 0.160977 0.306470
H211  H     H_    0.671506 0.347193 0.155086 0.284247
H212  H     H_    0.593165 0.290983 0.160494 0.260171
O97   O     O_3   0.770268 0.667090 0.788616 -0.609586
C301  C     C_3   0.724288 0.605232 0.788462 0.188147
H213  H     H_    0.754574 0.560327 0.796783 0.178217
H214  H     H_    0.710841 0.585361 0.771285 0.117296
C302  C     C_3   0.654235 0.619492 0.801716 -0.341895
H215  H     H_    0.667881 0.642658 0.818380 0.256834
H216  H     H_    0.619669 0.659091 0.792570 0.251432
C303  C     C_3   0.610820 0.549640 0.804936 -0.977858
H217  H     H_    0.598014 0.524538 0.788478 0.275018
H218  H     H_    0.558917 0.562213 0.813702 0.279860
H219  H     H_    0.642350 0.510361 0.815241 0.273502
O98   O     O_3   0.221469 0.328086 0.210835 -0.610043
C304  C     C_3   0.168562 0.289713 0.198500 0.123911
H220  H     H_    0.117108 0.284853 0.208284 0.107315
H221  H     H_    0.188877 0.234298 0.194030 0.167333
C305  C     C_3   0.152445 0.331606 0.176948 -0.337305
H222  H     H_    0.134207 0.387676 0.181183 0.252964
H223  H     H_    0.202983 0.335453 0.166768 0.240874
C306  C     C_3   0.093406 0.294528 0.163150 -0.859704
H224  H     H_    0.111421 0.239116 0.158088 0.273764
H225  H     H_    0.082301 0.326991 0.147831 0.295051
H226  H     H_    0.042303 0.290435 0.173011 0.274391
O99   O     O_3   0.612419 0.282206 0.767291 -0.595265
C307  C     C_3   0.572952 0.319150 0.750464 0.139912
H227  H     H_    0.567186 0.284186 0.735302 0.119868
H228  H     H_    0.600528 0.370893 0.745783 0.162028
C308  C     C_3   0.497105 0.337311 0.759428 -0.323779
H229  H     H_    0.469032 0.286167 0.764199 0.256306
H230  H     H_    0.502255 0.371964 0.774603 0.232158
C309  C     C_3   0.451291 0.377430 0.742025 -0.994410
H231  H     H_    0.476854 0.430249 0.737675 0.274375
H232  H     H_    0.396132 0.388141 0.748899 0.263752
H233  H     H_    0.445725 0.343943 0.726658 0.263058
O100  O     O_3   0.380841 0.721106 0.227985 -0.614801
C310  C     C_3   0.373877 0.742116 0.205219 0.164437
H234  H     H_    0.428408 0.760069 0.199455 0.174880
H235  H     H_    0.336441 0.789469 0.202702 0.158901
C311  C     C_3   0.349505 0.678132 0.190592 -0.387751
H236  H     H_    0.383170 0.629293 0.194428 0.245772
H237  H     H_    0.291628 0.665392 0.194151 0.276288
C312  C     C_3   0.356347 0.696138 0.165731 -0.813237
H238  H     H_    0.321431 0.743677 0.161470 0.308302
H239  H     H_    0.338461 0.648768 0.155616 0.282676
H240  H     H_    0.413754 0.708609 0.161383 0.257692
Br1   Br    Br    0.603207 0.120360 0.669026 -0.444438
Br2   Br    Br    0.577549 0.137280 0.330616 -0.490819
Br3   Br    Br    0.863923 0.415587 0.670839 -0.496527
Br4   Br    Br    0.104906 0.616040 0.333111 -0.441355
Br5   Br    Br    0.396106 0.880949 0.668334 -0.452724
Br6   Br    Br    0.423199 0.862717 0.331024 -0.496441
Br7   Br    Br    0.128720 0.586282 0.667209 -0.496459
Br8   Br    Br    0.887565 0.384659 0.330262 -0.440906
Br9   Br    Br    0.103296 0.620173 0.168971 -0.444760
Br10  Br    Br    0.077285 0.637435 0.830607 -0.494277
Br11  Br    Br    0.363599 0.915654 0.171001 -0.496329
Br12  Br    Br    0.605920 0.113920 0.833430 -0.430134
Br13  Br    Br    0.896088 0.380836 0.168392 -0.453309
Br14  Br    Br    0.923018 0.362821 0.831023 -0.495271
Br15  Br    Br    0.628522 0.086051 0.167029 -0.496742
Br16  Br    Br    0.383912 0.887478 0.829791 -0.437236
Br17  Br    Br    0.613049 0.110460 0.613412 -0.390864
Br18  Br    Br    0.584614 0.132592 0.386526 -0.389915
Br19  Br    Br    0.862198 0.408863 0.614987 -0.385635
Br20  Br    Br    0.086707 0.621285 0.388469 -0.392678
Br21  Br    Br    0.401229 0.881810 0.612507 -0.391483
Br22  Br    Br    0.428062 0.862519 0.387026 -0.388641
Br23  Br    Br    0.116250 0.589678 0.611352 -0.391806
Br24  Br    Br    0.890497 0.378868 0.385797 -0.388269
Br25  Br    Br    0.112728 0.610328 0.113348 -0.390829
Br26  Br    Br    0.084080 0.632926 0.886524 -0.391063
Br27  Br    Br    0.361012 0.909061 0.115153 -0.385347
Br28  Br    Br    0.584982 0.120499 0.888723 -0.391967
Br29  Br    Br    0.900858 0.381729 0.112564 -0.391166
Br30  Br    Br    0.927819 0.362676 0.887025 -0.388486
Br31  Br    Br    0.615315 0.089437 0.111181 -0.391959
Br32  Br    Br    0.384515 0.881537 0.885375 -0.384891
O101  O     O_3   0.824972 0.568717 0.987491 -0.597365
C313  C     C_3   0.788807 0.502857 0.992275 0.081706
H241  H     H_    0.825282 0.463572 0.001134 0.134170
H242  H     H_    0.769015 0.477685 0.976445 0.150303
C314  C     C_3   0.723735 0.518978 0.007455 -0.313342
H243  H     H_    0.743584 0.541775 0.023561 0.231728
H244  H     H_    0.687713 0.559970 0.999334 0.230021
C315  C     C_3   0.680019 0.450298 0.012243 -0.930683
H245  H     H_    0.658455 0.427118 0.996412 0.267091
H246  H     H_    0.633446 0.463864 0.023379 0.270199
H247  H     H_    0.714748 0.409005 0.020709 0.273235
O102  O     O_3   0.145282 0.350131 0.013479 -0.604184
C316  C     C_3   0.099460 0.291870 0.007503 0.066690
H248  H     H_    0.056701 0.310333 0.995518 0.143048
H249  H     H_    0.073064 0.268301 0.022661 0.145006
C317  C     C_3   0.145541 0.232815 0.996234 -0.278784
H250  H     H_    0.172613 0.255892 0.981182 0.240735
H251  H     H_    0.188412 0.213814 0.008025 0.250429
C318  C     C_3   0.099292 0.167969 0.989218 -0.920583
H252  H     H_    0.073196 0.142847 0.004097 0.262470
H253  H     H_    0.134441 0.126576 0.980983 0.282114
H254  H     H_    0.056542 0.185431 0.977192 0.268104
O103  O     O_3   0.291896 0.067100 0.985949 -0.608686
C319  C     C_3   0.258665 0.003235 0.994323 0.095165
H255  H     H_    0.220219 0.020241 0.007734 0.186721
H256  H     H_    0.297978 0.964733 0.002272 0.132075
C320  C     C_3   0.215529 0.964558 0.975875 -0.384119
H257  H     H_    0.177994 0.003952 0.967683 0.238842
H258  H     H_    0.253638 0.942993 0.962997 0.234442
C321  C     C_3   0.171279 0.901528 0.985338 -0.905342
H259  H     H_    0.207845 0.860972 0.993400 0.266784
H260  H     H_    0.141212 0.874339 0.971576 0.276894
H261  H     H_    0.131225 0.921827 0.997843 0.262723
O104  O     O_3   0.586563 0.828665 0.010734 -0.607097
C322  C     C_3   0.618942 0.770138 0.022526 0.123746
H262  H     H_    0.618310 0.722348 0.011123 0.171999
H263  H     H_    0.586572 0.752646 0.037283 0.120679
C323  C     C_3   0.698871 0.786300 0.028015 -0.372916
H264  H     H_    0.728694 0.797539 0.012202 0.253794
H265  H     H_    0.703080 0.835101 0.038863 0.216512
C324  C     C_3   0.735161 0.722191 0.039844 -0.876650
H266  H     H_    0.706007 0.709390 0.055652 0.267971
H267  H     H_    0.792388 0.736152 0.043913 0.277657
H268  H     H_    0.735213 0.673616 0.028800 0.279978
O105  O     O_3   0.200499 0.433902 0.985443 -0.605840
C325  C     C_3   0.231121 0.498952 0.993888 0.097897
H269  H     H_    0.268352 0.483617 0.007779 0.184925
H270  H     H_    0.190033 0.537007 0.001220 0.124853
C326  C     C_3   0.275470 0.537553 0.975711 -0.391793
H271  H     H_    0.316203 0.499058 0.968584 0.238734
H272  H     H_    0.238722 0.555757 0.962026 0.233362
C327  C     C_3   0.314861 0.603756 0.985131 -0.892062
H273  H     H_    0.274981 0.643463 0.992065 0.264164
H274  H     H_    0.346163 0.630671 0.971572 0.278772
H275  H     H_    0.353323 0.586942 0.998533 0.262725
O106  O     O_3   0.888932 0.656264 0.013453 -0.605158
C328  C     C_3   0.942464 0.708274 0.007972 0.084815
H276  H     H_    0.981568 0.685584 0.995482 0.144375
H277  H     H_    0.972822 0.725591 0.023231 0.139618
C329  C     C_3   0.905438 0.775168 0.997821 -0.309517
H278  H     H_    0.873764 0.758696 0.982810 0.248698
H279  H     H_    0.867249 0.799179 0.010265 0.217583
C330  C     C_3   0.961152 0.832552 0.991068 -0.951284
H280  H     H_    0.992287 0.851020 0.005946 0.267282
H281  H     H_    0.932768 0.880260 0.983657 0.272233
H282  H     H_    0.999554 0.810015 0.978435 0.275306
O107  O     O_3   0.661079 0.915932 0.987427 -0.613439
C331  C     C_3   0.702374 0.979594 0.990839 0.053622
H283  H     H_    0.672238 0.018723 0.001757 0.140435
H284  H     H_    0.715195 0.006211 0.974530 0.153812
C332  C     C_3   0.773842 0.959011 0.002324 -0.328038
H285  H     H_    0.762109 0.935967 0.019124 0.222138
H286  H     H_    0.802442 0.916909 0.992207 0.230329
C333  C     C_3   0.823428 0.024803 0.005026 -0.916656
H287  H     H_    0.837342 0.047949 0.988389 0.267552
H288  H     H_    0.874593 0.007841 0.013480 0.269026
H289  H     H_    0.796246 0.067248 0.015367 0.272445
O108  O     O_3   0.351464 0.147999 0.013941 -0.604494
C334  C     C_3   0.399012 0.204815 0.007919 0.064586
H290  H     H_    0.440849 0.185094 0.995788 0.142161
H291  H     H_    0.426533 0.227343 0.023028 0.143142
C335  C     C_3   0.354523 0.265450 0.996866 -0.279021
H292  H     H_    0.326525 0.243502 0.981824 0.240353
H293  H     H_    0.312409 0.285436 0.008788 0.248281
C336  C     C_3   0.402511 0.329089 0.989891 -0.924566
H294  H     H_    0.430015 0.352754 0.004747 0.262509
H295  H     H_    0.368357 0.371954 0.981980 0.280129
H296  H     H_    0.444207 0.310743 0.977614 0.267848
O109  O     O_3   0.325925 0.069624 0.487522 -0.597473
C337  C     C_3   0.289381 0.003999 0.492334 0.081484
H297  H     H_    0.325642 0.964544 0.501205 0.134241
H298  H     H_    0.269423 0.978875 0.476517 0.150269
C338  C     C_3   0.224417 0.020563 0.507514 -0.313244
H299  H     H_    0.244415 0.043282 0.523613 0.231387
H300  H     H_    0.188642 0.061753 0.499386 0.230051
C339  C     C_3   0.180283 0.952168 0.512324 -0.930679
H301  H     H_    0.158559 0.929080 0.496501 0.267052
H302  H     H_    0.133804 0.966050 0.523461 0.270198
H303  H     H_    0.214765 0.910686 0.520797 0.273213
O110  O     O_3   0.645762 0.850023 0.513515 -0.604018
C340  C     C_3   0.600001 0.791639 0.507611 0.066948
H304  H     H_    0.557270 0.809909 0.495589 0.143081
H305  H     H_    0.573574 0.768266 0.522794 0.144850
C341  C     C_3   0.646171 0.732452 0.496440 -0.278576
H306  H     H_    0.673210 0.755300 0.481349 0.240856
H307  H     H_    0.689076 0.713735 0.508261 0.249717
C342  C     C_3   0.600029 0.667400 0.489536 -0.921153
H308  H     H_    0.573886 0.642573 0.504455 0.262625
H309  H     H_    0.635263 0.625858 0.481404 0.281768
H310  H     H_    0.557316 0.684557 0.477457 0.268171
O111  O     O_3   0.794446 0.566404 0.485778 -0.608255
C343  C     C_3   0.761347 0.502410 0.494106 0.095207
H311  H     H_    0.723132 0.519194 0.507605 0.186655
H312  H     H_    0.800766 0.463728 0.501926 0.131695
C344  C     C_3   0.717889 0.464112 0.475658 -0.383282
H313  H     H_    0.680183 0.503671 0.467615 0.238908
H314  H     H_    0.755771 0.442853 0.462669 0.234584
C345  C     C_3   0.673846 0.400858 0.485070 -0.905514
H315  H     H_    0.710582 0.360134 0.492979 0.266816
H316  H     H_    0.643516 0.373966 0.471308 0.277075
H317  H     H_    0.634033 0.420866 0.497691 0.262636
O112  O     O_3   0.089891 0.329387 0.510842 -0.607118
C346  C     C_3   0.122398 0.270992 0.522661 0.123675
H318  H     H_    0.122199 0.223233 0.511242 0.171983
H319  H     H_    0.089894 0.253281 0.537364 0.120676
C347  C     C_3   0.202148 0.287569 0.528271 -0.372362
H320  H     H_    0.232166 0.298898 0.512499 0.253592
H321  H     H_    0.205943 0.336434 0.539106 0.216563
C348  C     C_3   0.238547 0.223687 0.540180 -0.876963
H322  H     H_    0.209224 0.210843 0.555955 0.268094
H323  H     H_    0.295647 0.237936 0.544320 0.277128
H324  H     H_    0.238977 0.175050 0.529163 0.280910
O113  O     O_3   0.700975 0.933462 0.485405 -0.605671
C349  C     C_3   0.731751 0.998487 0.493816 0.098172
H325  H     H_    0.769065 0.983128 0.507683 0.184951
H326  H     H_    0.690767 0.036608 0.501170 0.124799
C350  C     C_3   0.776016 0.036996 0.475600 -0.391988
H327  H     H_    0.816635 0.998431 0.468448 0.238763
H328  H     H_    0.739189 0.055238 0.461940 0.233355
C351  C     C_3   0.815580 0.103152 0.484983 -0.892127
H329  H     H_    0.775814 0.142927 0.491941 0.264114
H330  H     H_    0.846816 0.130002 0.471396 0.278809
H331  H     H_    0.854123 0.086298 0.498358 0.262770
O114  O     O_3   0.390431 0.156983 0.513431 -0.605372
C352  C     C_3   0.444314 0.208549 0.507874 0.085362
H332  H     H_    0.482902 0.185600 0.495279 0.144649
H333  H     H_    0.475205 0.225467 0.523075 0.139297
C353  C     C_3   0.407664 0.275866 0.497862 -0.309983
H334  H     H_    0.375396 0.259814 0.482928 0.248917
H335  H     H_    0.370079 0.300165 0.510425 0.217391
C354  C     C_3   0.463741 0.332750 0.490995 -0.950694
H336  H     H_    0.495511 0.350776 0.505797 0.267156
H337  H     H_    0.435600 0.380801 0.483705 0.272193
H338  H     H_    0.501533 0.309946 0.478234 0.275435
O115  O     O_3   0.164354 0.417114 0.487667 -0.613494
C355  C     C_3   0.205506 0.480896 0.491026 0.053366
H339  H     H_    0.175056 0.520304 0.501766 0.140318
H340  H     H_    0.218746 0.507068 0.474682 0.153914
C356  C     C_3   0.276666 0.460678 0.502748 -0.327897
H341  H     H_    0.264477 0.438090 0.519576 0.222316
H342  H     H_    0.305575 0.418318 0.492817 0.230100
C357  C     C_3   0.326135 0.526575 0.505405 -0.916594
H343  H     H_    0.340519 0.549244 0.488745 0.267392
H344  H     H_    0.377060 0.509894 0.514045 0.269083
H345  H     H_    0.298635 0.569304 0.515554 0.272369
O116  O     O_3   0.853280 0.647611 0.513813 -0.604275
C358  C     C_3   0.900621 0.704664 0.507852 0.064857
H346  H     H_    0.942636 0.685176 0.495745 0.142154
H347  H     H_    0.927923 0.727252 0.522991 0.143016
C359  C     C_3   0.855945 0.765149 0.496792 -0.278870
H348  H     H_    0.828163 0.743144 0.481720 0.240564
H349  H     H_    0.813645 0.784887 0.508691 0.247834
C360  C     C_3   0.903698 0.829039 0.489882 -0.924911
H350  H     H_    0.930976 0.852759 0.504769 0.262596
H351  H     H_    0.869413 0.871788 0.481964 0.279962
H352  H     H_    0.945571 0.810940 0.477628 0.267890

loop_
_geom_bond_atom_site_label_1
_geom_bond_atom_site_label_2
_ccdc_geom_bond_type
C270  H142  S    
C347  H321  S    
O91   C283  S    
C26   H2    S    
C277  C278  S    
C97   C147  S    
C288  H182  S    
C7    O19   A    
C320  H257  S    
C85   O113  S    
C234  H58   S    
C259  H115  S    
C220  C221  S    
O9    Zn12  S    
C312  H238  S    
C320  C321  S    
C163  N7    A    
O10   Zn11  S    
C30   H6    S    
C179  C195  A    
C256  H108  S    
C247  H87   S    
C130  O94   S    
C99   C149  S    
C349  H326  S    
C124  C133  A    
C14   C158  A    
C35   H11   S    
C47   C195  A    
C243  H77   S    
C308  H230  S    
C96   O50   A    
C353  H335  S    
C33   H9    S    
C300  H211  S    
C162  N6    A    
C306  H226  S    
C33   C78   A    
C256  C257  S    
C347  C348  S    
C297  H203  S    
C60   C72   A    
C22   C38   A    
C266  H131  S    
C35   C80   A    
C283  H171  S    
C62   C70   A    
C173  C201  A    
C273  H147  S    
O81   C253  S    
C7    C42   S    
O71   C223  S    
O96   C298  S    
C112  C113  A    
C311  C312  S    
C290  H188  S    
C107  C150  A    
C279  H163  S    
O83   C259  S    
C245  H83   S    
O102  C316  S    
C335  C336  S    
O20   Zn5   S    
C187  Br7   S    
C257  C258  S    
C287  H180  S    
C40   H16   S    
C161  O61   S    
C312  H239  S    
C180  C196  A    
C231  H51   S    
C344  H314  S    
C58   C61   A    
C28   H4    S    
O93   C289  S    
C310  C311  S    
C241  H74   S    
C262  H123  S    
C111  O75   S    
C323  H265  S    
C305  C306  S    
C246  H86   S    
C119  O83   S    
C32   H8    S    
C327  H274  S    
C220  H24   S    
C342  H310  S    
C350  H328  S    
C179  C207  A    
C50   C53   A    
C266  H132  S    
C123  C134  A    
C282  H168  S    
C351  H329  S    
C221  H26   S    
C4    O12   A    
C58   C82   A    
C235  H60   S    
C230  C231  S    
O15   Zn2   S    
C14   C210  A    
C58   C70   A    
C74   O102  S    
C100  C150  S    
C345  H315  S    
C280  H164  S    
C8    O16   A    
C295  C296  S    
C87   O115  S    
C323  C324  S    
C252  H100  S    
C250  H94   S    
C250  H95   S    
O11   Zn14  S    
C84   O112  S    
O109  C337  S    
C13   C209  A    
C258  H113  S    
C42   C190  A    
O7    Zn10  S    
C11   C27   A    
C306  H224  S    
C355  H339  S    
C154  N2    A    
C217  C218  S    
C293  H195  S    
C325  H269  S    
C128  C129  A    
C322  H263  S    
C219  H21   S    
O97   C301  S    
C92   O24   A    
C126  O90   S    
C177  C193  A    
C23   C167  A    
C281  H166  S    
C63   C71   A    
C89   O47   A    
C185  Br5   S    
C326  H272  S    
C122  O86   S    
C302  H215  S    
C244  C245  S    
C239  H69   S    
C111  C146  A    
C89   O21   A    
O84   C262  S    
C234  H56   S    
C259  C260  S    
C312  H240  S    
C91   O23   A    
C341  H306  S    
C118  O82   S    
C280  C281  S    
C13   C29   A    
C32   C83   A    
C154  O54   S    
C126  C141  A    
C337  C338  S    
C120  O84   S    
C356  H342  S    
C165  N5    A    
C243  H79   S    
C88   O116  S    
C122  C137  A    
C221  H27   S    
C269  H138  S    
C330  H281  S    
C184  C208  A    
C90   C140  S    
O44   Zn1   S    
C283  C284  S    
C1    C48   S    
C109  O73   S    
C2    C47   S    
C166  N6    A    
C129  O93   S    
C3    C46   S    
O32   Zn10  S    
C113  C144  A    
C41   C189  A    
O51   Zn5   S    
C113  O77   S    
C114  C143  A    
C66   C213  A    
C121  O85   S    
C268  C269  S    
C169  Br21  S    
C29   C82   A    
C278  H160  S    
O5    Zn16  S    
C1    O5    A    
C228  H42   S    
C44   C192  A    
C337  H298  S    
C332  H286  S    
C100  O38   A    
C255  H107  S    
C117  O81   S    
C178  C206  A    
C223  H31   S    
C295  H200  S    
O35   Zn13  S    
C298  C299  S    
C19   C215  A    
C261  H119  S    
C218  H19   S    
C170  C202  A    
C298  H206  S    
C46   C198  A    
C346  H318  S    
C22   C166  A    
O19   Zn6   S    
C260  C261  S    
C161  N5    A    
O94   C292  S    
C204  N4    S    
C160  N4    A    
C310  H234  S    
C225  H37   S    
O88   C274  S    
C313  H242  S    
C264  H127  S    
C292  H192  S    
C253  H102  S    
O74   C232  S    
C96   O28   A    
O39   Zn6   S    
C251  H97   S    
C48   C196  A    
C16   C160  A    
C238  H66   S    
C183  C207  A    
C124  C139  A    
C181  C205  A    
C294  H196  S    
C291  H191  S    
C181  C197  A    
C303  H217  S    
C338  C339  S    
C319  H256  S    
C229  H45   S    
C294  H198  S    
C21   C165  A    
C246  H85   S    
C195  Br15  S    
C254  H103  S    
C37   H13   S    
C62   C86   A    
O112  C346  S    
C193  Br13  S    
O13   Zn8   S    
C24   C40   A    
O36   Zn14  S    
O14   Zn7   S    
O3    Zn14  S    
C3    O11   A    
C164  O64   S    
O52   Zn6   S    
C318  H253  S    
C96   C138  S    
C328  H276  S    
C61   C85   A    
C1    O9    A    
C274  C275  S    
C251  C252  S    
C227  H40   S    
C45   C197  A    
C135  C152  A    
C355  C356  S    
C112  C145  A    
C261  H121  S    
C252  H99   S    
O105  C325  S    
C5    O13   A    
C348  H323  S    
C68   C215  A    
C244  H81   S    
C181  Br25  S    
C10   C210  A    
C281  C282  S    
O1    Zn1   S    
C246  H84   S    
C177  C205  A    
C331  H283  S    
C184  C200  A    
C232  C233  S    
C167  O67   S    
C184  Br28  S    
C105  C120  A    
C114  O78   S    
C155  N3    A    
C322  C323  S    
C127  O91   S    
C104  O36   A    
C107  C118  A    
C180  Br32  S    
C247  C248  S    
C11   C155  A    
C279  H162  S    
C346  C347  S    
C9    C153  A    
C324  H266  S    
C338  H300  S    
C218  H20   S    
C47   C199  A    
C67   C216  A    
C18   C214  A    
C159  O59   S    
C12   C156  A    
C269  C270  S    
C18   C34   A    
O4    Zn4   S    
C13   C157  A    
C242  H76   S    
C112  O76   S    
C46   C194  A    
C4    C45   S    
C352  H333  S    
C228  H43   S    
C263  H125  S    
C95   C137  S    
C253  H101  S    
C128  O92   S    
C104  C146  S    
C334  C335  S    
C257  H110  S    
C24   C168  A    
C305  H223  S    
C228  H44   S    
C132  O96   S    
C255  H105  S    
C19   C163  A    
O45   Zn3   S    
C336  H294  S    
C56   C68   A    
C134  C149  A    
O46   Zn4   S    
C349  C350  S    
C223  C224  S    
C31   C84   A    
O21   Zn12  S    
C73   O101  S    
O47   Zn1   S    
C268  H137  S    
O22   Zn11  S    
C8    O20   A    
O4    Zn9   S    
C276  H154  S    
C162  O62   S    
C136  O100  S    
C271  C272  S    
C95   O27   A    
C260  H117  S    
O29   Zn11  S    
C317  C318  S    
O30   Zn12  S    
C329  H278  S    
C170  Br22  S    
C28   C87   A    
C5    O17   A    
C316  H248  S    
O31   Zn9   S    
C296  H202  S    
C51   C67   A    
C317  H250  S    
C292  C293  S    
O6    Zn15  S    
C359  C360  S    
C217  H17   S    
C17   C161  A    
C248  C249  S    
O78   C244  S    
C271  H144  S    
C19   C35   A    
C222  H29   S    
C76   O104  S    
O1    Zn5   S    
C358  C359  S    
C237  H64   S    
C301  H214  S    
C303  H219  S    
C226  H38   S    
C343  H311  S    
C103  C145  S    
C232  H53   S    
C360  H350  S    
C304  C305  S    
C254  C255  S    
C176  Br20  S    
O1    Zn12  S    
C284  C285  S    
O2    Zn11  S    
C173  C189  A    
C285  H177  S    
C307  C308  S    
C333  H287  S    
C119  C138  A    
C159  N3    A    
C108  C117  A    
C339  H303  S    
C133  C150  A    
C315  H246  S    
C234  H57   S    
C121  C138  A    
C259  H116  S    
C328  C329  S    
O87   C271  S    
C320  H258  S    
C15   C31   A    
C54   C66   A    
C240  H72   S    
C309  H233  S    
C165  O65   S    
C321  H260  S    
C56   C80   A    
C286  C287  S    
C157  O57   S    
C301  C302  S    
C243  H78   S    
C97   O39   A    
O25   Zn16  S    
C103  O35   A    
C98   O40   A    
C300  H210  S    
C158  N2    A    
C354  H338  S    
C10   C154  A    
C99   O37   A    
C97   O29   A    
C297  H204  S    
C156  N4    A    
C26   C85   A    
C281  H167  S    
O1    Zn16  S    
C283  H172  S    
C226  C227  S    
C309  H232  S    
C95   O49   A    
C357  H343  S    
C90   O22   A    
C284  H173  S    
C356  C357  S    
O82   C256  S    
C102  O34   A    
C255  H106  S    
C321  H259  S    
C324  H268  S    
C322  H262  S    
C287  H181  S    
C69   C210  A    
C182  Br26  S    
C54   C78   A    
C249  H91   S    
C227  C228  S    
C77   O105  S    
C102  C152  S    
C267  H133  S    
C91   C141  S    
C297  H205  S    
C311  H237  S    
C37   C74   A    
C27   H3    S    
O77   C241  S    
C106  C119  A    
C310  H235  S    
C273  H149  S    
C194  Br14  S    
C176  C204  A    
C25   H1    S    
C334  H290  S    
C219  H23   S    
O70   C220  S    
O27   Zn10  S    
C290  C291  S    
C338  H299  S    
C299  H208  S    
C9    C25   A    
O107  C331  S    
C342  H309  S    
C350  H327  S    
C245  H82   S    
C336  H296  S    
C29   H5    S    
C178  C194  A    
C275  H152  S    
C17   C33   A    
C12   C28   A    
C20   C216  A    
C175  Br19  S    
C34   H10   S    
O17   Zn4   S    
C59   C83   A    
O76   C238  S    
C276  H156  S    
C182  C206  A    
O18   Zn3   S    
C230  H48   S    
C34   C77   A    
C236  C237  S    
C72   C211  A    
C93   O25   A    
C345  H316  S    
O99   C307  S    
C20   C164  A    
C329  C330  S    
C174  C202  A    
C316  C317  S    
O3    Zn7   S    
C357  H345  S    
C270  H141  S    
O108  C334  S    
C340  H304  S    
C172  C204  A    
C116  O80   S    
C359  H348  S    
C158  O58   S    
C285  H176  S    
C109  C116  A    
C104  O42   A    
C324  H267  S    
C224  H33   S    
C247  H88   S    
C355  H340  S    
C304  H220  S    
O3    Zn3   S    
C358  H346  S    
C221  C222  S    
O41   Zn8   S    
O73   C229  S    
O42   Zn7   S    
C52   C55   A    
C207  N7    S    
C360  H352  S    
C63   C87   A    
C345  H317  S    
C135  O99   S    
C347  H320  S    
C115  C142  A    
C8    C41   S    
O49   Zn7   S    
C244  H80   S    
C326  H271  S    
C277  H157  S    
C130  C145  A    
O50   Zn8   S    
C299  H209  S    
C288  H183  S    
C333  H289  S    
C222  H28   S    
C3    O7    A    
C252  H98   S    
C107  O71   S    
C220  H25   S    
C341  H307  S    
C242  H75   S    
C265  H130  S    
C256  H109  S    
C45   C193  A    
O43   Zn2   S    
C325  C326  S    
O33   Zn15  S    
O2    Zn15  S    
C101  O43   A    
C286  H178  S    
C102  O44   A    
C57   C62   A    
C238  C239  S    
O114  C352  S    
C307  H228  S    
C349  H325  S    
C300  H212  S    
O103  C319  S    
C24   C216  A    
C98   C148  S    
C52   C76   A    
O2    Zn2   S    
C125  O89   S    
O111  C343  S    
C155  O55   S    
C245  C246  S    
C53   C77   A    
C318  H252  S    
C15   C159  A    
C278  H159  S    
C55   C79   A    
C55   C67   A    
C342  H308  S    
C170  C186  A    
C223  H32   S    
C340  H305  S    
C153  N1    A    
C298  H207  S    
C219  H22   S    
C291  H189  S    
C261  H120  S    
O4    Zn8   S    
C50   C74   A    
O100  C310  S    
C177  Br29  S    
C174  C190  A    
C267  H135  S    
C267  H134  S    
C351  H330  S    
O110  C340  S    
C260  H118  S    
C5    C44   S    
C317  H251  S    
C186  Br6   S    
C325  H270  S    
C241  H73   S    
C262  C263  S    
C60   C84   A    
C117  C140  A    
C16   C32   A    
C323  H264  S    
C118  C139  A    
C188  Br8   S    
O113  C349  S    
C131  O95   S    
C354  H336  S    
C136  C151  A    
O90   C280  S    
C100  O32   A    
C350  C351  S    
C237  H63   S    
C272  H146  S    
C105  C152  A    
C265  H129  S    
C339  H301  S    
C106  C151  A    
C7    O15   A    
O3    Zn10  S    
C199  Br11  S    
C235  H59   S    
C36   C79   A    
C303  H218  S    
O12   Zn13  S    
C229  H46   S    
C236  H61   S    
C294  H197  S    
C23   C215  A    
C301  H213  S    
C78   O106  S    
C80   O108  S    
C224  C225  S    
O2    Zn6   S    
C40   C75   A    
C6    O18   A    
C264  H128  S    
C30   C81   A    
C339  H302  S    
C2    O6    A    
C250  C251  S    
C175  C203  A    
C65   C214  A    
C82   O110  S    
C258  H114  S    
C218  C219  S    
C18   C162  A    
C289  C290  S    
C227  H41   S    
C172  Br24  S    
C293  H194  S    
C101  C151  S    
C111  C114  A    
C289  H186  S    
C127  C144  A    
C121  C136  A    
C171  C203  A    
O104  C322  S    
C128  C143  A    
C115  O79   S    
C122  C135  A    
C229  C230  S    
C94   C144  S    
C169  C201  A    
C116  C141  A    
C20   C36   A    
C21   C37   A    
C331  H284  S    
C71   C212  A    
C326  C327  S    
C296  H201  S    
C304  H221  S    
C124  O88   S    
C239  H68   S    
C120  C137  A    
C351  H331  S    
O34   Zn16  S    
C110  C115  A    
C64   C88   A    
C79   O107  S    
C49   C54   A    
O106  C328  S    
O23   Zn14  S    
C265  C266  S    
C344  H313  S    
C346  H319  S    
O80   C250  S    
C166  O66   S    
C306  H225  S    
C314  H243  S    
O115  C355  S    
C182  C198  A    
C302  C303  S    
C248  H89   S    
C330  H282  S    
C233  H54   S    
C208  N8    S    
C277  H158  S    
C290  H187  S    
C315  H247  S    
C286  H179  S    
C270  H140  S    
C38   H14   S    
C179  Br31  S    
C352  H332  S    
C98   O30   A    
C203  N3    S    
C241  C242  S    
C263  C264  S    
C59   C64   A    
C285  H175  S    
C49   C65   A    
C60   C63   A    
O4    Zn13  S    
C198  Br10  S    
C334  H291  S    
C343  C344  S    
C257  H111  S    
C51   C56   A    
C278  C279  S    
C189  Br1   S    
C331  C332  S    
C175  C191  A    
C337  H297  S    
C291  H190  S    
C332  C333  S    
C176  C192  A    
C202  N2    S    
O116  C358  S    
C183  Br27  S    
C272  H145  S    
C307  H227  S    
C6    O14   A    
C264  H126  S    
C99   O31   A    
C25   C86   A    
C335  H293  S    
C15   C211  A    
C238  H67   S    
C11   C211  A    
C201  N1    S    
C240  H70   S    
C92   O46   A    
C4    O8    A    
O16   Zn1   S    
C356  H341  S    
C86   O114  S    
O40   Zn5   S    
C89   C139  S    
C239  C240  S    
C329  H279  S    
C164  N8    A    
C262  H122  S    
C353  C354  S    
C313  H241  S    
C83   O111  S    
C271  H143  S    
C240  H71   S    
C92   C142  S    
C273  H148  S    
C93   C143  S    
C327  H275  S    
C163  O63   S    
C10   C26   A    
C274  H151  S    
O92   C286  S    
C43   C191  A    
C348  H322  S    
C36   H12   S    
O8    Zn9   S    
O86   C268  S    
C174  Br18  S    
C358  H347  S    
C237  H65   S    
C101  O33   A    
C27   C88   A    
C287  C288  S    
C235  C236  S    
C17   C213  A    
C308  H229  S    
O48   Zn2   S    
C319  H255  S    
C343  H312  S    
C280  H165  S    
C282  H169  S    
C254  H104  S    
C269  H139  S    
C106  O70   S    
C94   O26   A    
C284  H174  S    
C93   O51   A    
C272  C273  S    
C123  O87   S    
O69   C217  S    
C16   C212  A    
C12   C212  A    
C206  N6    S    
C314  H244  S    
C318  H254  S    
C9    C209  A    
C258  H112  S    
C328  H277  S    
C289  H185  S    
O98   C304  S    
C132  C147  A    
C248  H90   S    
C153  O53   S    
C14   C30   A    
C123  C140  A    
C253  C254  S    
C293  C294  S    
C183  C199  A    
O79   C247  S    
C231  H50   S    
C191  Br3   S    
C348  H324  S    
C205  N5    S    
C108  O72   S    
C39   H15   S    
C224  H34   S    
C354  H337  S    
C2    O10   A    
O95   C295  S    
C75   O103  S    
C125  C142  A    
C274  H150  S    
C333  H288  S    
C313  C314  S    
C105  O69   S    
O89   C277  S    
C129  C146  A    
C41   C185  A    
C131  C148  A    
C226  H39   S    
C39   C76   A    
C353  H334  S    
C357  H344  S    
C50   C66   A    
C197  Br9   S    
C44   C188  A    
C31   H7    S    
C279  H161  S    
C178  Br30  S    
C225  H35   S    
C225  H36   S    
C22   C214  A    
O26   Zn15  S    
C340  C341  S    
C57   C81   A    
C222  H30   S    
C109  C148  A    
C292  H193  S    
C249  H92   S    
C110  C147  A    
C233  C234  S    
C330  H280  S    
C51   C75   A    
C242  C243  S    
C53   C65   A    
C231  H49   S    
C192  Br4   S    
C134  O98   S    
C311  H236  S    
C352  C353  S    
C61   C69   A    
C263  H124  S    
C190  Br2   S    
C266  C267  S    
C168  N8    A    
C94   O52   A    
C110  O74   S    
C168  O68   S    
C314  C315  S    
O101  C313  S    
C196  Br16  S    
C327  H273  S    
C156  O56   S    
C305  H222  S    
C52   C68   A    
C43   C187  A    
O37   Zn4   S    
C217  H18   S    
C332  H285  S    
C341  C342  S    
C200  Br12  S    
O38   Zn3   S    
C302  H216  S    
C336  H295  S    
C321  H261  S    
C275  H153  S    
C171  C187  A    
C6    C43   S    
C282  H170  S    
C249  H93   S    
C160  O60   S    
C127  C130  A    
C169  C185  A    
C276  H155  S    
C180  C208  A    
C230  H47   S    
C90   O48   A    
O28   Zn9   S    
C236  H62   S    
C125  C132  A    
C157  N1    A    
C232  H52   S    
C126  C131  A    
C172  C188  A    
C23   C39   A    
C308  C309  S    
C167  N7    A    
C295  H199  S    
C288  H184  S    
C103  O41   A    
C251  H96   S    
C296  C297  S    
C49   C73   A    
C171  Br23  S    
C64   C72   A    
O72   C226  S    
C359  H349  S    
C316  H249  S    
C299  C300  S    
C91   O45   A    
C173  Br17  S    
C108  C149  A    
C133  O97   S    
O24   Zn13  S    
C81   O109  S    
C315  H245  S    
C48   C200  A    
C275  C276  S    
C42   C186  A    
C344  C345  S    
C70   C209  A    
C335  H292  S    
C57   C69   A    
C21   C213  A    
O85   C265  S    
O75   C235  S    
C233  H55   S    
C309  H231  S    
C319  C320  S    
C268  H136  S    
C59   C71   A    
C360  H351  S    
C38   C73   A    
