data_mof_unit_44911.cif
_audit_creation_date              2012-12-10T16:42:59-0500
_audit_creation_method            fapswitch 2.2
_symmetry_space_group_name_H-M    P1
_symmetry_Int_Tables_number       1
_space_group_crystal_system       triclinic
_cell_length_a                    7.568924
_cell_length_b                    8.692593
_cell_length_c                    12.968283
_cell_angle_alpha                 86.113754
_cell_angle_beta                  78.513405
_cell_angle_gamma                 103.330761
_cell_volume                      807.807473417

loop_
_atom_site_label
_atom_site_type_symbol
_atom_type_description
_atom_site_fract_x
_atom_site_fract_y
_atom_site_fract_z
_atom_type_partial_charge
C1    C     C_R   0.452339 0.199761 0.503383 0.878883
C2    C     C_R   0.547661 0.800239 0.496617 0.878882
C3    C     C_R   0.465494 0.495710 0.701347 0.795295
C4    C     C_R   0.534506 0.504290 0.298653 0.795294
C5    C     C_R   0.554306 0.507638 0.184487 -0.046623
C6    C     C_R   0.445694 0.492362 0.815512 -0.046621
C7    C     C_R   0.251310 0.457822 0.991948 -0.210697
C8    C     C_R   0.748690 0.542177 0.008052 -0.210700
C9    C     C_R   0.268644 0.461898 0.883073 -0.175132
C10   C     C_R   0.731356 0.538102 0.116927 -0.175130
C11   C     C_R   0.605415 0.518920 0.857462 -0.253443
C12   C     C_R   0.394585 0.481080 0.142538 -0.253441
C13   C     C_R   0.589215 0.515390 0.966129 0.175622
C14   C     C_R   0.410785 0.484610 0.033871 0.175621
C15   C     C_2   0.426524 0.031191 0.504753 -0.353873
C16   C     C_2   0.573476 0.968809 0.495247 -0.353873
Cu1   Cu    Cu3+1 0.686350 0.517570 0.488220 0.979305
Cu2   Cu    Cu3+1 0.313650 0.482430 0.511780 0.979304
H1    H     H_    0.257272 0.457403 0.194178 0.156171
H2    H     H_    0.742728 0.542597 0.805822 0.156168
H3    H     H_    0.113809 0.433443 0.043235 0.139742
H4    H     H_    0.886191 0.566557 0.956765 0.139742
N1    N     N_2   0.033570 0.455950 0.529530 -0.201811
N2    N     N_2   0.966430 0.544050 0.470470 -0.201811
O1    O     O_R   0.621060 0.286250 0.492350 -0.626539
O2    O     O_R   0.378940 0.713750 0.507650 -0.626539
O3    O     O_R   0.306310 0.256580 0.512240 -0.540525
O4    O     O_R   0.693690 0.743420 0.487760 -0.540533
O5    O     O_R   0.631800 0.512400 0.642670 -0.635373
O6    O     O_R   0.368200 0.487600 0.357330 -0.635373
O7    O     O_R   0.317060 0.482730 0.662570 -0.549559
O8    O     O_R   0.682940 0.517270 0.337430 -0.549550
H5    H     H_    0.856334 0.559577 0.148032 0.174149
H6    H     H_    0.143666 0.440423 0.851968 0.174142
C17   C     C_2   0.916021 0.336163 0.610129 0.599668
H7    H     H_    0.767935 0.308375 0.626901 0.080569
O9    O     O_2   0.985791 0.258154 0.664562 -0.568712
C18   C     C_2   0.083978 0.663832 0.389868 0.599670
H8    H     H_    0.232065 0.691628 0.373101 0.080568
O10   O     O_2   0.014208 0.741825 0.335425 -0.568715
H9    H     H_    0.285656 0.958186 0.513511 0.182888
H10   H     H_    0.714344 0.041814 0.486489 0.182890

loop_
_geom_bond_atom_site_label_1
_geom_bond_atom_site_label_2
_ccdc_geom_bond_type
C3    O7    A    
N1    N2    D    
C8    C13   A    
Cu2   O6    S    
C1    O3    A    
Cu1   O5    S    
N2    C18   S    
C17   H7    S    
Cu2   O2    S    
C3    C6    S    
Cu1   O1    S    
C6    C9    A    
Cu1   Cu2   S    
C5    C10   A    
C2    O2    A    
C13   C14   A    
C1    O1    A    
C11   C13   A    
C3    O5    A    
C4    O8    A    
C1    C15   S    
C12   H1    S    
C18   O10   D    
C12   C14   A    
C9    H6    S    
C10   H5    S    
N1    C17   S    
C18   H8    S    
C11   H2    S    
Cu1   N2    S    
Cu2   N1    S    
C16   H10   S    
C2    C16   S    
C15   H9    S    
C5    C12   A    
C8    C10   A    
C6    C11   A    
C7    C9    A    
Cu1   O8    S    
C2    O4    A    
Cu2   O7    S    
C17   O9    D    
C7    H3    S    
Cu1   O4    S    
C8    H4    S    
C7    C14   A    
C4    O6    A    
Cu2   O3    S    
C15   C16   D    
C4    C5    S    
