data_mof_unit_54520.cif
_audit_creation_date              2012-12-11T14:08:57-0500
_audit_creation_method            fapswitch 2.2
_symmetry_space_group_name_H-M    P1
_symmetry_Int_Tables_number       1
_space_group_crystal_system       triclinic
_cell_length_a                    8.403822
_cell_length_b                    15.257571
_cell_length_c                    19.24644
_cell_angle_alpha                 95.836056
_cell_angle_beta                  93.959429
_cell_angle_gamma                 98.985626
_cell_volume                      2415.82012769

loop_
_atom_site_label
_atom_site_type_symbol
_atom_type_description
_atom_site_fract_x
_atom_site_fract_y
_atom_site_fract_z
_atom_type_partial_charge
Ba1   Ba    Ba6+2 0.852120 0.544010 0.466690 1.776967
Ba2   Ba    Ba6+2 0.337720 0.456070 0.533320 1.788803
C1    C     C_3   0.579940 0.853366 0.330138 -0.356085
C2    C     C_R   0.150286 0.482466 0.272914 0.032805
C3    C     C_R   0.095725 0.474103 0.199691 -0.108593
C4    C     C_3   0.990294 0.846333 0.318293 0.265350
C5    C     C_R   0.205484 0.504271 0.149685 -0.033642
C6    C     C_R   0.366782 0.540846 0.174763 -0.075410
C7    C     C_R   0.419356 0.546250 0.246310 0.053023
C8    C     C_R   0.141185 0.574782 0.037191 -0.079318
C9    C     C_R   0.083748 0.566642 0.964739 -0.008813
C10   C     C_R   0.045915 0.481908 0.923988 -0.071267
C11   C     C_R   0.054038 0.404907 0.959474 -0.044533
C12   C     C_3   0.508980 0.758300 0.299098 0.274215
C13   C     C_R   0.111145 0.414243 0.031534 0.019237
C14   C     C_R   0.155815 0.498106 0.071294 0.008157
C15   C     C_R   0.828977 0.439623 0.822062 -0.055629
C16   C     C_3   0.009304 0.885280 0.248990 -0.280117
C17   C     C_R   0.770873 0.441707 0.752105 0.028055
C18   C     C_R   0.033423 0.517109 0.725908 -0.006865
C19   C     C_R   0.093678 0.512282 0.796421 -0.137361
C20   C     C_R   0.990747 0.475587 0.845982 -0.009634
C21   C     C_R   0.871152 0.482705 0.705619 -0.222725
C22   C     C_R   0.738678 0.229470 0.537799 -0.241954
C23   C     C_3   0.422327 0.320499 0.320965 0.197013
C24   C     C_R   0.838732 0.171242 0.559522 0.046596
C25   C     C_R   0.780270 0.078687 0.549827 -0.041171
C26   C     C_R   0.626524 0.044623 0.512772 0.039935
C27   C     C_R   0.547534 0.106387 0.478571 -0.022044
C28   C     C_3   0.212199 0.750435 0.710629 0.210962
C29   C     C_R   0.601827 0.198531 0.491916 0.033193
C30   C     C_R   0.379182 0.917587 0.492279 -0.092210
C31   C     C_R   0.316388 0.825918 0.478567 -0.035811
C32   C     C_R   0.574403 0.789874 0.520242 -0.020898
C33   C     C_R   0.645625 0.879751 0.520679 -0.116165
C34   C     C_3   0.361687 0.289313 0.243859 -0.179951
C35   C     C_R   0.549800 0.946567 0.508286 0.056871
C36   C     C_R   0.411496 0.763775 0.496676 -0.265223
C37   C     C_3   0.083122 0.737914 0.762687 -0.350172
C38   C     C_3   0.866643 0.262003 0.325643 0.180316
C39   C     C_3   0.822501 0.184171 0.265043 -0.231355
C40   C     C_3   0.617683 0.734090 0.690592 0.192157
C41   C     C_3   0.663925 0.829281 0.729479 -0.237946
C42   C     C_2   0.104209 0.816539 0.818888 0.556709
C43   C     C_2   0.901924 0.235257 0.396334 0.769468
C44   C     C_2   0.667753 0.121957 0.272545 0.847692
C45   C     C_3   0.117371 0.251130 0.722319 0.308152
C46   C     C_2   0.957014 0.130702 0.253909 0.522554
C47   C     C_2   0.608965 0.671006 0.747030 0.862618
C48   C     C_2   0.708606 0.898990 0.682158 0.532679
C49   C     C_2   0.364140 0.757604 0.248864 0.849123
C50   C     C_2   0.488650 0.310016 0.194057 0.843503
C51   C     C_2   0.667311 0.179370 0.779065 0.865167
C52   C     C_2   0.051051 0.646877 0.932955 0.910835
C53   C     C_2   0.180445 0.663576 0.078535 0.575637
C54   C     C_2   0.927581 0.431280 0.175905 0.592228
C55   C     C_2   0.998374 0.313741 0.922941 0.555639
C56   C     C_3   0.171814 0.220137 0.791581 -0.233097
C57   C     C_2   0.798408 0.498589 0.637829 0.554932
C58   C     C_2   0.261076 0.978785 0.501411 0.492426
C59   C     C_2   0.335715 0.670603 0.492026 0.535201
C60   C     C_2   0.207899 0.838173 0.681344 0.841390
C61   C     C_3   0.601988 0.224983 0.720093 0.306394
C62   C     C_3   0.496425 0.155784 0.666772 -0.224485
C63   C     C_R   0.312413 0.515046 0.293445 -0.217163
H1    H     H_    0.466419 0.723431 0.344157 0.006856
H2    H     H_    0.484240 0.886973 0.352853 0.080272
H3    H     H_    0.317188 0.338063 0.347881 0.055306
H4    H     H_    0.516116 0.381368 0.325468 0.027088
H5    H     H_    0.314915 0.216532 0.237313 0.183861
H6    H     H_    0.259249 0.323266 0.228792 0.007001
H7    H     H_    0.633945 0.892112 0.289303 0.163072
H8    H     H_    0.049333 0.836765 0.209423 0.186609
H9    H     H_    0.201715 0.312083 0.714249 0.090580
H10   H     H_    0.993628 0.267710 0.725391 -0.056318
H11   H     H_    0.215873 0.278938 0.830739 0.075430
H12   H     H_    0.962410 0.729613 0.734795 0.126300
H13   H     H_    0.070491 0.176737 0.811269 0.137571
H14   H     H_    0.271616 0.181178 0.785416 0.169390
H15   H     H_    0.707441 0.256124 0.694032 -0.165937
H16   H     H_    0.568952 0.107572 0.644127 0.136948
H17   H     H_    0.445264 0.189303 0.623957 0.133534
H18   H     H_    0.948362 0.898214 0.354793 0.049100
H19   H     H_    0.396062 0.118121 0.691617 0.172504
H20   H     H_    0.218032 0.540465 0.813483 0.110557
H21   H     H_    0.117874 0.355268 0.057869 0.122162
H22   H     H_    0.747464 0.411125 0.858084 0.096524
H23   H     H_    0.094224 0.678827 0.789524 0.100766
H24   H     H_    0.451482 0.565914 0.138673 0.093266
H25   H     H_    0.900059 0.783660 0.309590 0.116852
H26   H     H_    0.358355 0.513245 0.346689 0.097013
H27   H     H_    0.855122 0.035303 0.571843 0.078572
H28   H     H_    0.774385 0.896748 0.533307 0.089330
H29   H     H_    0.444798 0.083898 0.440684 0.043013
H30   H     H_    0.780489 0.299562 0.548041 0.155148
H31   H     H_    0.891013 0.901219 0.228519 0.105672
H32   H     H_    0.100476 0.947884 0.256922 0.143714
H33   H     H_    0.328909 0.754574 0.740039 0.087761
H34   H     H_    0.765094 0.300083 0.326767 0.022911
H35   H     H_    0.001389 0.846496 0.833776 0.005188
H36   H     H_    0.058341 0.304692 0.469315 0.349287
H37   H     H_    0.540396 0.037440 0.329403 0.305317
H38   H     H_    0.998442 0.092976 0.294343 0.037037
H39   H     H_    0.500289 0.625893 0.829810 0.334740
H40   H     H_    0.818663 0.900460 0.656093 0.018372
H41   H     H_    0.132021 0.701430 0.218170 0.320376
H42   H     H_    0.605159 0.265567 0.112875 0.336551
H43   H     H_    0.799201 0.087444 0.807915 0.335253
H44   H     H_    0.884266 0.708201 0.885531 0.315388
H45   H     H_    0.803075 0.216457 0.216484 0.111935
H46   H     H_    0.295877 0.682194 0.108897 0.027858
H47   H     H_    0.866728 0.379390 0.203564 0.010178
H48   H     H_    0.950107 0.303998 0.868646 -0.044469
H49   H     H_    0.725601 0.550211 0.634788 0.050390
H50   H     H_    0.162313 0.977712 0.461819 0.017692
H51   H     H_    0.247431 0.650402 0.527358 0.064050
H52   H     H_    0.091389 0.906879 0.615948 0.319176
H53   H     H_    0.499212 0.726107 0.659863 -0.064581
H54   H     H_    0.674821 0.851646 0.372753 0.097583
H55   H     H_    0.769346 0.832192 0.767780 0.022076
H56   H     H_    0.564356 0.846843 0.760278 0.156271
O1    O     O_2   0.860810 0.457220 0.330270 -0.480789
O2    O     O_2   0.159163 0.177412 0.535669 -0.417126
O3    O     O_3   0.120671 0.183016 0.667933 -0.580847
O4    O     O_3   0.115570 0.454630 0.416610 -0.426991
O5    O     O_3   0.584290 0.607440 0.536430 -0.466335
O6    O     O_2   0.331880 0.280530 0.464130 -0.476362
O7    O     O_3   0.484696 0.251754 0.351640 -0.655015
O8    O     O_2   0.439857 0.446088 0.749009 -0.480614
O9    O     O_3   0.505324 0.285997 0.746742 -0.619834
O10   O     O_3   0.655480 0.619980 0.374380 -0.455827
O11   O     O_2   0.766372 0.577842 0.250186 -0.426551
O12   O     O_3   0.739690 0.715111 0.647449 -0.638798
O13   O     O_3   0.010181 0.314910 0.312322 -0.690655
O14   O     O_3   0.627719 0.719435 0.263774 -0.629248
O15   O     O_2   0.857830 0.719490 0.535920 -0.392850
O16   O     O_3   0.080900 0.665060 0.409740 -0.436506
O17   O     O_2   0.977528 0.819789 0.457043 -0.526393
O18   O     O_2   0.236735 0.845729 0.849778 -0.465496
O19   O     O_2   0.916623 0.159055 0.406354 -0.619023
O20   O     O_R   0.944742 0.304494 0.449653 -0.751486
O21   O     O_2   0.556669 0.111260 0.226485 -0.520048
O22   O     O_R   0.651993 0.074197 0.330395 -0.762848
O23   O     O_3   0.140341 0.827034 0.344415 -0.613932
O24   O     O_2   0.019091 0.128022 0.198391 -0.534469
O25   O     O_2   0.715673 0.626733 0.755960 -0.654366
O26   O     O_R   0.487484 0.668067 0.793107 -0.767431
O27   O     O_2   0.624777 0.956150 0.674345 -0.535346
O28   O     O_2   0.369677 0.808718 0.203761 -0.564279
O29   O     O_R   0.222944 0.697618 0.254416 -0.778455
O30   O     O_2   0.559745 0.386311 0.195051 -0.633545
O31   O     O_R   0.518642 0.243076 0.143959 -0.664481
O32   O     O_2   0.633827 0.197751 0.839105 -0.558696
O33   O     O_R   0.766434 0.115484 0.764713 -0.751562
O34   O     O_2   0.328890 0.542810 0.669780 -0.469472
O35   O     O_2   0.156142 0.712712 0.937352 -0.548235
O36   O     O_R   0.897298 0.647897 0.900610 -0.720408
O37   O     O_2   0.083853 0.715657 0.079477 -0.518508
O38   O     O_2   0.853810 0.454371 0.125879 -0.534848
O39   O     O_2   0.004916 0.247640 0.953214 -0.524498
O40   O     O_2   0.808810 0.448660 0.585652 -0.554047
O41   O     O_2   0.270068 0.028606 0.555671 -0.559185
O42   O     O_2   0.362081 0.617490 0.444399 -0.581661
O43   O     O_2   0.309055 0.903585 0.702792 -0.562636
O44   O     O_R   0.085221 0.844492 0.630280 -0.742841
O45   O     O_3   0.074140 0.545440 0.583400 -0.428473
O46   O     O_3   0.534240 0.380100 0.625630 -0.476727
O47   O     O_3   0.198254 0.685785 0.651518 -0.645586
O48   O     O_3   0.605420 0.392640 0.463580 -0.422118
O49   O     O_3   0.108810 0.335010 0.590270 -0.494650
P1    P     P_3+3 0.028530 0.430100 0.340790 1.027729
P2    P     P_3+3 0.683360 0.705380 0.556640 1.029158
P3    P     P_3+3 0.121881 0.783676 0.425181 0.980331
P4    P     P_3+3 0.161190 0.569970 0.659220 1.016137
P5    P     P_3+3 0.053785 0.217957 0.588915 1.012475
P6    P     P_3+3 0.618584 0.609116 0.282907 1.034996
P7    P     P_3+3 0.509918 0.279443 0.442827 0.991185
P8    P     P_3+3 0.562421 0.390458 0.718357 0.973631

loop_
_geom_bond_atom_site_label_1
_geom_bond_atom_site_label_2
_ccdc_geom_bond_type
C51   O32   D    
Ba2   O34   S    
H41   O29   S    
C2    P1    S    
C16   H31   S    
C3    C54   S    
H44   O36   S    
C38   H34   S    
C21   C57   S    
C56   H11   S    
C5    C6    A    
C44   O21   D    
O3    P5    S    
O47   P4    S    
C24   C25   A    
C29   P7    S    
C40   O12   S    
C37   H12   S    
C26   C27   A    
C33   C35   A    
O12   P2    S    
Ba1   O4    S    
C32   C33   A    
C54   O38   D    
C57   H49   S    
C52   O35   D    
C27   H29   S    
Ba1   O16   S    
C11   C55   S    
C12   O14   S    
C13   C14   A    
C18   P4    S    
C10   C20   S    
O10   P6    S    
C47   O26   S    
C7    P6    S    
Ba1   Ba2   S    
O11   P6    D    
C61   O9    S    
Ba1   O1    S    
C62   H19   S    
O9    P8    S    
H36   O20   S    
C53   O37   D    
C60   O43   D    
O15   P2    D    
C49   O29   S    
H52   O44   S    
C6    C7    A    
O23   P3    S    
C47   O25   D    
C48   H40   S    
C58   O41   D    
C39   C44   S    
C16   H32   S    
Ba1   O15   S    
C31   P3    S    
C41   H56   S    
C34   C50   S    
C34   H6    S    
C41   H55   S    
C61   H15   S    
C36   C59   S    
Ba2   O6    S    
C51   O33   S    
C32   C36   A    
C19   C20   A    
C43   O20   S    
H39   O26   S    
C23   H3    S    
C37   H23   S    
O17   P3    D    
O48   P7    S    
C34   H5    S    
O49   P5    S    
C33   H28   S    
C38   C43   S    
C4    C16   S    
C19   H20   S    
O45   P4    S    
O6    P7    D    
O5    P2    S    
C24   P5    S    
Ba1   O5    S    
C22   H30   S    
C3    C5    A    
C40   H53   S    
C55   H48   S    
C40   C47   S    
C4    H25   S    
C46   H38   S    
C38   O13   S    
Ba1   P1    S    
C43   O19   D    
C17   C21   A    
O16   P3    S    
C57   O40   D    
C12   C49   S    
C18   C21   A    
C50   O31   S    
C46   O24   D    
C60   O44   S    
C59   H51   S    
C12   H1    S    
C25   H27   S    
C30   C35   A    
C10   C11   A    
C8    C53   S    
C9    C52   S    
C17   P8    S    
C62   H17   S    
C37   C42   S    
C1    C12   S    
C1    H54   S    
C56   H14   S    
Ba2   O49   S    
C13   H21   S    
H42   O31   S    
Ba2   O5    S    
O34   P4    D    
C5    C14   S    
C55   O39   D    
C42   O18   D    
O13   P1    S    
C11   C13   A    
C23   H4    S    
C40   C41   S    
C30   C58   S    
C4    O23   S    
C32   P2    S    
C48   O27   D    
C63   H26   S    
Ba2   O45   S    
C38   C39   S    
C4    H18   S    
C53   H46   S    
C23   C34   S    
C59   O42   D    
C23   O7    S    
C1    H2    S    
C15   C20   A    
C45   H9    S    
C22   C24   A    
C2    C3    A    
Ba1   O10   S    
O2    P5    D    
C9    C10   A    
C41   C48   S    
C44   O22   S    
C6    H24   S    
C16   H8    S    
O8    P8    D    
C28   H33   S    
Ba1   P2    S    
C31   C36   A    
C39   H45   S    
O14   P6    S    
C28   C60   S    
C1    H7    S    
C22   C29   A    
C45   H10   S    
C27   C29   A    
C8    C14   A    
C30   C31   A    
C45   C56   S    
C51   C61   S    
C45   O3    S    
C2    C63   A    
C26   C35   S    
C50   O30   D    
Ba1   O48   S    
C15   C17   A    
C39   C46   S    
C28   C37   S    
C42   H35   S    
O4    P1    S    
C7    C63   A    
C62   H16   S    
C15   H22   S    
C8    C9    A    
C56   H13   S    
Ba2   O48   S    
C28   O47   S    
C61   C62   S    
Ba2   O4    S    
O46   P8    S    
H43   O33   S    
C18   C19   A    
C49   O28   D    
O1    P1    D    
H37   O22   S    
C25   C26   A    
C58   H50   S    
O7    P7    S    
Ba2   O46   S    
C54   H47   S    
Ba2   P4    S    
Ba1   O45   S    
C52   O36   S    
