data_mof_unit_47778.cif
_audit_creation_date              2012-12-11T14:52:26-0500
_audit_creation_method            fapswitch 2.2
_symmetry_space_group_name_H-M    P1
_symmetry_Int_Tables_number       1
_space_group_crystal_system       triclinic
_cell_length_a                    18.887575
_cell_length_b                    10.875953
_cell_length_c                    18.750387
_cell_angle_alpha                 90.00027
_cell_angle_beta                  91.463528
_cell_angle_gamma                 90.000244
_cell_volume                      3850.45510082

loop_
_atom_site_label
_atom_site_type_symbol
_atom_type_description
_atom_site_fract_x
_atom_site_fract_y
_atom_site_fract_z
_atom_type_partial_charge
C1    C     C_R   0.274039 0.038935 0.855215 0.552249
C2    C     C_R   0.725956 0.038923 0.144781 0.537098
C3    C     C_R   0.774046 0.538918 0.855222 0.537097
C4    C     C_R   0.225971 0.538958 0.144795 0.552266
C5    C     C_3   0.522359 0.723912 0.966362 -0.111353
C6    C     C_3   0.477465 0.723964 0.033694 -0.109456
C7    C     C_3   0.022483 0.223900 0.966333 -0.109525
C8    C     C_3   0.977585 0.223995 0.033662 -0.111356
C9    C     C_R   0.309331 0.548058 0.965197 -0.144669
C10   C     C_R   0.690598 0.548350 0.034765 -0.145039
C11   C     C_R   0.809389 0.048308 0.965229 -0.145014
C12   C     C_R   0.190620 0.048253 0.034779 -0.144703
C13   C     C_R   0.302715 0.535233 0.038671 -0.141480
C14   C     C_R   0.697246 0.535507 0.961298 -0.141518
C15   C     C_R   0.802747 0.035466 0.038698 -0.141517
C16   C     C_R   0.197258 0.035420 0.961308 -0.141475
C17   C     C_R   0.238452 0.565146 0.070181 0.028968
C18   C     C_R   0.761592 0.565030 0.929846 0.031474
C19   C     C_R   0.738418 0.065056 0.070161 0.031464
C20   C     C_R   0.261578 0.065067 0.929838 0.028998
C21   C     C_R   0.180171 0.601471 0.027336 -0.142556
C22   C     C_R   0.819926 0.600924 0.972742 -0.141189
C23   C     C_R   0.680099 0.101030 0.027275 -0.141159
C24   C     C_R   0.319895 0.101089 0.972719 -0.142614
C25   C     C_R   0.186124 0.610659 0.954687 -0.138000
C26   C     C_R   0.813927 0.610169 0.045389 -0.138758
C27   C     C_R   0.686087 0.110261 0.954626 -0.138766
C28   C     C_R   0.313910 0.110316 0.045368 -0.137986
C29   C     C_R   0.251160 0.588457 0.923184 0.030892
C30   C     C_R   0.748816 0.588395 0.076828 0.029892
C31   C     C_R   0.751180 0.088411 0.923176 0.029884
C32   C     C_R   0.248824 0.088409 0.076826 0.030921
C33   C     C_R   0.475602 0.716061 0.527360 0.103879
C34   C     C_R   0.470234 0.729675 0.453674 0.098996
C35   C     C_R   0.029778 0.229698 0.546328 0.098982
C36   C     C_R   0.024419 0.216072 0.472643 0.103899
C37   C     C_R   0.499264 0.834688 0.422810 0.011463
C38   C     C_R   0.488559 0.821943 0.570693 -0.003474
C39   C     C_R   0.011439 0.321940 0.429305 -0.003487
C40   C     C_R   0.000724 0.334693 0.577185 0.011484
C41   C     C_R   0.518599 0.935572 0.465837 -0.137749
C42   C     C_R   0.508345 0.931704 0.538801 -0.171638
C43   C     C_R   0.991618 0.431687 0.461189 -0.171681
C44   C     C_R   0.981360 0.435554 0.534152 -0.137741
C45   C     C_R   0.443059 0.817636 0.863088 0.551819
C46   C     C_R   0.556872 0.817646 0.136907 0.550700
C47   C     C_R   0.943138 0.317648 0.863093 0.550702
C48   C     C_R   0.056942 0.317638 0.136914 0.551839
C49   C     C_R   0.169532 0.591069 0.545469 0.083542
C50   C     C_R   0.804312 0.664018 0.472758 0.077964
C51   C     C_R   0.695673 0.163968 0.527254 0.077986
C52   C     C_R   0.330454 0.091167 0.454549 0.083519
C53   C     C_R   0.160126 0.559242 0.474632 -0.109440
C54   C     C_R   0.799254 0.669702 0.545144 -0.113495
C55   C     C_R   0.700731 0.169661 0.454869 -0.113479
C56   C     C_R   0.339841 0.059370 0.525386 -0.109439
C57   C     C_R   0.213951 0.500514 0.438298 -0.008382
C58   C     C_R   0.748840 0.598825 0.579211 -0.002469
C59   C     C_R   0.751152 0.098809 0.420798 -0.002476
C60   C     C_R   0.286030 0.000560 0.561705 -0.008359
C61   C     C_R   0.272643 0.453570 0.476555 -0.110696
C62   C     C_R   0.693085 0.544847 0.540294 -0.119525
C63   C     C_R   0.806909 0.044832 0.459713 -0.119528
C64   C     C_R   0.227377 0.953529 0.523430 -0.110726
C65   C     C_R   0.283465 0.486022 0.547808 -0.127204
C66   C     C_R   0.692557 0.550557 0.466603 -0.144401
C67   C     C_R   0.807430 0.050518 0.533405 -0.144397
C68   C     C_R   0.216565 0.985967 0.452174 -0.127181
C69   C     C_R   0.235524 0.564573 0.580720 0.026363
C70   C     C_R   0.748863 0.607822 0.432087 0.027389
C71   C     C_R   0.751123 0.107775 0.567923 0.027388
C72   C     C_R   0.264482 0.064589 0.419279 0.026386
C73   C     C_R   0.260943 0.635525 0.851590 0.540292
C74   C     C_R   0.739051 0.635528 0.148408 0.538151
C75   C     C_R   0.760948 0.135528 0.851592 0.538141
C76   C     C_R   0.239054 0.135523 0.148411 0.540280
C77   C     C_R   0.292286 0.992499 0.639224 0.573502
C78   C     C_R   0.730263 0.050266 0.352086 0.551003
C79   C     C_R   0.769736 0.550268 0.647916 0.551007
C80   C     C_R   0.207689 0.492439 0.360774 0.573436
C81   C     C_R   0.468199 0.821713 0.645416 0.556951
C82   C     C_R   0.528550 0.824345 0.352109 0.580478
C83   C     C_R   0.971448 0.324346 0.647890 0.580500
C84   C     C_R   0.031799 0.321713 0.354583 0.556927
C85   C     C_R   0.257407 0.632015 0.645263 0.549441
C86   C     C_R   0.740124 0.638938 0.357680 0.558303
C87   C     C_R   0.759868 0.138906 0.642329 0.558266
C88   C     C_R   0.242595 0.132011 0.354733 0.549439
C89   C     C_3   0.477730 0.926035 0.034102 -0.113450
C90   C     C_3   0.522175 0.925984 0.965906 -0.114711
C91   C     C_3   0.977903 0.426068 0.034063 -0.114719
C92   C     C_3   0.022351 0.425972 0.965869 -0.113371
C93   C     C_3   0.428843 0.825027 0.001804 -0.141338
C94   C     C_3   0.571019 0.824938 0.998223 -0.142572
C95   C     C_3   0.928994 0.325092 0.001771 -0.142591
C96   C     C_3   0.071170 0.324892 0.998198 -0.141312
C97   C     C_3   0.473860 0.824751 0.935090 0.056824
C98   C     C_3   0.526006 0.824764 0.064937 0.058158
C99   C     C_3   0.974010 0.324771 0.935060 0.058152
C100  C     C_3   0.026148 0.324762 0.064910 0.056837
Cr1   Cr    Cr6+3 0.229630 0.835900 0.747350 1.065030
Cr2   Cr    Cr6+3 0.770370 0.835900 0.252650 1.054221
Cr3   Cr    Cr6+3 0.729630 0.335900 0.747350 1.054233
Cr4   Cr    Cr6+3 0.270370 0.335900 0.252650 1.065018
Cr5   Cr    Cr6+3 0.387410 0.989850 0.750850 1.032280
Cr6   Cr    Cr6+3 0.612590 0.989850 0.249150 1.041439
Cr7   Cr    Cr6+3 0.887410 0.489850 0.750850 1.041456
Cr8   Cr    Cr6+3 0.112590 0.489850 0.249150 1.032277
Cr9   Cr    Cr6+3 0.385800 0.677120 0.749340 1.043310
Cr10  Cr    Cr6+3 0.614200 0.677120 0.250660 1.047753
Cr11  Cr    Cr6+3 0.885800 0.177120 0.749340 1.047750
Cr12  Cr    Cr6+3 0.114200 0.177120 0.250660 1.043295
H1    H     H_    0.370037 0.825005 0.001665 0.120410
H2    H     H_    0.629825 0.824850 0.998360 0.119991
H3    H     H_    0.870188 0.325114 0.001631 0.120000
H4    H     H_    0.129976 0.324768 0.998341 0.120395
H5    H     H_    0.111977 0.587563 0.446673 0.168393
H6    H     H_    0.841509 0.715376 0.575052 0.169190
H7    H     H_    0.658474 0.215333 0.424963 0.169200
H8    H     H_    0.387971 0.087766 0.553357 0.168437
H9    H     H_    0.312209 0.399039 0.450471 0.196537
H10   H     H_    0.652406 0.493577 0.566659 0.194126
H11   H     H_    0.847595 0.993587 0.433344 0.194109
H12   H     H_    0.187835 0.898937 0.549500 0.196482
H13   H     H_    0.331025 0.455952 0.575770 0.179921
H14   H     H_    0.648449 0.510216 0.436843 0.169865
H15   H     H_    0.851539 0.010174 0.563164 0.169845
H16   H     H_    0.169032 0.955827 0.424194 0.179889
H17   H     H_    0.461029 0.008802 0.063784 0.117870
H18   H     H_    0.538918 0.008717 0.936215 0.117008
H19   H     H_    0.961213 0.508861 0.063729 0.116971
H20   H     H_    0.039125 0.508674 0.936167 0.117946
H21   H     H_    0.540550 0.640513 0.938047 0.126878
H22   H     H_    0.459240 0.640617 0.062041 0.128811
H23   H     H_    0.040648 0.140491 0.938010 0.128747
H24   H     H_    0.959337 0.140658 0.062000 0.126904
H25   H     H_    0.360425 0.531927 0.941966 0.131585
H26   H     H_    0.639446 0.532557 0.057948 0.131323
H27   H     H_    0.860527 0.032455 0.942037 0.131321
H28   H     H_    0.139487 0.032357 0.057977 0.131585
H29   H     H_    0.347531 0.503251 0.070733 0.125642
H30   H     H_    0.652386 0.503848 0.929193 0.123671
H31   H     H_    0.847597 0.003751 0.070795 0.123677
H32   H     H_    0.152413 0.003661 0.929217 0.125582
H33   H     H_    0.128908 0.620558 0.049512 0.137947
H34   H     H_    0.871251 0.619644 0.950602 0.138265
H35   H     H_    0.628791 0.119822 0.049424 0.138277
H36   H     H_    0.371203 0.119916 0.950569 0.137915
H37   H     H_    0.140486 0.642088 0.923634 0.132388
H38   H     H_    0.859595 0.641301 0.076495 0.131301
H39   H     H_    0.640427 0.141446 0.923530 0.131310
H40   H     H_    0.359567 0.141546 0.076457 0.132337
H41   H     H_    0.543044 0.016344 0.443413 0.189288
H42   H     H_    0.518069 0.012317 0.571004 0.178248
H43   H     H_    0.981869 0.512286 0.428981 0.178239
H44   H     H_    0.956896 0.516311 0.556572 0.189287
O1    O     O_R   0.214270 0.709000 0.827470 -0.516500
O2    O     O_R   0.785730 0.709000 0.172530 -0.518243
O3    O     O_R   0.714270 0.209000 0.827470 -0.518253
O4    O     O_R   0.285730 0.209000 0.172530 -0.516475
O5    O     O_R   0.445950 0.919440 0.676520 -0.519403
O6    O     O_R   0.554050 0.919440 0.323480 -0.493082
O7    O     O_R   0.945950 0.419440 0.676520 -0.493069
O8    O     O_R   0.054050 0.419440 0.323480 -0.519433
O9    O     O_R   0.456730 0.717630 0.669840 -0.473421
O10   O     O_R   0.543270 0.717630 0.330160 -0.477050
O11   O     O_R   0.956730 0.217630 0.669840 -0.477054
O12   O     O_R   0.043270 0.217630 0.330160 -0.473417
O13   O     O_R   0.320620 0.625640 0.672920 -0.495344
O14   O     O_R   0.679380 0.625640 0.327080 -0.508069
O15   O     O_R   0.820620 0.125640 0.672920 -0.508063
O16   O     O_R   0.179380 0.125640 0.327080 -0.495330
O17   O     O_3   0.334280 0.834290 0.749180 -0.306172
O18   O     O_3   0.665720 0.834290 0.250820 -0.277064
O19   O     O_3   0.834280 0.334290 0.749180 -0.277053
O20   O     O_3   0.165720 0.334290 0.250820 -0.306196
O21   O     O_R   0.236160 0.958490 0.823130 -0.494163
O22   O     O_R   0.763840 0.958490 0.176870 -0.504626
O23   O     O_R   0.736160 0.458490 0.823130 -0.504620
O24   O     O_R   0.263840 0.458490 0.176870 -0.494173
O25   O     O_R   0.332080 0.075470 0.831280 -0.524656
O26   O     O_R   0.667920 0.075470 0.168720 -0.531158
O27   O     O_R   0.832080 0.575470 0.831280 -0.531148
O28   O     O_R   0.167920 0.575470 0.168720 -0.524685
O29   O     O_R   0.446300 0.918110 0.826620 -0.501938
O30   O     O_R   0.553700 0.918110 0.173380 -0.501093
O31   O     O_R   0.946300 0.418110 0.826620 -0.501100
O32   O     O_R   0.053700 0.418110 0.173380 -0.501910
O33   O     O_R   0.457110 0.716200 0.831760 -0.516026
O34   O     O_R   0.542890 0.716200 0.168240 -0.514289
O35   O     O_R   0.957110 0.216200 0.831760 -0.514281
O36   O     O_R   0.042890 0.216200 0.168240 -0.516058
O37   O     O_R   0.320980 0.624310 0.823030 -0.518673
O38   O     O_R   0.679020 0.624310 0.176970 -0.521524
O39   O     O_R   0.820980 0.124310 0.823030 -0.521521
O40   O     O_R   0.179020 0.124310 0.176970 -0.518691
O41   O     O_R   0.213890 0.710430 0.665540 -0.491007
O42   O     O_R   0.786110 0.710430 0.334460 -0.474641
O43   O     O_R   0.713890 0.210430 0.665540 -0.474625
O44   O     O_R   0.286110 0.210430 0.334460 -0.491026
O45   O     O_R   0.235810 0.959820 0.673020 -0.463646
O46   O     O_R   0.764190 0.959820 0.326980 -0.485202
O47   O     O_R   0.735810 0.459820 0.673020 -0.485195
O48   O     O_R   0.264190 0.459820 0.326980 -0.463631
O49   O     O_R   0.331700 0.076900 0.669350 -0.502456
O50   O     O_R   0.668300 0.076900 0.330650 -0.521141
O51   O     O_R   0.831700 0.576900 0.669350 -0.521144
O52   O     O_R   0.168300 0.576900 0.330650 -0.502388
I1    I     I_    0.081137 0.688624 0.587669 -0.326638
I2    I     I_    0.901898 0.737367 0.435632 -0.365984
I3    I     I_    0.598093 0.237336 0.564383 -0.365968
I4    I     I_    0.418851 0.188771 0.412384 -0.326694
I5    I     I_    0.479478 0.529786 0.565685 -0.298531
I6    I     I_    0.417305 0.593286 0.388985 -0.262112
I7    I     I_    0.082736 0.093364 0.611030 -0.262081
I8    I     I_    0.020581 0.029787 0.434331 -0.298465

loop_
_geom_bond_atom_site_label_1
_geom_bond_atom_site_label_2
_ccdc_geom_bond_type
C58   C62   A    
C14   H30   S    
Cr11  O35   S    
C88   O16   A    
C73   O37   A    
C8    H24   S    
C34   C37   A    
Cr4   O44   S    
C41   C42   A    
C14   C18   A    
Cr1   O17   S    
C35   C36   A    
C40   C83   S    
C87   O43   A    
Cr8   O52   S    
Cr3   O3    S    
Cr2   O2    S    
C74   O38   A    
C5    C94   S    
C94   H2    S    
C47   C99   S    
C7    C8    S    
Cr4   O20   S    
C55   H7    S    
C15   C19   A    
C7    C96   S    
Cr8   O8    S    
C50   C54   A    
C7    C99   S    
Cr11  O19   S    
C64   C68   A    
C25   H37   S    
C92   H20   S    
Cr4   O4    S    
C39   C84   S    
C38   C42   A    
C77   O49   A    
Cr2   O42   S    
C82   O10   A    
C5    C6    S    
C30   C74   S    
C91   H19   S    
C53   H5    S    
C67   C71   A    
C29   C73   S    
C94   C98   S    
C95   C99   S    
Cr12  O12   S    
Cr7   O31   S    
C92   C96   S    
C89   H17   S    
C46   O34   A    
C3    C18   S    
C61   H9    S    
C2    O26   A    
Cr1   O41   S    
Cr5   O29   S    
C57   C61   A    
C9    C13   A    
Cr6   O26   S    
C11   H27   S    
C76   O40   A    
C9    H25   S    
Cr12  O40   S    
C22   H34   S    
Cr9   O33   S    
Cr10  O38   S    
C12   H28   S    
Cr9   O37   S    
C23   C27   A    
C91   C100  S    
Cr3   O47   S    
C24   C28   A    
C68   H16   S    
C90   C97   S    
Cr7   O51   S    
C84   O8    A    
C9    C29   A    
Cr6   O6    S    
C46   C98   S    
C42   H42   S    
C11   C31   A    
C49   C69   A    
C12   C32   A    
C89   C93   S    
C56   H8    S    
C57   C80   S    
Cr6   O50   S    
C8    C95   S    
C1    O21   A    
C4    O24   A    
C43   H43   S    
C59   C78   S    
C72   C88   S    
Cr9   O13   S    
C90   C94   S    
C41   H41   S    
Cr10  O18   S    
C25   C29   A    
C48   C100  S    
C63   C67   A    
C60   C77   S    
C59   C63   A    
Cr8   O28   S    
C27   C31   A    
C44   H44   S    
C12   C16   A    
C28   C32   A    
Cr6   O30   S    
C33   I5    S    
C34   I6    S    
C95   H3    S    
C91   C92   S    
Cr1   O45   S    
C62   C66   A    
C19   C23   A    
C93   H1    S    
C82   O6    A    
C51   C55   A    
C64   H12   S    
Cr3   O23   S    
C83   O11   A    
C1    O25   A    
Cr10  O34   S    
C17   C21   A    
C3    O23   A    
Cr7   O27   S    
C68   C72   A    
C65   H13   S    
Cr4   O24   S    
C5    H21   S    
C43   C44   A    
C78   O50   A    
C7    H23   S    
C52   C72   A    
C67   H15   S    
Cr12  O36   S    
C10   C30   A    
C93   C97   S    
C31   C75   S    
C26   H38   S    
C16   C20   A    
C6    C93   S    
C87   O15   A    
C77   O45   A    
Cr3   O19   S    
C33   C34   A    
Cr6   O18   S    
Cr3   O43   S    
C4    O28   A    
C74   O2    A    
Cr5   O49   S    
C50   I2    S    
C22   C26   A    
Cr9   O9    S    
C58   C79   S    
C86   O42   A    
C15   H31   S    
C4    C17   S    
Cr10  O14   S    
Cr4   O48   S    
C45   O33   A    
C80   O52   A    
C5    C97   S    
C26   C30   A    
C83   O7    A    
C11   C15   A    
C54   H6    S    
C38   C81   S    
C24   H36   S    
Cr2   O22   S    
C71   C87   S    
C37   C82   S    
Cr7   O19   S    
Cr11  O11   S    
C47   O31   A    
Cr12  O20   S    
C70   C86   S    
C6    C98   S    
C62   H10   S    
C69   C85   S    
C55   C59   A    
C54   C58   A    
C75   O3    A    
C21   C25   A    
C76   O4    A    
C1    C20   S    
C27   H39   S    
C16   H32   S    
C2    C19   S    
C86   O14   A    
C81   O5    A    
C13   H29   S    
Cr8   O32   S    
C36   C39   A    
C78   O46   A    
Cr7   O7    S    
C53   C57   A    
C32   C76   S    
C63   H11   S    
C51   C71   A    
C47   O35   A    
C48   O32   A    
C73   O1    A    
Cr2   O18   S    
C10   H26   S    
C66   C70   A    
C79   O47   A    
C33   C38   A    
C13   C17   A    
C89   C98   S    
C60   C64   A    
C88   O44   A    
C28   H40   S    
C18   C22   A    
C35   C40   A    
C50   C70   A    
C66   H14   S    
C6    H22   S    
C35   I7    S    
C45   C97   S    
C36   I8    S    
Cr10  O10   S    
C45   O29   A    
C8    C100  S    
Cr12  O16   S    
C23   H35   S    
C65   C69   A    
C96   C100  S    
C91   C95   S    
Cr9   O17   S    
C79   O51   A    
C61   C65   A    
C37   C41   A    
C85   O13   A    
C48   O36   A    
C49   C53   A    
Cr1   O21   S    
Cr1   O1    S    
C10   C14   A    
C90   H18   S    
C51   I3    S    
C40   C44   A    
C56   C60   A    
C84   O12   A    
C46   O30   A    
Cr2   O46   S    
Cr8   O20   S    
C39   C43   A    
C49   I1    S    
C52   I4    S    
C81   O9    A    
C85   O41   A    
C96   H4    S    
Cr5   O5    S    
Cr5   O17   S    
C2    O22   A    
Cr5   O25   S    
C89   C90   S    
C80   O48   A    
C3    O27   A    
C20   C24   A    
C21   H33   S    
C52   C56   A    
C92   C99   S    
Cr11  O39   S    
Cr11  O15   S    
C75   O39   A    
