data_mof_unit_54082.cif
_audit_creation_date              2012-12-10T17:48:52-0500
_audit_creation_method            fapswitch 2.2
_symmetry_space_group_name_H-M    P1
_symmetry_Int_Tables_number       1
_space_group_crystal_system       triclinic
_cell_length_a                    10.729736
_cell_length_b                    14.732839
_cell_length_c                    14.767358
_cell_angle_alpha                 65.021837
_cell_angle_beta                  103.805913
_cell_angle_gamma                 103.186161
_cell_volume                      2033.32422415

loop_
_atom_site_label
_atom_site_type_symbol
_atom_type_description
_atom_site_fract_x
_atom_site_fract_y
_atom_site_fract_z
_atom_type_partial_charge
C1    C     C_R   0.479244 0.119672 0.312363 0.797566
C2    C     C_3   0.877862 0.999301 0.499835 0.153642
C3    C     C_3   0.958736 0.986872 0.605491 -0.384699
C4    C     C_3   0.932961 0.100153 0.419706 -0.367302
C5    C     C_R   0.476585 0.187361 0.205269 -0.059945
C6    C     C_R   0.540615 0.812704 0.795195 -0.065455
C7    C     C_R   0.473593 0.216807 0.030864 -0.187641
C8    C     C_R   0.465865 0.149948 0.130546 -0.195314
C9    C     C_R   0.493212 0.291846 0.179087 -0.251522
C10   C     C_R   0.507465 0.360963 0.080206 0.089798
C11   C     C_R   0.494573 0.321724 0.005204 0.160518
C12   C     C_R   0.259875 0.000032 0.499882 0.758097
C13   C     C_R   0.532611 0.467582 0.053766 0.064666
C14   C     C_R   0.531703 0.533630 0.950228 0.065438
C15   C     C_R   0.520892 0.491269 0.878092 -0.222403
C16   C     C_R   0.503499 0.387376 0.905495 -0.223697
C17   C     C_R   0.561548 0.510322 0.127524 -0.222655
C18   C     C_R   0.581621 0.614253 0.100282 -0.227143
C19   C     C_R   0.571055 0.679519 0.998841 0.158557
C20   C     C_R   0.544044 0.640002 0.922626 0.089680
C21   C     C_R   0.586428 0.784271 0.972778 -0.190622
C22   C     C_R   0.572143 0.850568 0.871527 -0.177768
C23   C     C_R   0.522865 0.880320 0.687662 0.791217
C24   C     C_R   0.526254 0.708314 0.821151 -0.257039
C25   C     C_R   0.707484 0.286495 0.671418 -0.274237
C26   C     C_R   0.678637 0.203773 0.643494 0.193906
C27   C     C_R   0.519694 0.286072 0.506502 -0.017926
C28   C     C_R   0.545841 0.372134 0.533112 -0.016477
C29   C     C_R   0.642254 0.369521 0.617714 0.113630
C30   C     C_R   0.480153 0.459689 0.480771 0.083517
C31   C     C_R   0.514178 0.541775 0.514817 0.080994
C32   C     C_R   0.610694 0.533336 0.600285 -0.237951
C33   C     C_R   0.673240 0.449145 0.650189 -0.198163
C34   C     C_R   0.740023 0.999733 0.500025 0.748624
C35   C     C_R   0.381468 0.468021 0.396385 -0.241302
C36   C     C_R   0.317047 0.552381 0.347868 -0.195678
C37   C     C_R   0.349482 0.632463 0.380290 0.161944
C38   C     C_R   0.449567 0.629289 0.463155 -0.022291
C39   C     C_R   0.282900 0.716393 0.329984 -0.317802
C40   C     C_R   0.316756 0.797141 0.361015 0.073428
C41   C     C_R   0.480800 0.714975 0.489922 0.002050
C42   C     C_3   0.034779 0.911071 0.473563 -0.367172
C43   C     C_3   0.892122 0.910622 0.474086 -0.368084
C44   C     C_3   0.102458 0.986333 0.605657 -0.365427
C45   C     C_3   0.077090 0.100537 0.420074 -0.386760
C46   C     C_3   0.121660 0.999583 0.499793 0.150674
Cu1   Cu    Cu3+1 0.465900 0.918260 0.475680 0.925079
Cu2   Cu    Cu3+1 0.534100 0.081740 0.524320 0.918918
H1    H     H_    0.064539 0.837302 0.529570 0.174459
H2    H     H_    0.923964 0.165346 0.436034 0.175237
H3    H     H_    0.163640 0.048558 0.626855 0.177605
H4    H     H_    0.951709 0.050144 0.625512 0.170738
H5    H     H_    0.496189 0.358244 0.847852 0.153981
H6    H     H_    0.497291 0.681786 0.760587 0.152239
H7    H     H_    0.583933 0.931084 0.853109 0.176770
H8    H     H_    0.603765 0.643683 0.159255 0.148103
H9    H     H_    0.464716 0.186497 0.973928 0.139673
H10   H     H_    0.453026 0.069313 0.149248 0.155611
H11   H     H_    0.493254 0.317358 0.237427 0.145521
H12   H     H_    0.045945 0.918718 0.397484 0.166853
H13   H     H_    0.529525 0.536370 0.799843 0.141966
H14   H     H_    0.573331 0.465736 0.207722 0.145637
H15   H     H_    0.608515 0.814853 0.030839 0.138742
H16   H     H_    0.746610 0.446124 0.715836 0.144226
H17   H     H_    0.558383 0.720951 0.549393 0.119460
H18   H     H_    0.266026 0.862238 0.321669 0.123650
H19   H     H_    0.241075 0.555103 0.283833 0.143850
H20   H     H_    0.781477 0.286263 0.736045 0.182964
H21   H     H_    0.446088 0.281541 0.444099 0.127983
H22   H     H_    0.834978 0.917467 0.398436 0.173525
H23   H     H_    0.639871 0.590125 0.631938 0.124589
H24   H     H_    0.351108 0.409950 0.366266 0.129892
H25   H     H_    0.205578 0.719813 0.266654 0.140015
H26   H     H_    0.853916 0.836949 0.530797 0.165622
H27   H     H_    0.133273 0.913804 0.663791 0.153704
H28   H     H_    0.920213 0.915133 0.664307 0.152587
H29   H     H_    0.136929 0.165475 0.437281 0.170460
H30   H     H_    0.090596 0.111420 0.343526 0.152024
H31   H     H_    0.876529 0.110188 0.343165 0.155621
N1    N     N_R   0.585360 0.204570 0.560800 -0.216802
N2    N     N_R   0.414550 0.795430 0.439160 -0.176592
O1    O     O_R   0.455060 0.022100 0.338110 -0.586604
O2    O     O_R   0.512640 0.160150 0.379180 -0.587196
O3    O     O_R   0.288900 0.930980 0.479450 -0.588932
O4    O     O_R   0.346480 0.069030 0.520520 -0.585100
O5    O     O_R   0.487360 0.839850 0.620820 -0.585164
O6    O     O_R   0.544940 0.977900 0.661890 -0.605457
O7    O     O_R   0.653520 0.930970 0.479480 -0.586651
O8    O     O_R   0.711100 0.069020 0.520550 -0.614447
C47   C     C_2   0.751196 0.117158 0.707422 0.325158
H32   H     H_    0.758042 0.060619 0.682048 0.130103
O9    O     O_2   0.807469 0.107925 0.792513 -0.585089

loop_
_geom_bond_atom_site_label_1
_geom_bond_atom_site_label_2
_ccdc_geom_bond_type
C35   C36   A    
C36   H19   S    
C7    C8    A    
C45   C46   S    
C7    C11   A    
C12   O4    A    
C1    C5    S    
C36   C37   A    
C19   C21   A    
C30   C31   A    
C24   H6    S    
C15   C16   A    
C6    C22   A    
C29   C33   A    
C12   O3    A    
C18   C19   A    
C42   C46   S    
Cu1   O1    S    
C20   C24   A    
C16   H5    S    
C8    H10   S    
C31   C32   A    
C23   O5    A    
C45   H30   S    
C9    C10   A    
C27   H21   S    
C18   H8    S    
C2    C34   S    
C43   H26   S    
C39   H25   S    
C6    C24   A    
C23   O6    A    
C13   C14   A    
C25   H20   S    
C44   C46   S    
C32   H23   S    
C4    C45   S    
C25   C29   A    
C3    C44   S    
Cu1   O5    S    
C14   C20   A    
C4    H31   S    
C12   C46   S    
C27   N1    A    
C42   H12   S    
C39   C40   A    
C41   H17   S    
C25   C26   A    
C26   N1    A    
C4    H2    S    
C9    H11   S    
C44   H27   S    
C2    C4    S    
C5    C9    A    
C37   C38   A    
C17   H14   S    
C11   C16   A    
C47   O9    D    
Cu1   Cu2   S    
C2    C43   S    
C41   N2    A    
C17   C18   A    
C15   H13   S    
Cu2   O6    S    
C34   O7    A    
Cu1   O3    S    
C3    H28   S    
C38   C41   A    
C30   C35   A    
C44   H3    S    
C35   H24   S    
C43   H22   S    
Cu2   O8    S    
C26   C47   S    
C42   C43   S    
C28   C29   A    
C14   C15   A    
C40   N2    A    
C10   C13   A    
C5    C8    A    
C3    H4    S    
Cu2   O2    S    
C22   H7    S    
C1    O2    A    
C31   C38   A    
C13   C17   A    
Cu1   O7    S    
Cu2   N1    S    
C19   C20   A    
C28   C30   A    
C2    C3    S    
C1    O1    A    
C34   O8    A    
C37   C39   A    
C32   C33   A    
C47   H32   S    
C33   H16   S    
C6    C23   S    
C40   H18   S    
Cu1   N2    S    
C21   H15   S    
C10   C11   A    
C42   H1    S    
C27   C28   A    
Cu2   O4    S    
C45   H29   S    
C21   C22   A    
C7    H9    S    
