data_mof_unit_24861.cif
_audit_creation_date              2012-12-10T20:02:25-0500
_audit_creation_method            fapswitch 2.2
_symmetry_space_group_name_H-M    P1
_symmetry_Int_Tables_number       1
_space_group_crystal_system       triclinic
_cell_length_a                    18.250422
_cell_length_b                    18.477894
_cell_length_c                    18.497424
_cell_angle_alpha                 120.470754
_cell_angle_beta                  119.947755
_cell_angle_gamma                 89.842147
_cell_volume                      4388.85642526

loop_
_atom_site_label
_atom_site_type_symbol
_atom_type_description
_atom_site_fract_x
_atom_site_fract_y
_atom_site_fract_z
_atom_type_partial_charge
C1    C     C_R   0.139448 0.140507 0.779729 0.792867
C2    C     C_R   0.715611 0.812923 0.479567 -0.066935
C3    C     C_R   0.502224 0.111735 0.287024 -0.144459
C4    C     C_R   0.550068 0.715672 0.266554 0.119431
C5    C     C_R   0.603622 0.663040 0.250338 -0.114098
C6    C     C_R   0.567769 0.570130 0.189723 -0.169962
C7    C     C_R   0.477866 0.528607 0.143233 -0.109650
C8    C     C_R   0.423521 0.579939 0.156914 -0.097781
C9    C     C_R   0.459232 0.672868 0.218147 -0.119648
C10   C     C_R   0.871679 0.684942 0.680372 -0.091318
C11   C     C_R   0.859875 0.860671 0.219964 0.802760
C12   C     C_R   0.937111 0.655308 0.728922 0.177149
C13   C     C_R   0.968072 0.594769 0.676481 -0.156899
C14   C     C_R   0.930466 0.560316 0.573964 -0.182087
C15   C     C_R   0.864122 0.588750 0.524746 -0.195268
C16   C     C_R   0.835232 0.652438 0.578118 0.121475
C17   C     C_R   0.712261 0.785431 0.050167 0.063687
C18   C     C_R   0.804873 0.804967 0.108563 -0.104604
C19   C     C_R   0.588748 0.815040 0.336323 0.083991
C20   C     C_R   0.844015 0.766521 0.054577 -0.200611
C21   C     C_R   0.790407 0.711115 0.946518 -0.213024
C22   C     C_R   0.696515 0.691160 0.890739 -0.066332
C23   C     C_R   0.859666 0.139734 0.498700 0.801170
C24   C     C_R   0.660678 0.726733 0.946752 0.094232
C25   C     C_3   0.574776 0.733249 0.934617 -0.538519
C26   C     C_3   0.632826 0.803733 0.052515 0.145343
C27   C     C_R   0.232721 0.787519 0.573472 0.114144
C28   C     C_R   0.189963 0.798580 0.494510 -0.071780
C29   C     C_R   0.195333 0.748409 0.410482 -0.232145
C30   C     C_R   0.539764 0.864329 0.305204 -0.132392
C31   C     C_R   0.250176 0.695354 0.411658 -0.214938
C32   C     C_R   0.301407 0.693215 0.497657 -0.081455
C33   C     C_R   0.289953 0.738448 0.576845 0.079845
C34   C     C_3   0.356074 0.805041 0.691423 -0.205828
C35   C     C_R   0.139233 0.859438 0.499120 0.795135
C36   C     C_3   0.290588 0.856716 0.686936 -0.516616
C37   C     C_R   0.228976 0.162848 0.947056 0.121511
C38   C     C_R   0.194093 0.198592 0.891399 -0.133948
C39   C     C_R   0.215679 0.293272 0.949413 -0.045010
C40   C     C_R   0.270261 0.345045 0.057359 -0.288213
C41   C     C_R   0.569241 0.956874 0.372103 -0.132271
C42   C     C_R   0.304235 0.305345 0.109681 -0.092541
C43   C     C_R   0.281291 0.213493 0.050690 0.137123
C44   C     C_3   0.295539 0.136387 0.055749 -0.487750
C45   C     C_3   0.235864 0.078362 0.937415 -0.468677
C46   C     C_R   0.244843 0.283316 0.579677 0.117960
C47   C     C_R   0.139798 0.139800 0.499777 0.796687
C48   C     C_R   0.194720 0.194559 0.498238 -0.064635
C49   C     C_R   0.200512 0.159173 0.414078 -0.231989
C50   C     C_R   0.254533 0.213440 0.414170 -0.231860
C51   C     C_R   0.304691 0.303480 0.499111 -0.090152
C52   C     C_R   0.668797 0.765901 0.492660 0.121917
C53   C     C_R   0.299249 0.334741 0.581645 0.084653
C54   C     C_3   0.332157 0.414079 0.687132 -0.209038
C55   C     C_3   0.269057 0.354502 0.683529 -0.533312
C56   C     C_R   0.840862 0.286959 0.569107 0.135396
C57   C     C_R   0.802943 0.194581 0.501718 -0.087466
C58   C     C_R   0.709861 0.155373 0.444380 -0.286404
C59   C     C_R   0.858984 0.861589 0.500762 0.795211
C60   C     C_R   0.655193 0.208211 0.450409 -0.037969
C61   C     C_R   0.694039 0.302146 0.508708 -0.123870
C62   C     C_R   0.787257 0.339558 0.572466 0.099571
C63   C     C_R   0.700182 0.703759 0.511846 -0.106913
C64   C     C_3   0.845573 0.406820 0.584928 -0.447840
C65   C     C_3   0.903233 0.347948 0.577825 -0.498842
C66   C     C_R   0.360760 0.640647 0.500869 0.818429
C67   C     C_R   0.639810 0.359614 0.501831 0.791249
C68   C     C_R   0.640144 0.638510 0.779750 0.817569
C69   C     C_R   0.360479 0.360043 0.220539 0.801780
C70   C     C_R   0.359848 0.359985 0.499594 0.782802
C71   C     C_R   0.648777 0.002121 0.470555 -0.145890
C72   C     C_R   0.641151 0.641558 0.502620 0.832104
C73   C     C_R   0.699677 0.954899 0.502386 -0.097411
C74   C     C_R   0.787270 0.701830 0.537870 -0.031411
C75   C     C_R   0.670159 0.861534 0.436665 0.131987
C76   C     C_R   0.626849 0.895659 0.082211 0.153541
C77   C     C_R   0.542956 0.907624 0.053659 -0.155552
C78   C     C_R   0.533944 0.990314 0.076721 -0.165611
C79   C     C_R   0.608889 0.062694 0.130700 -0.111273
C80   C     C_R   0.692874 0.052328 0.161232 -0.149361
C81   C     C_R   0.702035 0.969372 0.136999 -0.132943
C82   C     C_R   0.445756 0.858322 0.728802 0.168821
C83   C     C_R   0.453130 0.888749 0.675742 -0.140614
C84   C     C_R   0.536418 0.940567 0.715020 -0.118579
C85   C     C_R   0.836554 0.755168 0.534097 -0.239951
C86   C     C_R   0.613079 0.962750 0.807365 -0.114684
C87   C     C_R   0.606281 0.934625 0.861670 -0.135641
C88   C     C_R   0.522987 0.883598 0.823111 -0.148582
C89   C     C_R   0.183336 0.342471 0.903453 0.185069
C90   C     C_R   0.240875 0.387842 0.899090 -0.149914
C91   C     C_R   0.214828 0.443837 0.868071 -0.150207
C92   C     C_R   0.131205 0.454426 0.840796 -0.117159
C93   C     C_R   0.073053 0.408319 0.843514 -0.132563
C94   C     C_R   0.099028 0.352560 0.874971 -0.119490
C95   C     C_R   0.430403 0.442691 0.771864 0.181311
C96   C     C_R   0.801569 0.808913 0.503116 -0.102624
C97   C     C_R   0.495165 0.419221 0.751958 -0.107753
C98   C     C_R   0.585134 0.449057 0.832852 -0.170404
C99   C     C_R   0.611455 0.501304 0.934231 -0.104279
C100  C     C_R   0.547858 0.524026 0.954860 -0.122020
C101  C     C_R   0.458201 0.496217 0.874502 -0.177602
C102  C     C_R   0.558739 0.162874 0.394625 0.163500
C103  C     C_R   0.522971 0.171470 0.449364 -0.138489
C104  C     C_R   0.431610 0.129051 0.396713 -0.117350
C105  C     C_R   0.375590 0.078090 0.289409 -0.107662
C106  C     C_R   0.410889 0.069406 0.234599 -0.155516
H1    H     H_    0.529436 0.993161 0.347474 0.158153
H2    H     H_    0.670451 0.073885 0.522904 0.132645
H3    H     H_    0.254502 0.658375 0.346869 0.179664
H4    H     H_    0.361921 0.775663 0.733014 0.152921
H5    H     H_    0.258357 0.854793 0.723758 0.199991
H6    H     H_    0.315505 0.924090 0.708221 0.195426
H7    H     H_    0.285475 0.416653 0.100124 0.179503
H8    H     H_    0.366625 0.139031 0.089405 0.198390
H9    H     H_    0.264510 0.124526 0.089091 0.211669
H10   H     H_    0.272615 0.047520 0.902996 0.200975
H11   H     H_    0.760032 0.990732 0.579983 0.108018
H12   H     H_    0.019923 0.572983 0.714444 0.147088
H13   H     H_    0.170357 0.032817 0.902319 0.214471
H14   H     H_    0.162803 0.090363 0.348005 0.175535
H15   H     H_    0.256400 0.185131 0.347789 0.172913
H16   H     H_    0.310660 0.470409 0.687003 0.162766
H17   H     H_    0.303428 0.336507 0.738339 0.205648
H18   H     H_    0.211212 0.376218 0.679957 0.204255
H19   H     H_    0.679336 0.083591 0.393829 0.199051
H20   H     H_    0.811003 0.412152 0.519337 0.212319
H21   H     H_    0.878889 0.470307 0.662521 0.226411
H22   H     H_    0.900631 0.317087 0.506641 0.197883
H23   H     H_    0.953795 0.512636 0.533167 0.146153
H24   H     H_    0.971649 0.379403 0.649463 0.211683
H25   H     H_    0.477594 0.830918 0.229342 0.141756
H26   H     H_    0.903385 0.753746 0.554783 0.179161
H27   H     H_    0.852333 0.736188 0.723634 0.150168
H28   H     H_    0.484096 0.852276 0.011918 0.146611
H29   H     H_    0.468814 0.998348 0.053053 0.126916
H30   H     H_    0.601907 0.126876 0.149129 0.121432
H31   H     H_    0.750967 0.108578 0.203348 0.122566
H32   H     H_    0.767775 0.963519 0.160935 0.110271
H33   H     H_    0.394610 0.873669 0.604900 0.153789
H34   H     H_    0.838767 0.564933 0.446926 0.133529
H35   H     H_    0.541437 0.963964 0.674059 0.157003
H36   H     H_    0.677486 0.002766 0.837522 0.131389
H37   H     H_    0.665293 0.953347 0.934365 0.140538
H38   H     H_    0.518228 0.865919 0.868227 0.125716
H39   H     H_    0.306438 0.381293 0.921753 0.116070
H40   H     H_    0.259937 0.479988 0.866540 0.129745
H41   H     H_    0.111574 0.498547 0.817810 0.129014
H42   H     H_    0.008329 0.416687 0.822495 0.136438
H43   H     H_    0.054530 0.318910 0.879379 0.111374
H44   H     H_    0.477265 0.377891 0.674674 0.107350
H45   H     H_    0.915730 0.779380 0.095292 0.188301
H46   H     H_    0.634410 0.431149 0.816803 0.125896
H47   H     H_    0.681029 0.523891 0.996771 0.132542
H48   H     H_    0.568154 0.563559 0.033296 0.170767
H49   H     H_    0.410156 0.515719 0.892270 0.140326
H50   H     H_    0.565830 0.210880 0.532493 0.105772
H51   H     H_    0.404285 0.135686 0.439104 0.136667
H52   H     H_    0.304868 0.045358 0.248767 0.128079
H53   H     H_    0.367503 0.029964 0.151550 0.134329
H54   H     H_    0.528915 0.105629 0.244356 0.134720
H55   H     H_    0.673078 0.693765 0.284317 0.147625
H56   H     H_    0.822407 0.684236 0.907222 0.201058
H57   H     H_    0.609681 0.530289 0.178406 0.126766
H58   H     H_    0.450369 0.456687 0.096625 0.121783
H59   H     H_    0.353820 0.547873 0.120819 0.130984
H60   H     H_    0.416425 0.711406 0.229714 0.136625
H61   H     H_    0.539823 0.758359 0.887963 0.183405
H62   H     H_    0.532582 0.670081 0.907631 0.232155
H63   H     H_    0.159358 0.752013 0.345510 0.177864
I1    I     I_    0.609802 0.764178 0.131352 -0.444123
I2    I     I_    0.558310 0.800979 0.499285 -0.414343
I3    I     I_    0.991723 0.704530 0.882467 -0.478153
O1    O     O_3   0.000000 0.000000 0.500000 -0.486577
O2    O     O_R   0.384160 0.323450 0.268320 -0.641526
O3    O     O_R   0.384130 0.444860 0.560610 -0.646706
O4    O     O_R   0.115780 0.055050 0.731580 -0.640186
O5    O     O_R   0.555060 0.615780 0.439210 -0.600123
O6    O     O_R   0.384140 0.323430 0.439180 -0.639868
O7    O     O_R   0.676490 0.615760 0.560640 -0.651989
O8    O     O_R   0.676470 0.615740 0.731500 -0.644952
O9    O     O_R   0.384180 0.444900 0.268330 -0.648644
O10   O     O_R   0.384150 0.615750 0.560620 -0.648760
O11   O     O_R   0.555030 0.323430 0.439190 -0.631930
O12   O     O_R   0.823480 0.055090 0.439280 -0.634780
O13   O     O_R   0.823490 0.884220 0.268410 -0.614131
O14   O     O_R   0.944920 0.176520 0.560720 -0.638902
O15   O     O_R   0.115810 0.884200 0.439290 -0.645605
O16   O     O_R   0.115820 0.176530 0.560730 -0.638697
O17   O     O_R   0.944890 0.884180 0.560700 -0.643737
O18   O     O_R   0.115830 0.055100 0.439300 -0.647229
O19   O     O_R   0.823460 0.884190 0.439270 -0.629072
O20   O     O_R   0.115790 0.884180 0.560710 -0.638998
O21   O     O_R   0.115790 0.176500 0.731590 -0.636951
O22   O     O_R   0.944940 0.884220 0.268420 -0.651034
O23   O     O_3   0.499960 0.499960 0.499910 -0.487980
O24   O     O_R   0.384170 0.615770 0.439200 -0.627274
O25   O     O_R   0.676480 0.444870 0.560630 -0.637727
O26   O     O_R   0.555020 0.615730 0.731490 -0.638485
Zn1   Zn    Zn3+2 0.869870 0.956630 0.413250 0.990827
Zn2   Zn    Zn3+2 0.043380 0.130130 0.586750 0.964577
Zn3   Zn    Zn3+2 0.043390 0.956630 0.413260 0.960353
Zn4   Zn    Zn3+2 0.043360 0.956610 0.586740 0.956261
Zn5   Zn    Zn3+2 0.630090 0.543330 0.586660 0.973630
Zn6   Zn    Zn3+2 0.456570 0.543320 0.586650 0.963564
Zn7   Zn    Zn3+2 0.456580 0.369830 0.413160 0.964118
Zn8   Zn    Zn3+2 0.456590 0.543350 0.413170 0.991286

loop_
_geom_bond_atom_site_label_1
_geom_bond_atom_site_label_2
_ccdc_geom_bond_type
C87   C88   A    
C11   C18   S    
C93   C94   A    
O1    Zn1   S    
C59   O19   A    
C10   H27   S    
C104  H51   S    
O8    Zn5   S    
C6    H57   S    
C83   H33   S    
C65   H24   S    
C90   C91   A    
C7    C8    A    
C12   I3    S    
C98   H46   S    
C53   C54   S    
C25   H61   S    
C94   H43   S    
C79   H30   S    
C106  H53   S    
C35   O20   A    
C71   H2    S    
O10   Zn6   S    
C17   C26   S    
C22   C24   A    
C68   O26   A    
C28   C29   A    
O19   Zn1   S    
O3    Zn6   S    
C90   H39   S    
C85   H26   S    
C5    C6    A    
C86   C87   A    
C85   C96   A    
C82   C88   A    
C49   H14   S    
O23   Zn5   S    
C101  H49   S    
C40   H7    S    
C15   C16   A    
O6    Zn7   S    
C56   C57   A    
C93   H42   S    
O1    Zn3   S    
C89   C94   A    
C49   C50   A    
C92   C93   A    
C62   C64   S    
C54   C55   S    
C4    C19   S    
C83   C84   A    
C28   C35   S    
C88   H38   S    
C8    C9    A    
C46   C55   S    
C36   H6    S    
O2    Zn7   S    
C26   C76   S    
C97   H44   S    
C11   O22   A    
C30   C41   A    
O25   Zn5   S    
C51   C70   S    
C78   H29   S    
C18   C20   A    
C41   C71   A    
C45   H13   S    
C40   C42   A    
C66   O10   A    
C44   H8    S    
C25   H62   S    
C13   C14   A    
O1    Zn2   S    
C73   C75   A    
O14   Zn2   S    
C102  C103  A    
C50   H15   S    
C72   O5    A    
C60   C102  S    
C10   C12   A    
C52   I2    S    
C104  C105  A    
C97   C98   A    
C46   C48   A    
C3    C106  A    
C81   H32   S    
C55   H17   S    
C63   C72   S    
C17   C24   A    
C73   H11   S    
C65   H22   S    
O4    Zn4   S    
C24   C25   S    
C44   H9    S    
C91   C92   A    
C71   C73   A    
C78   C79   A    
C70   O6    A    
O23   Zn6   S    
C50   C51   A    
C25   C26   S    
C77   C78   A    
O22   Zn3   S    
C68   O8    A    
C42   C69   S    
O13   Zn1   S    
C60   C61   A    
C51   C53   A    
C5    H55   S    
C37   C43   A    
C1    O21   A    
C43   C44   S    
C87   H37   S    
C37   C38   A    
C2    C52   A    
C56   C65   S    
C61   C67   S    
C80   H31   S    
C47   C48   S    
O23   Zn7   S    
O12   Zn1   S    
C36   H5    S    
C17   C18   A    
C31   H3    S    
C76   C77   A    
C27   C33   A    
C22   C68   S    
C54   C95   S    
C13   H12   S    
C67   O11   A    
C1    C38   S    
C54   H16   S    
C3    C102  A    
C48   C49   A    
O7    Zn5   S    
C82   C83   A    
C1    O4    A    
O26   Zn6   S    
C3    H54   S    
O11   Zn7   S    
C56   C62   A    
C99   C100  A    
C59   O17   A    
C42   C43   A    
C37   C45   S    
C89   C90   A    
C39   C40   A    
C44   C45   S    
C86   H36   S    
C32   C66   S    
C15   H34   S    
C7    H58   S    
C100  H48   S    
C23   C57   S    
C55   H18   S    
C9    H60   S    
O20   Zn4   S    
C21   H56   S    
C41   H1    S    
C11   O13   A    
C31   C32   A    
C84   C86   A    
C80   C81   A    
C67   O25   A    
C52   C63   A    
C76   C81   A    
C23   O14   A    
C66   O24   A    
C95   C97   A    
O18   Zn3   S    
C6    C7    A    
C16   C74   S    
C63   C74   A    
O17   Zn4   S    
O21   Zn2   S    
C105  C106  A    
O15   Zn3   S    
C64   H20   S    
C20   H45   S    
C27   C36   S    
C29   H63   S    
C32   C33   A    
C47   O18   A    
C19   C75   A    
O5    Zn8   S    
C47   O16   A    
C23   O12   A    
C29   C31   A    
C105  H52   S    
C10   C16   A    
C70   O3    A    
C64   C65   S    
C64   H21   S    
C45   H10   S    
C57   C58   A    
C38   C39   A    
O23   Zn8   S    
C84   H35   S    
C34   H4    S    
C99   H47   S    
C46   C53   A    
C2    C96   A    
C100  C101  A    
C33   C34   S    
C59   C96   S    
O9    Zn8   S    
C34   C36   S    
C74   C85   A    
O24   Zn8   S    
C61   C62   A    
C69   O2    A    
C8    H59   S    
C79   C80   A    
C95   C101  A    
C103  H50   S    
C4    C5    A    
C20   C21   A    
C26   I1    S    
C58   H19   S    
C35   O15   A    
C98   C99   A    
C77   H28   S    
C103  C104  A    
C92   H41   S    
O16   Zn2   S    
C14   C15   A    
O1    Zn4   S    
C34   C82   S    
C72   O7    A    
C12   C13   A    
C4    C9    A    
C21   C22   A    
C19   C30   A    
C58   C60   A    
C39   C89   S    
C91   H40   S    
C2    C75   S    
C30   H25   S    
C69   O9    A    
C27   C28   A    
C14   H23   S    
