data_mof_unit_64701.cif
_audit_creation_date              2012-10-26T17:31:46-0400
_audit_creation_method            fapswitch 2.2
_symmetry_space_group_name_H-M    P1
_symmetry_Int_Tables_number       1
_space_group_crystal_system       triclinic
_cell_length_a                    35.686827
_cell_length_b                    35.686827
_cell_length_c                    35.686825
_cell_angle_alpha                 89.999964
_cell_angle_beta                  89.999964
_cell_angle_gamma                 90.0
_cell_volume                      45448.9424651

loop_
_atom_site_label
_atom_site_type_symbol
_atom_type_description
_atom_site_fract_x
_atom_site_fract_y
_atom_site_fract_z
_atom_type_partial_charge
C1    C     C_R   0.000000 0.500000 0.572254 0.672266
C2    C     C_R   0.500000 1.000000 0.572254 0.672266
C3    C     C_R   0.525942 0.022697 0.365926 -0.006884
C4    C     C_R   0.474058 0.365926 0.022697 -0.006884
C5    C     C_R   0.474058 0.022697 0.634074 -0.006884
C6    C     C_R   0.474058 0.634074 0.977303 -0.006884
C7    C     C_R   0.474058 0.977303 0.365926 -0.006884
C8    C     C_R   0.634074 0.977303 0.474058 -0.006884
C9    C     C_R   0.977303 0.365926 0.474058 -0.006884
C10   C     C_R   0.365926 0.022697 0.474058 -0.006884
C11   C     C_R   0.022697 0.634074 0.474058 -0.006884
C12   C     C_R   0.365926 0.977303 0.525942 -0.006884
C13   C     C_R   0.572254 0.000000 0.500000 0.672266
C14   C     C_R   0.022697 0.365926 0.525942 -0.006884
C15   C     C_R   0.634074 0.022697 0.525942 -0.006884
C16   C     C_R   0.977303 0.634074 0.525942 -0.006884
C17   C     C_R   0.977303 0.525942 0.365926 -0.006884
C18   C     C_R   0.365926 0.525942 0.022697 -0.006884
C19   C     C_R   0.022697 0.525942 0.634074 -0.006884
C20   C     C_R   0.634074 0.525942 0.977303 -0.006884
C21   C     C_R   0.977303 0.474058 0.634074 -0.006884
C22   C     C_R   0.365926 0.474058 0.977303 -0.006884
C23   C     C_R   0.022697 0.474058 0.365926 -0.006884
C24   C     C_R   0.500000 0.000000 0.427746 0.672266
C25   C     C_R   0.634074 0.474058 0.022697 -0.006884
C26   C     C_R   0.000000 0.113769 0.500000 0.066466
C27   C     C_R   0.000000 0.500000 0.113769 0.066466
C28   C     C_R   0.000000 0.886231 0.500000 0.066466
C29   C     C_R   1.000000 0.500000 0.886231 0.066466
C30   C     C_R   0.113769 0.500000 0.000000 0.066466
C31   C     C_R   0.500000 0.886231 0.000000 0.066466
C32   C     C_R   0.886231 0.500000 0.000000 0.066466
C33   C     C_R   0.500000 0.113769 0.000000 0.066466
C34   C     C_R   0.500000 0.000000 0.886231 0.066466
C35   C     C_R   0.500000 0.000000 0.072254 0.672266
C36   C     C_R   0.886231 1.000000 0.500000 0.066466
C37   C     C_R   0.500000 0.000000 0.113769 0.066466
C38   C     C_R   0.113769 1.000000 0.500000 0.066466
C39   C     C_R   0.500000 0.613769 1.000000 0.066466
C40   C     C_R   0.500000 1.000000 0.613769 0.066466
C41   C     C_R   0.500000 0.386231 0.000000 0.066466
C42   C     C_R   0.500000 0.000000 0.386231 0.066466
C43   C     C_R   0.613769 0.000000 0.500000 0.066466
C44   C     C_R   0.000000 0.386231 0.500000 0.066466
C45   C     C_R   0.386231 0.000000 0.500000 0.066466
C46   C     C_R   0.500000 0.927746 0.000000 0.672266
C47   C     C_R   0.000000 0.613769 0.500000 0.066466
C48   C     C_R   0.000000 0.500000 0.386231 0.066466
C49   C     C_R   0.386231 0.500000 0.000000 0.066466
C50   C     C_R   1.000000 0.500000 0.613769 0.066466
C51   C     C_R   0.613769 0.500000 1.000000 0.066466
C52   C     C_R   0.000000 0.192833 0.500000 0.019217
C53   C     C_R   0.000000 0.500000 0.192833 0.019217
C54   C     C_R   0.000000 0.807167 0.500000 0.019217
C55   C     C_R   1.000000 0.500000 0.807167 0.019217
C56   C     C_R   0.192833 0.500000 0.000000 0.019217
C57   C     C_R   0.500000 0.000000 0.927746 0.672266
C58   C     C_R   0.500000 0.807167 1.000000 0.019217
C59   C     C_R   0.807167 0.500000 1.000000 0.019217
C60   C     C_R   0.500000 0.192833 0.000000 0.019217
C61   C     C_R   0.500000 0.000000 0.807167 0.019217
C62   C     C_R   0.807167 1.000000 0.500000 0.019217
C63   C     C_R   0.500000 0.000000 0.192833 0.019217
C64   C     C_R   0.192833 0.000000 0.500000 0.019217
C65   C     C_R   0.500000 0.692833 1.000000 0.019217
C66   C     C_R   0.500000 1.000000 0.692833 0.019217
C67   C     C_R   0.500000 0.307167 0.000000 0.019217
C68   C     C_R   0.500000 0.072254 0.000000 0.672266
C69   C     C_R   0.500000 0.000000 0.307167 0.019217
C70   C     C_R   0.692833 0.000000 0.500000 0.019217
C71   C     C_R   0.000000 0.307167 0.500000 0.019217
C72   C     C_R   0.307167 0.000000 0.500000 0.019217
C73   C     C_R   0.000000 0.692833 0.500000 0.019217
C74   C     C_R   1.000000 0.500000 0.307167 0.019217
C75   C     C_R   0.307167 0.500000 0.000000 0.019217
C76   C     C_R   1.000000 0.500000 0.692833 0.019217
C77   C     C_R   0.692833 0.500000 1.000000 0.019217
C78   C     C_1   0.000000 0.233125 0.500000 -0.012568
C79   C     C_R   0.000000 0.927746 0.500000 0.672266
C80   C     C_1   0.000000 0.500000 0.233125 -0.012568
C81   C     C_1   0.000000 0.766875 0.500000 -0.012568
C82   C     C_1   1.000000 0.500000 0.766875 -0.012568
C83   C     C_1   0.233125 0.500000 0.000000 -0.012568
C84   C     C_1   0.500000 0.766875 1.000000 -0.012568
C85   C     C_1   0.766875 0.500000 1.000000 -0.012568
C86   C     C_1   0.500000 0.233125 0.000000 -0.012568
C87   C     C_1   0.500000 1.000000 0.766875 -0.012568
C88   C     C_1   0.766875 1.000000 0.500000 -0.012568
C89   C     C_1   0.500000 0.000000 0.233125 -0.012568
C90   C     C_R   0.927746 0.000000 0.500000 0.672266
C91   C     C_1   0.233125 0.000000 0.500000 -0.012568
C92   C     C_1   0.500000 0.733125 1.000000 -0.012568
C93   C     C_1   0.500000 1.000000 0.733125 -0.012568
C94   C     C_1   0.500000 0.266875 0.000000 -0.012568
C95   C     C_1   0.500000 0.000000 0.266875 -0.012568
C96   C     C_1   0.733125 0.000000 0.500000 -0.012568
C97   C     C_1   0.000000 0.266875 0.500000 -0.012568
C98   C     C_1   0.266875 0.000000 0.500000 -0.012568
C99   C     C_1   0.000000 0.733125 0.500000 -0.012568
C100  C     C_1   0.000000 0.500000 0.266875 -0.012568
C101  C     C_R   0.000000 0.072254 0.500000 0.672266
C102  C     C_1   0.266875 0.500000 0.000000 -0.012568
C103  C     C_1   1.000000 0.500000 0.733125 -0.012568
C104  C     C_1   0.733125 0.500000 1.000000 -0.012568
C105  C     C_2   0.055540 0.116298 0.546027 0.239024
C106  C     C_2   0.055540 0.453973 0.116298 0.239024
C107  C     C_2   0.055540 0.883702 0.453973 0.239024
C108  C     C_2   0.055540 0.546027 0.883702 0.239023
C109  C     C_2   0.944460 0.883702 0.546027 0.239024
C110  C     C_2   0.944460 0.546027 0.116298 0.239025
C111  C     C_2   0.944460 0.116298 0.453973 0.239024
C112  C     C_R   0.000000 0.427746 0.500000 0.672266
C113  C     C_R   0.072254 0.000000 0.500000 0.672266
C114  C     C_2   0.944460 0.453973 0.883702 0.239024
C115  C     C_2   0.116298 0.453973 0.944460 0.239024
C116  C     C_2   0.453973 0.883702 0.944460 0.239024
C117  C     C_2   0.883702 0.546027 0.944460 0.239024
C118  C     C_2   0.546027 0.116298 0.944460 0.239024
C119  C     C_2   0.883702 0.453972 0.055540 0.239024
C120  C     C_2   0.546027 0.883702 0.055540 0.239024
C121  C     C_2   0.116298 0.546027 0.055540 0.239024
C122  C     C_2   0.453972 0.116298 0.055540 0.239024
C123  C     C_2   0.453973 0.055540 0.883702 0.239025
C124  C     C_R   0.927746 0.500000 0.000000 0.672266
C125  C     C_2   0.883702 0.055540 0.546027 0.239024
C126  C     C_2   0.546027 0.055540 0.116298 0.239023
C127  C     C_2   0.116298 0.055540 0.453972 0.239024
C128  C     C_2   0.453973 0.944460 0.116298 0.239024
C129  C     C_2   0.883702 0.944460 0.453973 0.239024
C130  C     C_2   0.546027 0.944460 0.883702 0.239024
C131  C     C_2   0.116298 0.944460 0.546027 0.239024
C132  C     C_2   0.555540 0.616298 0.046027 0.239024
C133  C     C_2   0.555540 0.953973 0.616298 0.239024
C134  C     C_2   0.555540 0.383702 0.953973 0.239024
C135  C     C_R   0.000000 0.500000 0.072254 0.672266
C136  C     C_2   0.555540 0.046027 0.383702 0.239023
C137  C     C_2   0.444460 0.383702 0.046027 0.239024
C138  C     C_2   0.444460 0.046027 0.616298 0.239025
C139  C     C_2   0.444460 0.616298 0.953973 0.239024
C140  C     C_2   0.444460 0.953973 0.383702 0.239024
C141  C     C_2   0.616298 0.953973 0.444460 0.239024
C142  C     C_2   0.953973 0.383702 0.444460 0.239024
C143  C     C_2   0.383702 0.046027 0.444460 0.239024
C144  C     C_2   0.046027 0.616298 0.444460 0.239024
C145  C     C_2   0.383702 0.953973 0.555540 0.239024
C146  C     C_R   0.072254 0.500000 0.000000 0.672266
C147  C     C_2   0.046027 0.383702 0.555540 0.239024
C148  C     C_2   0.616298 0.046027 0.555540 0.239024
C149  C     C_2   0.953973 0.616298 0.555540 0.239024
C150  C     C_2   0.953973 0.555540 0.383702 0.239025
C151  C     C_2   0.383702 0.555540 0.046027 0.239024
C152  C     C_2   0.046027 0.555540 0.616298 0.239023
C153  C     C_2   0.616298 0.555540 0.953972 0.239024
C154  C     C_2   0.953973 0.444460 0.616298 0.239024
C155  C     C_2   0.383702 0.444460 0.953973 0.239024
C156  C     C_2   0.046027 0.444460 0.383702 0.239024
C157  C     C_R   1.000000 0.500000 0.927746 0.672266
C158  C     C_2   0.616298 0.444460 0.046027 0.239024
C159  C     C_R   0.024964 0.173351 0.522787 -0.136962
C160  C     C_R   0.024965 0.477213 0.173351 -0.136962
C161  C     C_R   0.024965 0.826649 0.477213 -0.136962
C162  C     C_R   0.024964 0.522787 0.826649 -0.136961
C163  C     C_R   0.975035 0.826649 0.522787 -0.136962
C164  C     C_R   0.000000 0.500000 0.427746 0.672266
C165  C     C_R   0.975035 0.522787 0.173351 -0.136962
C166  C     C_R   0.975035 0.173351 0.477213 -0.136962
C167  C     C_R   0.975035 0.477213 0.826649 -0.136962
C168  C     C_R   0.173351 0.477213 0.975035 -0.136962
C169  C     C_R   0.477213 0.826649 0.975035 -0.136962
C170  C     C_R   0.826649 0.522787 0.975035 -0.136962
C171  C     C_R   0.522787 0.173351 0.975035 -0.136962
C172  C     C_R   0.826649 0.477213 0.024965 -0.136962
C173  C     C_R   0.522787 0.826649 0.024965 -0.136962
C174  C     C_R   0.173351 0.522787 0.024965 -0.136962
C175  C     C_R   0.000000 0.572254 0.500000 0.672266
C176  C     C_R   0.477213 0.173351 0.024965 -0.136962
C177  C     C_R   0.477213 0.024964 0.826649 -0.136962
C178  C     C_R   0.826649 0.024964 0.522787 -0.136962
C179  C     C_R   0.522787 0.024965 0.173351 -0.136962
C180  C     C_R   0.173351 0.024965 0.477213 -0.136962
C181  C     C_R   0.477213 0.975036 0.173351 -0.136962
C182  C     C_R   0.826649 0.975035 0.477213 -0.136962
C183  C     C_R   0.522787 0.975035 0.826649 -0.136962
C184  C     C_R   0.173351 0.975035 0.522787 -0.136962
C185  C     C_R   0.524965 0.673351 0.022787 -0.136962
C186  C     C_R   0.500000 0.427746 0.000000 0.672266
C187  C     C_R   0.524965 0.977213 0.673351 -0.136962
C188  C     C_R   0.524964 0.326649 0.977213 -0.136962
C189  C     C_R   0.524964 0.022787 0.326649 -0.136961
C190  C     C_R   0.475035 0.326649 0.022787 -0.136962
C191  C     C_R   0.475035 0.022787 0.673351 -0.136962
C192  C     C_R   0.475035 0.673351 0.977213 -0.136962
C193  C     C_R   0.475035 0.977213 0.326649 -0.136962
C194  C     C_R   0.673351 0.977213 0.475035 -0.136962
C195  C     C_R   0.977213 0.326649 0.475035 -0.136962
C196  C     C_R   0.326649 0.022787 0.475035 -0.136962
C197  C     C_R   0.427746 0.500000 0.000000 0.672266
C198  C     C_R   0.022787 0.673351 0.475035 -0.136962
C199  C     C_R   0.326649 0.977213 0.524965 -0.136962
C200  C     C_R   0.022787 0.326649 0.524965 -0.136962
C201  C     C_R   0.673351 0.022787 0.524965 -0.136962
C202  C     C_R   0.977213 0.673351 0.524965 -0.136962
C203  C     C_R   0.977213 0.524965 0.326649 -0.136962
C204  C     C_R   0.326649 0.524964 0.022787 -0.136962
C205  C     C_R   0.022787 0.524965 0.673351 -0.136962
C206  C     C_R   0.673351 0.524965 0.977213 -0.136962
C207  C     C_R   0.977213 0.475036 0.673351 -0.136962
C208  C     C_R   0.500000 0.572254 1.000000 0.672266
C209  C     C_R   0.326649 0.475035 0.977213 -0.136962
C210  C     C_R   0.022787 0.475035 0.326649 -0.136962
C211  C     C_R   0.673351 0.475035 0.022787 -0.136962
C212  C     C_R   0.025942 0.134074 0.522697 -0.006884
C213  C     C_R   0.025942 0.477303 0.134074 -0.006884
C214  C     C_R   0.025942 0.865926 0.477303 -0.006884
C215  C     C_R   0.025942 0.522697 0.865926 -0.006884
C216  C     C_R   0.974058 0.865926 0.522697 -0.006884
C217  C     C_R   0.974058 0.522697 0.134074 -0.006884
C218  C     C_R   0.974058 0.134074 0.477303 -0.006884
C219  C     C_R   0.572254 0.500000 1.000000 0.672266
C220  C     C_R   0.974058 0.477303 0.865926 -0.006884
C221  C     C_R   0.134074 0.477303 0.974058 -0.006884
C222  C     C_R   0.477303 0.865926 0.974058 -0.006884
C223  C     C_R   0.865926 0.522697 0.974058 -0.006884
C224  C     C_R   0.522697 0.134074 0.974058 -0.006884
C225  C     C_R   0.865926 0.477303 0.025942 -0.006884
C226  C     C_R   0.522697 0.865926 0.025942 -0.006884
C227  C     C_R   0.134074 0.522697 0.025942 -0.006884
C228  C     C_R   0.477303 0.134074 0.025942 -0.006884
C229  C     C_R   0.477303 0.025942 0.865926 -0.006884
C230  C     C_R   0.427746 0.000000 0.500000 0.672266
C231  C     C_R   0.865926 0.025942 0.522697 -0.006884
C232  C     C_R   0.522697 0.025942 0.134074 -0.006884
C233  C     C_R   0.134074 0.025942 0.477303 -0.006884
C234  C     C_R   0.477303 0.974058 0.134074 -0.006884
C235  C     C_R   0.865926 0.974058 0.477303 -0.006884
C236  C     C_R   0.522697 0.974058 0.865926 -0.006884
C237  C     C_R   0.134074 0.974058 0.522697 -0.006884
C238  C     C_R   0.525942 0.634074 0.022697 -0.006884
C239  C     C_R   0.525942 0.977303 0.634074 -0.006884
C240  C     C_R   0.525942 0.365926 0.977303 -0.006884
Cu1   Cu    Cu3+1 0.962780 0.500000 0.500000 1.117995
Cu2   Cu    Cu3+1 0.000000 0.000000 0.462780 1.117995
Cu3   Cu    Cu3+1 0.000000 0.462780 0.000000 1.117995
Cu4   Cu    Cu3+1 1.000000 0.537220 0.000000 1.117995
Cu5   Cu    Cu3+1 0.037220 0.500000 0.500000 1.117995
Cu6   Cu    Cu3+1 0.500000 0.500000 0.037220 1.117995
Cu7   Cu    Cu3+1 0.500000 0.500000 0.962780 1.117995
Cu8   Cu    Cu3+1 0.500000 0.962780 0.500000 1.117995
Cu9   Cu    Cu3+1 0.500000 0.037220 0.500000 1.117995
Cu10  Cu    Cu3+1 0.462780 0.000000 0.000000 1.117995
Cu11  Cu    Cu3+1 0.537220 0.000000 0.000000 1.117995
Cu12  Cu    Cu3+1 1.000000 1.000000 0.537220 1.117995
H1    H     H_    0.044471 0.188987 0.540094 0.103046
H2    H     H_    0.459906 0.811013 0.955529 0.103046
H3    H     H_    0.811013 0.540094 0.955529 0.103046
H4    H     H_    0.540094 0.188987 0.955529 0.103046
H5    H     H_    0.811013 0.459906 0.044471 0.103046
H6    H     H_    0.540094 0.811013 0.044471 0.103046
H7    H     H_    0.188987 0.540094 0.044471 0.103046
H8    H     H_    0.459906 0.188987 0.044471 0.103046
H9    H     H_    0.459906 0.044471 0.811013 0.103046
H10   H     H_    0.811013 0.044471 0.540094 0.103046
H11   H     H_    0.540094 0.044471 0.188987 0.103045
H12   H     H_    0.044471 0.459906 0.188987 0.103046
H13   H     H_    0.188987 0.044471 0.459906 0.103046
H14   H     H_    0.459906 0.955529 0.188987 0.103045
H15   H     H_    0.811013 0.955529 0.459906 0.103046
H16   H     H_    0.540094 0.955529 0.811013 0.103046
H17   H     H_    0.188987 0.955529 0.540094 0.103046
H18   H     H_    0.544471 0.688987 0.040093 0.103046
H19   H     H_    0.544471 0.959906 0.688987 0.103046
H20   H     H_    0.544471 0.311013 0.959906 0.103046
H21   H     H_    0.544471 0.040094 0.311013 0.103045
H22   H     H_    0.455529 0.311013 0.040094 0.103046
H23   H     H_    0.044471 0.811013 0.459906 0.103046
H24   H     H_    0.455529 0.040093 0.688987 0.103046
H25   H     H_    0.455529 0.688987 0.959906 0.103046
H26   H     H_    0.455529 0.959906 0.311013 0.103045
H27   H     H_    0.688987 0.959906 0.455529 0.103046
H28   H     H_    0.959906 0.311013 0.455529 0.103046
H29   H     H_    0.311013 0.040094 0.455529 0.103046
H30   H     H_    0.040094 0.688987 0.455529 0.103046
H31   H     H_    0.311013 0.959906 0.544471 0.103046
H32   H     H_    0.040093 0.311013 0.544471 0.103046
H33   H     H_    0.688987 0.040093 0.544471 0.103046
H34   H     H_    0.044471 0.540094 0.811013 0.103045
H35   H     H_    0.959906 0.688987 0.544471 0.103046
H36   H     H_    0.959906 0.544471 0.311013 0.103046
H37   H     H_    0.311013 0.544471 0.040094 0.103046
H38   H     H_    0.040093 0.544471 0.688987 0.103045
H39   H     H_    0.688987 0.544471 0.959906 0.103046
H40   H     H_    0.959906 0.455529 0.688987 0.103045
H41   H     H_    0.311013 0.455529 0.959906 0.103046
H42   H     H_    0.040093 0.455529 0.311013 0.103046
H43   H     H_    0.688987 0.455529 0.040093 0.103046
H44   H     H_    0.067849 0.131925 0.569049 0.095448
H45   H     H_    0.955529 0.811013 0.540094 0.103046
H46   H     H_    0.067849 0.430951 0.131925 0.095448
H47   H     H_    0.067849 0.868075 0.430951 0.095448
H48   H     H_    0.067849 0.569049 0.868075 0.095448
H49   H     H_    0.932151 0.868075 0.569049 0.095448
H50   H     H_    0.932151 0.569049 0.131925 0.095448
H51   H     H_    0.932151 0.131925 0.430951 0.095448
H52   H     H_    0.932151 0.430951 0.868075 0.095448
H53   H     H_    0.131925 0.430951 0.932151 0.095448
H54   H     H_    0.430951 0.868075 0.932151 0.095447
H55   H     H_    0.868075 0.569049 0.932151 0.095448
H56   H     H_    0.955529 0.540094 0.188987 0.103046
H57   H     H_    0.569049 0.131925 0.932151 0.095448
H58   H     H_    0.868075 0.430951 0.067849 0.095448
H59   H     H_    0.569049 0.868075 0.067849 0.095448
H60   H     H_    0.131925 0.569049 0.067849 0.095447
H61   H     H_    0.430951 0.131925 0.067849 0.095448
H62   H     H_    0.430951 0.067849 0.868075 0.095448
H63   H     H_    0.868075 0.067849 0.569049 0.095448
H64   H     H_    0.569049 0.067849 0.131925 0.095448
H65   H     H_    0.131925 0.067849 0.430951 0.095448
H66   H     H_    0.430951 0.932151 0.131925 0.095448
H67   H     H_    0.955529 0.188987 0.459906 0.103046
H68   H     H_    0.868075 0.932151 0.430951 0.095448
H69   H     H_    0.569049 0.932151 0.868075 0.095448
H70   H     H_    0.131925 0.932151 0.569049 0.095448
H71   H     H_    0.567849 0.631925 0.069049 0.095448
H72   H     H_    0.567849 0.930951 0.631925 0.095448
H73   H     H_    0.567849 0.368075 0.930951 0.095448
H74   H     H_    0.567849 0.069049 0.368075 0.095448
H75   H     H_    0.432151 0.368075 0.069049 0.095448
H76   H     H_    0.432151 0.069049 0.631925 0.095448
H77   H     H_    0.432151 0.631925 0.930951 0.095448
H78   H     H_    0.955529 0.459906 0.811013 0.103045
H79   H     H_    0.432151 0.930951 0.368075 0.095448
H80   H     H_    0.631925 0.930951 0.432151 0.095448
H81   H     H_    0.930951 0.368075 0.432151 0.095447
H82   H     H_    0.368075 0.069049 0.432151 0.095448
H83   H     H_    0.069049 0.631925 0.432151 0.095448
H84   H     H_    0.368075 0.930951 0.567849 0.095448
H85   H     H_    0.069049 0.368075 0.567849 0.095448
H86   H     H_    0.631925 0.069049 0.567849 0.095447
H87   H     H_    0.930951 0.631925 0.567849 0.095448
H88   H     H_    0.930951 0.567849 0.368075 0.095448
H89   H     H_    0.188987 0.459906 0.955529 0.103046
H90   H     H_    0.368075 0.567849 0.069049 0.095448
H91   H     H_    0.069049 0.567849 0.631925 0.095448
H92   H     H_    0.631925 0.567849 0.930951 0.095448
H93   H     H_    0.930951 0.432151 0.631925 0.095448
H94   H     H_    0.368075 0.432151 0.930951 0.095448
H95   H     H_    0.069049 0.432151 0.368075 0.095448
H96   H     H_    0.631925 0.432151 0.069049 0.095448
O1    O     O_R   0.968580 0.500050 0.554330 -0.474188
O2    O     O_R   0.445670 0.499950 0.031420 -0.474189
O3    O     O_R   0.499950 0.554330 0.031420 -0.474188
O4    O     O_R   0.554330 0.500050 0.031420 -0.474188
O5    O     O_R   0.499950 0.445670 0.968580 -0.474188
O6    O     O_R   0.554330 0.499950 0.968580 -0.474189
O7    O     O_R   0.500050 0.554330 0.968580 -0.474189
O8    O     O_R   0.445670 0.500050 0.968580 -0.474188
O9    O     O_R   0.445670 0.968580 0.499950 -0.474188
O10   O     O_R   0.499950 0.968580 0.554330 -0.474189
O11   O     O_R   0.554330 0.968580 0.500050 -0.474188
O12   O     O_R   0.968580 0.445670 0.500050 -0.474188
O13   O     O_R   0.500050 0.968580 0.445670 -0.474188
O14   O     O_R   0.445670 0.031420 0.500050 -0.474189
O15   O     O_R   0.499950 0.031420 0.445670 -0.474189
O16   O     O_R   0.554330 0.031420 0.499950 -0.474189
O17   O     O_R   0.500050 0.031420 0.554330 -0.474188
O18   O     O_R   0.468580 0.000050 0.054330 -0.474188
O19   O     O_R   0.468580 0.945670 0.000050 -0.474188
O20   O     O_R   0.468580 0.999950 0.945670 -0.474188
O21   O     O_R   0.468580 0.054330 0.999950 -0.474188
O22   O     O_R   0.531420 0.999950 0.054330 -0.474189
O23   O     O_R   0.968580 0.499950 0.445670 -0.474188
O24   O     O_R   0.531420 0.054330 0.000050 -0.474189
O25   O     O_R   0.531420 0.000050 0.945670 -0.474189
O26   O     O_R   0.531420 0.945670 0.999950 -0.474189
O27   O     O_R   0.000050 0.945670 0.531420 -0.474189
O28   O     O_R   0.945670 0.999950 0.531420 -0.474189
O29   O     O_R   0.999950 0.054330 0.531420 -0.474188
O30   O     O_R   0.054330 0.000050 0.531420 -0.474188
O31   O     O_R   0.999950 0.945670 0.468580 -0.474188
O32   O     O_R   0.054330 0.999950 0.468580 -0.474189
O33   O     O_R   0.000050 0.054330 0.468580 -0.474189
O34   O     O_R   0.968580 0.554330 0.499950 -0.474188
O35   O     O_R   0.945670 0.000050 0.468580 -0.474188
O36   O     O_R   0.945670 0.468580 0.999950 -0.474188
O37   O     O_R   0.999950 0.468580 0.054330 -0.474189
O38   O     O_R   0.054330 0.468580 0.000050 -0.474188
O39   O     O_R   0.000050 0.468580 0.945670 -0.474188
O40   O     O_R   0.945670 0.531420 0.000050 -0.474189
O41   O     O_R   0.999950 0.531420 0.945670 -0.474189
O42   O     O_R   0.054330 0.531420 0.999950 -0.474189
O43   O     O_R   0.000050 0.531420 0.054330 -0.474188
O44   O     O_2   0.067884 0.085198 0.539079 -0.471672
O45   O     O_R   0.031420 0.499950 0.554330 -0.474189
O46   O     O_2   0.067884 0.460921 0.085198 -0.471672
O47   O     O_2   0.067884 0.914802 0.460921 -0.471672
O48   O     O_2   0.067884 0.539079 0.914802 -0.471672
O49   O     O_2   0.932116 0.914802 0.539079 -0.471672
O50   O     O_2   0.932116 0.539079 0.085198 -0.471673
O51   O     O_2   0.932116 0.085198 0.460921 -0.471672
O52   O     O_2   0.932116 0.460921 0.914802 -0.471672
O53   O     O_2   0.085198 0.460921 0.932116 -0.471672
O54   O     O_2   0.460921 0.914802 0.932116 -0.471672
O55   O     O_2   0.914802 0.539079 0.932116 -0.471672
O56   O     O_R   0.031420 0.554330 0.500050 -0.474189
O57   O     O_2   0.539079 0.085198 0.932116 -0.471672
O58   O     O_2   0.914802 0.460921 0.067884 -0.471672
O59   O     O_2   0.539079 0.914802 0.067884 -0.471672
O60   O     O_2   0.085198 0.539079 0.067884 -0.471672
O61   O     O_2   0.460921 0.085198 0.067884 -0.471672
O62   O     O_2   0.460921 0.067884 0.914802 -0.471673
O63   O     O_2   0.914802 0.067884 0.539079 -0.471672
O64   O     O_2   0.539079 0.067884 0.085198 -0.471672
O65   O     O_2   0.085198 0.067884 0.460921 -0.471673
O66   O     O_2   0.460921 0.932116 0.085198 -0.471672
O67   O     O_R   0.031420 0.500050 0.445670 -0.474189
O68   O     O_2   0.914802 0.932116 0.460921 -0.471672
O69   O     O_2   0.539079 0.932116 0.914802 -0.471672
O70   O     O_2   0.085198 0.932116 0.539079 -0.471672
O71   O     O_2   0.567884 0.585198 0.039079 -0.471672
O72   O     O_2   0.567884 0.960920 0.585198 -0.471672
O73   O     O_2   0.567884 0.414802 0.960920 -0.471672
O74   O     O_2   0.567884 0.039079 0.414802 -0.471672
O75   O     O_2   0.432116 0.414802 0.039079 -0.471672
O76   O     O_2   0.432116 0.039079 0.585198 -0.471673
O77   O     O_2   0.432116 0.585198 0.960921 -0.471672
O78   O     O_R   0.031420 0.445670 0.499950 -0.474189
O79   O     O_2   0.432116 0.960921 0.414802 -0.471672
O80   O     O_2   0.585198 0.960921 0.432116 -0.471672
O81   O     O_2   0.960921 0.414802 0.432116 -0.471672
O82   O     O_2   0.414802 0.039079 0.432116 -0.471672
O83   O     O_2   0.039079 0.585198 0.432116 -0.471672
O84   O     O_2   0.414802 0.960920 0.567884 -0.471672
O85   O     O_2   0.039079 0.414802 0.567884 -0.471672
O86   O     O_2   0.585198 0.039079 0.567884 -0.471672
O87   O     O_2   0.960920 0.585198 0.567884 -0.471672
O88   O     O_2   0.960921 0.567884 0.414802 -0.471673
O89   O     O_R   0.500050 0.445670 0.031420 -0.474189
O90   O     O_2   0.414802 0.567884 0.039079 -0.471672
O91   O     O_2   0.039079 0.567884 0.585198 -0.471672
O92   O     O_2   0.585198 0.567884 0.960920 -0.471673
O93   O     O_2   0.960920 0.432116 0.585198 -0.471672
O94   O     O_2   0.414802 0.432116 0.960921 -0.471672
O95   O     O_2   0.039079 0.432116 0.414802 -0.471672
O96   O     O_2   0.585198 0.432116 0.039079 -0.471672

loop_
_geom_bond_atom_site_label_1
_geom_bond_atom_site_label_2
_ccdc_geom_bond_type
C28   C216  A    
C37   C232  A    
C61   C177  A    
C83   C102  T    
Cu8   O13   S    
C26   C218  A    
C17   C48   A    
C125  H63   S    
C126  H64   S    
C76   C205  A    
C152  O91   D    
C35   O18   A    
C129  C235  S    
Cu1   Cu5   S    
C184  H17   S    
C14   C44   A    
C40   C239  A    
C3    C189  A    
C122  O61   D    
C4    C41   A    
C133  O72   D    
C140  H79   S    
C25   C211  A    
C177  H9    S    
C179  H11   S    
C180  H13   S    
Cu1   O23   S    
C67   C94   S    
C153  O92   D    
C16   C149  S    
C111  C218  S    
C148  H86   S    
Cu4   O40   S    
C183  C236  A    
C117  O55   D    
C76   C103  S    
C116  O54   D    
C16   C202  A    
C107  O47   D    
C143  H82   S    
C118  C224  S    
C167  H78   S    
C60   C86   S    
C74   C100  S    
C81   C99   T    
C219  O4    A    
C62   C88   S    
C129  O68   D    
Cu7   O6    S    
C56   C174  A    
C36   C235  A    
C174  C227  A    
C188  C240  A    
C163  C216  A    
C187  C239  A    
C53   C80   S    
C123  H62   S    
C69   C193  A    
C128  O66   D    
C106  H46   S    
Cu1   O1    S    
C185  H18   S    
C22   C49   A    
C162  H34   S    
C60   C176  A    
C120  H59   S    
C128  C234  S    
C201  H33   S    
C46   O26   A    
Cu1   O12   S    
C158  H96   S    
C110  O50   D    
C165  H56   S    
C189  H21   S    
Cu12  O30   S    
Cu1   O34   S    
C153  H92   S    
C112  O78   A    
C114  C220  S    
C69   C95   S    
Cu3   O38   S    
C79   O27   A    
C72   C196  A    
C157  O41   A    
C90   O35   A    
C9    C195  A    
C48   C164  S    
C121  C227  S    
C124  O36   A    
C46   O19   A    
C208  O3    A    
C121  H60   S    
Cu2   O31   S    
C208  O7    A    
C108  C215  S    
Cu4   O42   S    
C181  H14   S    
C33   C224  A    
C2    C40   S    
C178  C231  A    
C175  O34   A    
Cu9   O14   S    
C74   C203  A    
C118  H57   S    
C26   C212  A    
C64   C91   S    
C172  H5    S    
C211  H43   S    
C141  O80   D    
C18   C49   A    
C41   C240  A    
C114  O52   D    
Cu12  O28   S    
C197  O8    A    
C63   C181  A    
C105  H44   S    
C168  C221  A    
C38   C233  A    
C71   C200  A    
C49   C197  S    
C71   C97   S    
C105  C212  S    
C170  H3    S    
C130  O69   D    
C156  H95   S    
C186  O89   A    
C219  O6    A    
C15   C148  S    
C163  H45   S    
C152  H91   S    
C7    C42   A    
C137  O75   D    
C57   O25   A    
C3    C136  S    
C6    C139  S    
C17   C203  A    
C132  C238  S    
C61   C87   S    
C4    C137  S    
C147  H85   S    
C181  C234  A    
Cu10  O20   S    
C182  H15   S    
C155  O94   D    
C138  H76   S    
C171  H4    S    
C134  H73   S    
C8    C141  S    
C54   C163  A    
C115  O53   D    
C165  C217  A    
C192  H25   S    
C122  H61   S    
C91   C98   T    
C188  H20   S    
C136  O74   D    
C10   C45   A    
Cu8   Cu9   S    
C16   C47   A    
C15   C201  A    
Cu10  O21   S    
C22   C155  S    
C176  C228  A    
C127  C233  S    
C20   C153  S    
Cu6   O4    S    
C56   C83   S    
C4    C190  A    
C58   C169  A    
C5    C191  A    
C178  H10   S    
C24   O13   A    
C143  O82   D    
C51   C219  S    
C14   C147  S    
Cu5   O45   S    
C125  O63   D    
C126  O64   D    
C12   C145  S    
C70   C96   S    
C59   C85   S    
C10   C196  A    
C71   C195  A    
C169  C222  A    
Cu9   O16   S    
C122  C228  S    
C73   C198  A    
C63   C89   S    
C78   C97   T    
Cu7   O7    S    
C135  O43   A    
C186  O5    A    
C133  H72   S    
C128  H66   S    
C66   C93   S    
C106  O46   D    
C34   C229  A    
C45   C230  S    
Cu8   O10   S    
C120  C226  S    
C149  O87   D    
C197  O2    A    
C139  H77   S    
C36   C90   S    
C39   C208  S    
Cu6   Cu7   S    
C60   C171  A    
C145  H84   S    
Cu3   O36   S    
C125  C231  S    
C230  O9    A    
C9    C142  S    
C23   C210  A    
C116  H54   S    
Cu5   O67   S    
C127  O65   D    
Cu2   Cu12  S    
C11   C198  A    
C15   C43   A    
C107  H47   S    
C72   C199  A    
Cu10  O18   S    
C87   C93   T    
Cu8   O11   S    
C130  C236  S    
C41   C186  S    
C54   C81   S    
C54   C161  A    
C116  C222  S    
C154  O93   D    
C131  H70   S    
C135  O37   A    
C57   O20   A    
C129  H68   S    
C31   C46   S    
C166  H67   S    
C190  H22   S    
C31   C226  A    
C25   C158  S    
C160  H12   S    
C18   C204  A    
C84   C92   T    
C66   C187  A    
C79   O31   A    
Cu5   O78   S    
C47   C175  S    
C33   C68   S    
C118  O57   D    
C161  C214  A    
C88   C96   T    
C3    C42   A    
Cu6   O2    S    
C24   C42   S    
C167  C220  A    
C11   C47   A    
C17   C150  S    
C112  O12   A    
C8    C43   A    
C55   C167  A    
C207  H40   S    
C109  C216  S    
C67   C190  A    
C24   O15   A    
Cu2   O35   S    
C119  C225  S    
C68   O24   A    
C105  O44   D    
C200  H32   S    
C20   C51   A    
Cu5   O56   S    
C7    C140  S    
Cu3   Cu4   S    
C185  C238  A    
Cu7   O5    S    
C210  H42   S    
C156  O95   D    
C110  C217  S    
C147  O85   D    
C198  H30   S    
C29   C220  A    
Cu11  O26   S    
C145  O84   D    
C8    C194  A    
C1    C50   S    
C121  O60   D    
C144  H83   S    
C136  H74   S    
C132  O71   D    
C187  H19   S    
C23   C156  S    
C204  H37   S    
C115  H53   S    
C52   C78   S    
C144  O83   D    
C139  O77   D    
C30   C221  A    
C109  H49   S    
C146  O38   A    
C37   C234  A    
C1    O1    A    
C196  H29   S    
Cu3   O37   S    
C142  H81   S    
C38   C113  S    
C175  O56   A    
C176  H8    S    
C29   C157  S    
Cu10  Cu11  S    
C14   C200  A    
C183  H16   S    
C151  H90   S    
C89   C95   T    
C126  C232  S    
C2    O17   A    
C62   C182  A    
C31   C222  A    
C70   C194  A    
Cu2   O32   S    
C157  O39   A    
C85   C104  T    
C182  C235  A    
C53   C165  A    
C180  C233  A    
C27   C217  A    
Cu6   O89   S    
C58   C173  A    
C159  H1    S    
C59   C172  A    
C184  C237  A    
C13   C43   S    
C32   C223  A    
C67   C188  A    
C138  O76   D    
C193  H26   S    
Cu2   O33   S    
C75   C209  A    
C53   C160  A    
C195  H28   S    
C30   C227  A    
C115  C221  S    
C113  O30   A    
C168  H89   S    
C101  O33   A    
C13   O11   A    
C73   C202  A    
C141  H80   S    
C111  O51   D    
C27   C135  S    
C173  H6    S    
C77   C206  A    
C19   C50   A    
C127  H65   S    
C36   C231  A    
Cu11  O24   S    
C29   C215  A    
C159  C212  A    
C170  C223  A    
C28   C79   S    
C5    C40   A    
C6    C192  A    
C27   C213  A    
C6    C39   A    
C77   C104  S    
Cu3   O39   S    
C131  O70   D    
C179  C232  A    
C137  H75   S    
C203  H36   S    
C132  H71   S    
Cu12  O29   S    
C32   C124  S    
C20   C206  A    
C33   C228  A    
C34   C236  A    
C171  C224  A    
C134  O73   D    
C1    O45   A    
C5    C138  S    
C72   C98   S    
C74   C210  A    
C150  O88   D    
C35   C37   S    
C131  C237  S    
C230  O14   A    
C140  O79   D    
C173  C226  A    
C26   C101  S    
C177  C229  A    
C64   C180  A    
C111  H51   S    
C22   C209  A    
C63   C179  A    
C151  O90   D    
C172  C225  A    
C205  H38   S    
C120  O59   D    
C148  O86   D    
Cu4   O41   S    
C86   C94   T    
C52   C166  A    
C164  O23   A    
C117  H55   S    
Cu9   O15   S    
C158  O96   D    
C34   C57   S    
C82   C103  T    
C7    C193  A    
C59   C170  A    
C161  H23   S    
C11   C144  S    
C166  C218  A    
C35   O22   A    
C76   C207  A    
C130  H69   S    
Cu12  O27   S    
C199  H31   S    
C194  H27   S    
C80   C100  T    
C154  H93   S    
C113  O32   A    
C21   C50   A    
C30   C146  S    
C162  C215  A    
C108  H48   S    
C28   C214  A    
C65   C185  A    
C61   C183  A    
C155  H94   S    
C69   C189  A    
C174  H7    S    
C109  O49   D    
C119  H58   S    
Cu11  O22   S    
C149  H87   S    
C123  O62   D    
C64   C184  A    
Cu8   O9    S    
C25   C51   A    
C58   C84   S    
C75   C102  S    
Cu10  O19   S    
C123  C229  S    
C65   C192  A    
C21   C154  S    
C66   C191  A    
C56   C168  A    
C114  H52   S    
C19   C152  S    
C55   C82   S    
C65   C92   S    
C202  H35   S    
C146  O42   A    
C110  H50   S    
C117  C223  S    
C44   C112  S    
C191  H24   S    
C124  O40   A    
C108  O48   D    
C73   C99   S    
C106  C213  S    
C9    C44   A    
C23   C48   A    
C2    O10   A    
Cu6   O3    S    
C134  C240  S    
C169  H2    S    
C55   C162  A    
C12   C45   A    
C70   C201  A    
C150  H88   S    
C62   C178  A    
C75   C204  A    
C133  C239  S    
C68   O21   A    
C19   C205  A    
C21   C207  A    
C119  O58   D    
C206  H39   S    
Cu4   O43   S    
C38   C237  A    
C107  C214  S    
C52   C159  A    
C13   O16   A    
Cu9   O17   S    
C160  C213  A    
C12   C199  A    
Cu7   O8    S    
C142  O81   D    
C10   C143  S    
C77   C211  A    
C32   C225  A    
Cu11  O25   S    
C209  H41   S    
C164  O67   A    
C39   C238  A    
C101  O29   A    
C18   C151  S    
C90   O28   A    
