data_mof_unit_5678.cif
_audit_creation_date              2012-12-10T21:00:39-0500
_audit_creation_method            fapswitch 2.2
_symmetry_space_group_name_H-M    P1
_symmetry_Int_Tables_number       1
_space_group_crystal_system       triclinic
_cell_length_a                    18.11689
_cell_length_b                    18.191342
_cell_length_c                    18.345994
_cell_angle_alpha                 119.968571
_cell_angle_beta                  89.91269
_cell_angle_gamma                 120.005868
_cell_volume                      4280.27256464

loop_
_atom_site_label
_atom_site_type_symbol
_atom_type_description
_atom_site_fract_x
_atom_site_fract_y
_atom_site_fract_z
_atom_type_partial_charge
C1    C     C_R   0.110409 0.220087 0.609905 0.783351
C2    C     C_3   0.450768 0.897537 0.947540 0.019836
C3    C     C_3   0.445733 0.031574 0.024917 -0.107045
C4    C     C_3   0.554269 0.968427 0.975082 -0.107044
C5    C     C_3   0.450342 0.405330 0.485559 -0.341916
C6    C     C_3   0.549658 0.594670 0.514441 -0.341934
C7    C     C_3   0.554199 0.479390 0.519356 0.635809
C8    C     C_3   0.445801 0.520610 0.480644 0.635809
C9    C     C_3   0.550152 0.499495 0.448436 -0.089474
C10   C     C_3   0.449848 0.500505 0.551564 -0.089475
C11   C     C_3   0.445863 0.425769 0.413534 -0.288961
C12   C     C_R   0.889590 0.779913 0.390095 0.783349
C13   C     C_3   0.554137 0.574231 0.586466 -0.288977
C14   C     C_R   0.115413 0.169909 0.836015 -0.115889
C15   C     C_R   0.884558 0.830091 0.163991 -0.115889
C16   C     C_R   0.393002 0.781216 0.888361 0.778532
C17   C     C_R   0.606999 0.218784 0.111639 0.778541
C18   C     C_R   0.103911 0.125914 0.745297 -0.092918
C19   C     C_R   0.896069 0.874086 0.254710 -0.092919
C20   C     C_R   0.028792 0.098006 0.688744 0.150977
C21   C     C_R   0.971194 0.901994 0.311254 0.150978
C22   C     C_R   0.964700 0.112945 0.723539 -0.146145
C23   C     C_3   0.983657 0.430583 0.414104 -0.122984
C24   C     C_R   0.035282 0.887056 0.276450 -0.146143
C25   C     C_R   0.976086 0.156203 0.814128 -0.144437
C26   C     C_R   0.023886 0.843798 0.185860 -0.144429
C27   C     C_R   0.051560 0.185096 0.870406 -0.109420
C28   C     C_R   0.948406 0.814905 0.129590 -0.109415
C29   C     C_R   0.962432 0.943532 0.536346 -0.254218
C30   C     C_R   0.037564 0.056468 0.463653 -0.254217
C31   C     C_R   0.946131 0.892255 0.444498 -0.051507
C32   C     C_R   0.053866 0.107745 0.555501 -0.051506
C33   C     C_R   0.984053 0.949421 0.407419 -0.016477
C34   C     C_3   0.016343 0.569417 0.585896 -0.122979
C35   C     C_R   0.015942 0.050579 0.592580 -0.016476
C36   C     C_R   0.668053 0.717914 0.879718 -0.197045
C37   C     C_R   0.331949 0.282105 0.120297 -0.197041
C38   C     C_R   0.618628 0.638765 0.891880 -0.099717
C39   C     C_R   0.381372 0.361247 0.108128 -0.099728
C40   C     C_R   0.111919 0.501817 0.890695 0.788531
C41   C     C_R   0.888082 0.498183 0.109305 0.788544
C42   C     C_R   0.595988 0.660448 0.970004 0.089684
C43   C     C_R   0.404011 0.339557 0.030002 0.089687
C44   C     C_R   0.625409 0.762481 0.036674 -0.218418
C45   C     C_3   0.441233 0.965598 0.927520 -0.110249
C46   C     C_R   0.374591 0.237523 0.963338 -0.218403
C47   C     C_R   0.675576 0.841692 0.024649 0.433816
C48   C     C_R   0.324426 0.158318 0.975370 0.433812
C49   C     C_R   0.696409 0.819237 0.945939 -0.172220
C50   C     C_R   0.303595 0.180780 0.054082 -0.172215
C51   C     C_R   0.592813 0.575797 0.040148 -0.266195
C52   C     C_R   0.407187 0.424203 0.959852 -0.266193
C53   C     C_R   0.549605 0.499204 0.056020 -0.047583
C54   C     C_R   0.450395 0.500796 0.943980 -0.047583
C55   C     C_R   0.455373 0.422745 0.016198 0.006518
C56   C     C_3   0.558770 0.034402 0.072480 -0.110247
C57   C     C_R   0.544626 0.577256 0.983803 0.006518
C58   C     C_R   0.202111 0.837376 0.021612 -0.129170
C59   C     C_R   0.797897 0.162608 0.978361 -0.129217
C60   C     C_R   0.166650 0.752873 0.027214 -0.136762
C61   C     C_R   0.833365 0.247099 0.972740 -0.136899
C62   C     C_R   0.076282 0.667151 0.978010 0.154881
C63   C     C_R   0.923716 0.332853 0.021994 0.154885
C64   C     C_R   0.392488 0.500332 0.607969 0.843622
C65   C     C_R   0.607512 0.499668 0.392031 0.843624
C66   C     C_R   0.021832 0.667273 0.923755 -0.159560
C67   C     C_3   0.545380 0.037926 0.955788 -0.212233
C68   C     C_R   0.978144 0.332780 0.076319 -0.159448
C69   C     C_R   0.057798 0.751614 0.917876 -0.145516
C70   C     C_R   0.942170 0.248453 0.082217 -0.145464
C71   C     C_R   0.147858 0.836630 0.966821 -0.077837
C72   C     C_R   0.852127 0.163402 0.033221 -0.077815
C73   C     C_R   0.980208 0.573356 0.036769 -0.267491
C74   C     C_R   0.019794 0.426647 0.963234 -0.267484
C75   C     C_R   0.943341 0.495743 0.051600 -0.050217
C76   C     C_R   0.056661 0.504260 0.948403 -0.050224
C77   C     C_R   0.962689 0.420546 0.013514 -0.009272
C78   C     C_3   0.454622 0.962075 0.044211 -0.212250
C79   C     C_R   0.037313 0.579456 0.986489 -0.009258
C80   C     C_R   0.394166 0.500077 0.888530 0.798838
C81   C     C_R   0.605834 0.499923 0.111470 0.798839
C82   C     C_R   0.108943 0.500285 0.607807 0.784544
C83   C     C_R   0.891056 0.499715 0.392193 0.784540
C84   C     C_3   0.078328 0.526239 0.483279 -0.176903
C85   C     C_3   0.921673 0.473761 0.516721 -0.176898
C86   C     C_3   0.042679 0.594974 0.517167 -0.171092
C87   C     C_3   0.957321 0.405026 0.482833 -0.171084
C88   C     C_3   0.948822 0.499353 0.448834 0.042034
C89   C     C_3   0.549233 0.102463 0.052459 0.019835
C90   C     C_3   0.051178 0.500646 0.551166 0.042032
C91   C     C_3   0.605793 0.445497 0.605213 -0.335082
C92   C     C_3   0.394232 0.554545 0.394810 -0.335104
Cl1   Cl    Cl    0.713303 0.969293 0.108785 -0.722458
Cl2   Cl    Cl    0.286699 0.030715 0.891242 -0.722448
H1    H     H_    0.076944 0.672966 0.530421 0.143926
H2    H     H_    0.093881 0.908993 0.319456 0.119376
H3    H     H_    0.926447 0.167426 0.840724 0.136658
H4    H     H_    0.073522 0.832575 0.159256 0.136662
H5    H     H_    0.933118 0.900246 0.565126 0.179175
H6    H     H_    0.066878 0.099754 0.434874 0.179177
H7    H     H_    0.734977 0.880264 0.936289 0.143597
H8    H     H_    0.265028 0.119759 0.063738 0.143593
H9    H     H_    0.684717 0.700826 0.819127 0.136826
H10   H     H_    0.315286 0.299198 0.180889 0.136838
H11   H     H_    0.597343 0.560619 0.840369 0.115673
H12   H     H_    0.923056 0.327034 0.469578 0.143928
H13   H     H_    0.402657 0.439395 0.159634 0.115672
H14   H     H_    0.609490 0.780230 0.097750 0.157707
H15   H     H_    0.390509 0.219768 0.902262 0.157704
H16   H     H_    0.143506 0.547847 0.470392 0.147671
H17   H     H_    0.856494 0.452153 0.529608 0.147673
H18   H     H_    0.665087 0.634987 0.071144 0.173551
H19   H     H_    0.334913 0.365012 0.928856 0.173552
H20   H     H_    0.175453 0.902180 0.962727 0.168255
H21   H     H_    0.824526 0.097864 0.037332 0.168266
H22   H     H_    0.271381 0.903836 0.060246 0.121485
H23   H     H_    0.060403 0.218975 0.940569 0.130156
H24   H     H_    0.728639 0.096124 0.939689 0.121479
H25   H     H_    0.209121 0.754446 0.070232 0.107827
H26   H     H_    0.790911 0.245491 0.929672 0.107861
H27   H     H_    0.951749 0.602162 0.886171 0.124119
H28   H     H_    0.048214 0.397921 0.113946 0.124088
H29   H     H_    0.015722 0.751325 0.875776 0.137447
H30   H     H_    0.984228 0.248782 0.124374 0.137431
H31   H     H_    0.965948 0.631332 0.065898 0.176827
H32   H     H_    0.034054 0.368671 0.934107 0.176829
H33   H     H_    0.969585 0.373519 0.342824 0.157385
H34   H     H_    0.939557 0.781026 0.059426 0.130149
H35   H     H_    0.030415 0.626481 0.657176 0.157404
H36   H     H_    0.582358 0.070206 0.919538 0.131084
H37   H     H_    0.417648 0.929795 0.080464 0.131074
H38   H     H_    0.392543 0.935942 0.866971 0.185235
H39   H     H_    0.607459 0.064059 0.133029 0.185236
H40   H     H_    0.401341 0.058223 0.045883 0.164684
H41   H     H_    0.598662 0.941777 0.954118 0.164670
H42   H     H_    0.409782 0.328945 0.475734 0.155890
H43   H     H_    0.590220 0.671055 0.524266 0.155883
H44   H     H_    0.402801 0.366088 0.342355 0.163813
H45   H     H_    0.173646 0.191934 0.879580 0.132134
H46   H     H_    0.597198 0.633913 0.657646 0.163809
H47   H     H_    0.536250 0.380157 0.588840 0.153992
H48   H     H_    0.624766 0.518500 0.668612 0.154848
H49   H     H_    0.652687 0.426814 0.615807 0.192180
H50   H     H_    0.375332 0.481582 0.331410 0.154833
H51   H     H_    0.463765 0.619942 0.411240 0.154016
H52   H     H_    0.347301 0.573167 0.384182 0.192181
H53   H     H_    0.826320 0.808067 0.120432 0.132134
H54   H     H_    0.153566 0.114167 0.719183 0.120106
H55   H     H_    0.846417 0.885833 0.280831 0.120105
H56   H     H_    0.906105 0.091007 0.680527 0.119375
O1    O     O_3   0.251620 0.500000 0.748430 -0.488002
O2    O     O_R   0.570330 0.268390 0.136490 -0.634997
O3    O     O_R   0.134680 0.268390 0.572240 -0.650547
O4    O     O_R   0.865320 0.731610 0.427760 -0.650546
O5    O     O_R   0.306670 0.731630 0.863510 -0.627981
O6    O     O_R   0.693330 0.268370 0.136490 -0.627975
O7    O     O_R   0.135450 0.439270 0.865360 -0.642528
O8    O     O_R   0.864550 0.560730 0.134640 -0.642533
O9    O     O_R   0.429670 0.560710 0.692610 -0.656573
O10   O     O_R   0.570330 0.439290 0.307390 -0.656572
O11   O     O_R   0.308540 0.439240 0.865360 -0.652855
O12   O     O_3   0.748380 0.500000 0.251570 -0.488002
O13   O     O_R   0.691460 0.560760 0.134640 -0.652853
O14   O     O_R   0.133580 0.439310 0.571150 -0.631014
O15   O     O_R   0.866420 0.560690 0.428850 -0.631013
O16   O     O_R   0.430770 0.560690 0.864590 -0.639228
O17   O     O_R   0.569230 0.439310 0.135410 -0.639227
O18   O     O_R   0.133580 0.560760 0.692610 -0.641209
O19   O     O_R   0.866420 0.439240 0.307390 -0.641217
O20   O     O_3   0.614718 0.457600 0.534944 -0.601751
O21   O     O_3   0.385277 0.542392 0.465051 -0.601747
O22   O     O_R   0.134680 0.560740 0.864590 -0.633431
O23   O     O_R   0.865320 0.439260 0.135410 -0.633424
O24   O     O_R   0.306670 0.439270 0.571150 -0.617951
O25   O     O_R   0.693330 0.560730 0.428850 -0.617954
O26   O     O_R   0.135450 0.268370 0.694460 -0.638857
O27   O     O_R   0.864550 0.731630 0.305540 -0.638858
O28   O     O_R   0.429670 0.731610 0.863510 -0.634996
Zn1   Zn    Zn3+2 0.207400 0.586780 0.791530 0.986685
Zn2   Zn    Zn3+2 0.792600 0.413220 0.208470 0.986684
Zn3   Zn    Zn3+2 0.208510 0.413230 0.792630 0.960285
Zn4   Zn    Zn3+2 0.791490 0.586770 0.207370 0.960286
Zn5   Zn    Zn3+2 0.383150 0.586740 0.791530 0.970230
Zn6   Zn    Zn3+2 0.616850 0.413260 0.208470 0.970234
Zn7   Zn    Zn3+2 0.207400 0.413250 0.618010 0.983524
Zn8   Zn    Zn3+2 0.792600 0.586750 0.381990 0.983521

loop_
_geom_bond_atom_site_label_1
_geom_bond_atom_site_label_2
_ccdc_geom_bond_type
C5    H42   S    
C15   H53   S    
C22   H56   S    
C1    O26   A    
O1    Zn7   S    
C51   H18   S    
C37   H10   S    
C81   O13   A    
C14   C18   A    
C76   C79   A    
C6    C9    S    
C56   H39   S    
C47   C49   A    
C82   O18   A    
C52   H19   S    
C15   C19   A    
O4    Zn8   S    
C72   H21   S    
C84   C90   S    
C36   H9    S    
C53   C81   S    
C19   C21   A    
C11   H44   S    
C84   C86   S    
O12   Zn4   S    
C18   H54   S    
C24   H2    S    
O24   Zn7   S    
C49   H7    S    
C8    C10   S    
C86   C88   S    
C58   C71   A    
C85   C88   S    
C66   C69   A    
C21   C33   S    
C69   H29   S    
C92   O21   S    
C58   C60   A    
O27   Zn4   S    
C30   H6    S    
C67   C89   S    
C56   C78   S    
C60   H25   S    
C60   C62   A    
C34   C86   S    
C61   C63   A    
C12   O4    A    
C20   C35   S    
C34   H35   S    
O5    Zn1   S    
C22   C25   A    
C45   C67   S    
C31   C33   A    
C51   C57   A    
C14   C27   A    
O2    Zn6   S    
C44   C47   A    
C2    C16   S    
C17   O6    A    
O19   Zn2   S    
O12   Zn2   S    
O28   Zn5   S    
C91   O20   S    
C52   C55   A    
C59   C72   A    
C91   H48   S    
C85   C87   S    
C83   C88   S    
C28   H34   S    
C23   C87   S    
C4    C56   S    
C61   H26   S    
C58   H22   S    
C73   C75   A    
O7    Zn3   S    
C65   O10   A    
C42   C57   S    
C80   O16   A    
C52   C54   A    
O1    Zn3   S    
C91   H49   S    
C53   C55   A    
C2    C45   S    
C73   C79   A    
O26   Zn3   S    
C37   C39   A    
C46   C48   A    
C59   C61   A    
C69   C71   A    
C23   C84   S    
C62   C66   A    
C92   H52   S    
C32   C35   A    
C62   C79   S    
C17   C89   S    
O14   Zn7   S    
C68   H28   S    
C5    C7    S    
C29   H5    S    
C6    C8    S    
O23   Zn2   S    
C3    C45   S    
C1    C32   S    
C84   H16   S    
C40   C76   S    
C71   H20   S    
C51   C53   A    
C34   C85   S    
C2    C4    S    
C78   H37   S    
C34   C90   S    
O12   Zn6   S    
C2    C78   S    
C41   C75   S    
C50   H8    S    
C75   C77   A    
C40   O7    A    
O1    Zn1   S    
O17   Zn6   S    
C74   C77   A    
C16   O5    A    
C81   O17   A    
C66   H27   S    
C1    O3    A    
O8    Zn4   S    
C74   C76   A    
C26   H4    S    
C4    H41   S    
O22   Zn1   S    
C25   H3    S    
C56   C89   S    
C16   O28   A    
C20   C22   A    
C13   H46   S    
C48   Cl2   S    
C59   H24   S    
C23   C88   S    
C9    C11   S    
C54   C80   S    
C46   H15   S    
C17   O2    A    
C21   C24   A    
C64   O24   A    
C40   O22   A    
O12   Zn8   S    
C83   O15   A    
C27   H23   S    
C43   C55   S    
C7    C9    S    
C41   O23   A    
C63   C68   A    
C44   H14   S    
C47   Cl1   S    
C30   C33   A    
C92   H51   S    
O1    Zn5   S    
C38   C42   A    
C10   C64   S    
O16   Zn5   S    
C24   C26   A    
C85   H17   S    
C10   C13   S    
C39   H13   S    
C4    C67   S    
C39   C43   A    
C8    O21   S    
C5    C11   S    
C91   H47   S    
C25   C27   A    
O18   Zn1   S    
C29   C35   A    
C7    O20   S    
C23   H33   S    
C26   C28   A    
O15   Zn8   S    
C82   C90   S    
C3    C89   S    
C3    H40   S    
C38   H11   S    
C36   C38   A    
C42   C44   A    
O25   Zn8   S    
C5    C10   S    
C29   C31   A    
C6    C13   S    
C30   C32   A    
C37   C50   A    
O6    Zn2   S    
C15   C28   A    
C74   H32   S    
C87   H12   S    
O3    Zn7   S    
C6    H43   S    
C8    C11   S    
C73   H31   S    
C83   O19   A    
C64   O9    A    
C48   C50   A    
C19   H55   S    
C12   O27   A    
C18   C20   A    
O11   Zn3   S    
C92   H50   S    
C43   C46   A    
C9    C65   S    
C80   O11   A    
C86   H1    S    
C41   O8    A    
C67   H36   S    
C82   O14   A    
C70   H30   S    
C7    C13   S    
C14   H45   S    
C45   H38   S    
C68   C70   A    
C87   C90   S    
C63   C77   S    
C70   C72   A    
O9    Zn5   S    
C3    C78   S    
O10   Zn6   S    
C65   O25   A    
C36   C49   A    
C12   C31   S    
O13   Zn4   S    
C54   C57   A    
