data_mof_unit_30026.cif
_audit_creation_date              2012-10-26T20:03:06-0400
_audit_creation_method            fapswitch 2.2
_symmetry_space_group_name_H-M    P1
_symmetry_Int_Tables_number       1
_space_group_crystal_system       triclinic
_cell_length_a                    10.774915
_cell_length_b                    12.518936
_cell_length_c                    13.309381
_cell_angle_alpha                 117.816958
_cell_angle_beta                  74.393738
_cell_angle_gamma                 101.463512
_cell_volume                      1523.65160422

loop_
_atom_site_label
_atom_site_type_symbol
_atom_type_description
_atom_site_fract_x
_atom_site_fract_y
_atom_site_fract_z
_atom_type_partial_charge
C1    C     C_R   0.514820 0.855077 0.286463 0.539316
C2    C     C_R   0.510862 0.567312 0.004373 0.020246
C3    C     C_R   0.467016 0.654809 0.120002 0.007451
C4    C     C_R   0.739568 0.001146 0.501030 0.577727
C5    C     C_R   0.460383 0.443514 0.973633 0.030887
C6    C     C_R   0.353687 0.414912 0.049819 0.050425
C7    C     C_R   0.301834 0.505999 0.155899 -0.131169
C8    C     C_R   0.357662 0.623794 0.190766 -0.123115
C9    C     C_R   0.514102 0.346119 0.871905 -0.104472
C10   C     C_R   0.345453 0.203065 0.911096 -0.135811
C11   C     C_R   0.531460 0.772809 0.161773 0.000260
C12   C     C_3   0.122447 0.001673 0.502895 0.005015
C13   C     C_R   0.738631 0.364950 0.364106 0.021899
C14   C     C_R   0.307582 0.753081 0.629478 0.040237
C15   C     C_R   0.252697 0.649573 0.642903 -0.155343
C16   C     C_R   0.481237 0.145016 0.713498 0.560900
C17   C     C_R   0.322328 0.548295 0.591429 -0.120929
C18   C     C_R   0.453061 0.551482 0.533575 -0.021866
C19   C     C_R   0.500907 0.655998 0.511968 0.214009
C20   C     C_R   0.533675 0.451418 0.486184 -0.035922
C21   C     C_R   0.660518 0.462465 0.422661 -0.021481
C22   C     C_R   0.706079 0.567772 0.410257 -0.160582
C23   C     C_3   0.070270 0.123385 0.598999 -0.219851
C24   C     C_R   0.623539 0.652211 0.436683 0.110552
C25   C     C_R   0.499276 0.342664 0.501559 0.120812
C26   C     C_R   0.689977 0.254550 0.365732 0.250001
C27   C     C_R   0.260383 0.000766 0.501736 0.536249
C28   C     C_3   0.968192 0.995649 0.384545 -0.139682
C29   C     C_3   0.109786 0.985979 0.383182 -0.242002
C30   C     C_3   0.923427 0.124345 0.604657 0.074535
C31   C     C_3   0.899903 0.892605 0.518244 -0.233688
C32   C     C_3   0.878909 0.003569 0.502232 0.054601
C33   C     C_1   0.628442 0.542874 0.801996 0.182147
C34   C     C_3   0.039326 0.897197 0.527345 -0.247883
C35   C     C_1   0.926134 0.895546 0.280625 0.158126
C36   C     C_1   0.868314 0.374168 0.297416 0.203457
C37   C     C_1   0.399975 0.339164 0.597407 0.268851
C38   C     C_1   0.906369 0.233314 0.593955 0.236423
C39   C     C_R   0.298725 0.295049 0.018764 -0.123825
C40   C     C_R   0.451507 0.229374 0.836326 0.011159
C41   C     C_R   0.623951 0.809000 0.084871 -0.123476
C42   C     C_R   0.654492 0.730007 0.968506 -0.125767
C43   C     C_R   0.599675 0.610395 0.926595 -0.004034
Cu1   Cu    Cu3+1 0.529690 0.098270 0.475420 0.981730
Cu2   Cu    Cu3+1 0.470310 0.901730 0.524580 0.952040
H1    H     H_    0.965217 0.079738 0.376847 0.144509
H2    H     H_    0.311353 0.691047 0.273007 0.141411
H3    H     H_    0.801365 0.575365 0.359041 0.122161
H4    H     H_    0.251578 0.830456 0.667597 0.124052
H5    H     H_    0.267666 0.467748 0.593745 0.133951
H6    H     H_    0.153934 0.646178 0.689736 0.121255
H7    H     H_    0.144586 0.897056 0.314999 0.128847
H8    H     H_    0.173200 0.057210 0.361332 0.132245
H9    H     H_    0.128552 0.198388 0.580239 0.142143
H10   H     H_    0.832620 0.886880 0.595524 0.149451
H11   H     H_    0.880752 0.807032 0.443071 0.123816
H12   H     H_    0.041261 0.910498 0.615699 0.120721
H13   H     H_    0.078730 0.808650 0.464044 0.138232
H14   H     H_    0.867837 0.218930 0.783319 0.230483
H15   H     H_    0.870055 0.070861 0.738115 0.221543
H16   H     H_    0.727673 0.075842 0.301266 0.285945
H17   H     H_    0.773944 0.134231 0.207684 0.195716
H18   H     H_    0.621982 0.631159 0.278759 0.228415
H19   H     H_    0.747539 0.721715 0.331063 0.222422
H20   H     H_    0.086620 0.138807 0.684063 0.121766
H21   H     H_    0.295562 0.113042 0.884392 0.120519
H22   H     H_    0.218907 0.485845 0.213536 0.146652
H23   H     H_    0.216390 0.273370 0.076003 0.138815
H24   H     H_    0.604894 0.357214 0.817822 0.146879
H25   H     H_    0.673815 0.899004 0.114804 0.129090
H26   H     H_    0.722685 0.762785 0.910402 0.122205
N1    N     N_R   0.574690 0.246280 0.438200 -0.248760
N2    N     N_1   0.893364 0.318239 0.585630 -0.268327
N3    N     N_R   0.426100 0.754320 0.561190 -0.225148
N4    N     N_3   0.845467 0.133972 0.717657 -0.636318
N5    N     N_1   0.653315 0.490166 0.701981 -0.275726
N6    N     N_1   0.894079 0.817934 0.198360 -0.320599
N7    N     N_3   0.768269 0.154085 0.294251 -0.602194
N8    N     N_1   0.971371 0.381141 0.244181 -0.342452
N9    N     N_1   0.321319 0.337953 0.675844 -0.330457
N10   N     N_3   0.649197 0.700237 0.354636 -0.529485
O1    O     O_R   0.537340 0.972510 0.318130 -0.533907
O2    O     O_R   0.487200 0.806530 0.359650 -0.470929
O3    O     O_R   0.707380 0.082980 0.479220 -0.498258
O4    O     O_R   0.657240 0.917000 0.520740 -0.474990
O5    O     O_R   0.512800 0.193470 0.640350 -0.470100
O6    O     O_R   0.462660 0.027490 0.681870 -0.506566
O7    O     O_R   0.342760 0.083000 0.479260 -0.506108
O8    O     O_R   0.292620 0.917020 0.520780 -0.531077

loop_
_geom_bond_atom_site_label_1
_geom_bond_atom_site_label_2
_ccdc_geom_bond_type
C22   H3    S    
C12   C29   S    
C26   N1    A    
C39   H23   S    
C1    C11   S    
C7    C8    A    
C12   C23   S    
C28   H1    S    
C26   N7    S    
H18   N10   S    
C14   N3    A    
C28   C29   S    
Cu2   O6    S    
C9    H24   S    
Cu1   O1    S    
C5    C6    A    
C14   H4    S    
C20   C25   A    
C30   C38   S    
C10   C40   A    
C18   C19   A    
C41   C42   A    
C25   C37   S    
C28   C35   S    
C34   H12   S    
Cu1   N1    S    
C15   H6    S    
C31   H11   S    
Cu2   O8    S    
C2    C43   A    
C21   C22   A    
C16   O5    A    
Cu2   O2    S    
Cu1   O5    S    
C10   H21   S    
C37   N9    T    
C12   C27   S    
C33   C43   S    
C23   C30   S    
C28   C32   S    
C13   C36   S    
C3    C8    A    
C4    O4    A    
C1    O1    A    
C35   N6    T    
C9    C40   A    
C10   C39   A    
Cu2   O4    S    
C24   N10   S    
C5    C9    A    
C16   O6    A    
C33   N5    T    
C31   C32   S    
C4    O3    A    
H16   N7    S    
C17   C18   A    
C31   C34   S    
C13   C21   A    
C25   N1    A    
C4    C32   S    
C16   C40   S    
C27   O8    A    
C22   C24   A    
C13   C26   A    
C2    C5    A    
C42   C43   A    
C12   C34   S    
H14   N4    S    
Cu1   Cu2   S    
C23   H9    S    
C15   C17   A    
C6    C39   A    
C19   C24   A    
H17   N7    S    
C19   N3    A    
Cu1   O3    S    
C36   N8    T    
C17   H5    S    
C6    C7    A    
C1    O2    A    
H15   N4    S    
C23   H20   S    
C2    C3    A    
C8    H2    S    
C30   C32   S    
C30   N4    S    
C29   H8    S    
C42   H26   S    
C11   C41   A    
C18   C20   A    
C27   O7    A    
H19   N10   S    
C3    C11   A    
C7    H22   S    
C20   C21   A    
C34   H13   S    
C14   C15   A    
Cu2   N3    S    
C31   H10   S    
Cu1   O7    S    
C29   H7    S    
C41   H25   S    
C38   N2    T    
