data_mof_unit_46682.cif
_audit_creation_date              2012-10-26T18:59:54-0400
_audit_creation_method            fapswitch 2.2
_symmetry_space_group_name_H-M    P1
_symmetry_Int_Tables_number       1
_space_group_crystal_system       triclinic
_cell_length_a                    9.576834
_cell_length_b                    10.885896
_cell_length_c                    17.091042
_cell_angle_alpha                 87.989874
_cell_angle_beta                  92.993512
_cell_angle_gamma                 91.677821
_cell_volume                      1777.58358594

loop_
_atom_site_label
_atom_site_type_symbol
_atom_type_description
_atom_site_fract_x
_atom_site_fract_y
_atom_site_fract_z
_atom_type_partial_charge
C1    C     C_R   0.498507 0.262694 0.502702 0.544835
C2    C     C_R   0.497775 0.130156 0.513469 -0.038856
C3    C     C_R   0.379432 0.062385 0.536164 -0.114778
C4    C     C_R   0.516426 0.498897 0.650653 0.537575
C5    C     C_R   0.380534 0.932612 0.541781 -0.037797
C6    C     C_R   0.502333 0.870784 0.519488 -0.063509
C7    C     C_R   0.625352 0.942832 0.512212 0.110811
C8    C     C_3   0.741360 0.948966 0.455840 0.427928
C9    C     C_3   0.731734 0.087986 0.451083 -0.189787
C10   C     C_R   0.069530 0.543830 0.436008 0.125989
C11   C     C_R   0.075914 0.443242 0.559439 0.340032
C12   C     C_R   0.619919 0.417439 0.776538 -0.172042
C13   C     C_R   0.928257 0.446821 0.559972 0.060311
C14   C     C_R   0.921655 0.539895 0.434930 0.193086
C15   C     C_3   0.913626 0.665097 0.398482 0.115312
C16   C     C_R   0.501406 0.737684 0.505430 0.537229
C17   C     C_3   0.073392 0.672482 0.402649 -0.105407
C18   C     C_R   0.483395 0.497491 0.349225 0.563176
C19   C     C_R   0.523315 0.494446 0.736503 -0.021421
C20   C     C_R   0.428243 0.559174 0.779064 0.222913
C21   C     C_R   0.426607 0.540147 0.859802 -0.056317
C22   C     C_R   0.522873 0.461975 0.900374 0.218989
C23   C     C_R   0.587401 0.520961 0.139613 0.231778
C24   C     C_R   0.620519 0.401112 0.858477 0.262481
C25   C     C_2   0.255097 0.867445 0.572802 0.244545
C26   C     C_2   0.144287 0.685338 0.325928 0.274896
C27   C     C_R   0.595454 0.511542 0.221060 -0.084740
C28   C     C_R   0.456475 0.499694 0.098738 0.259210
C29   C     C_R   0.475068 0.491939 0.263254 -0.089986
C30   C     C_R   0.346439 0.469509 0.222752 -0.143780
C31   C     C_R   0.336079 0.474541 0.140492 0.255683
C32   C     C_R   0.621104 0.069113 0.508193 -0.038525
Cu1   Cu    Cu3+1 0.640670 0.499980 0.500000 1.000205
Cu2   Cu    Cu3+1 0.359330 0.500020 0.500000 0.967273
H1    H     H_    0.696177 0.524232 0.251202 0.238999
H2    H     H_    0.286205 0.110562 0.548797 0.183693
H3    H     H_    0.258421 0.773018 0.594108 0.159328
H4    H     H_    0.941672 0.935591 0.454541 0.338425
H5    H     H_    0.614741 0.917663 0.364337 0.312025
H6    H     H_    0.222856 0.340108 0.599656 0.363655
H7    H     H_    0.855101 0.749446 0.302070 0.374964
H8    H     H_    0.237640 0.743728 0.322264 0.105988
H9    H     H_    0.682506 0.597035 0.051972 0.358285
H10   H     H_    0.776576 0.290401 0.861329 0.336952
H11   H     H_    0.135657 0.438877 0.137098 0.358144
H12   H     H_    0.825200 0.137916 0.476816 0.156751
H13   H     H_    0.380103 0.679279 0.696978 0.321641
H14   H     H_    0.690718 0.125646 0.393321 0.120612
H15   H     H_    0.875172 0.404245 0.608689 0.155630
H16   H     H_    0.861335 0.724450 0.437306 0.223555
H17   H     H_    0.116033 0.739256 0.446026 0.095920
H18   H     H_    0.692729 0.367838 0.743788 0.128610
H19   H     H_    0.254242 0.447593 0.255038 0.178084
H20   H     H_    0.351906 0.590295 0.890783 0.195071
N1    N     N_2   0.529560 0.447568 0.983481 -0.149901
N2    N     N_2   0.441782 0.507843 0.016072 -0.217060
N3    N     N_R   0.147870 0.500930 0.499500 -0.270936
N4    N     N_R   0.851960 0.500890 0.499500 -0.303457
O1    O     O_R   0.618810 0.319640 0.500000 -0.506097
O2    O     O_3   0.868845 0.912859 0.492142 -0.641060
O3    O     O_3   0.708827 0.891452 0.384374 -0.708730
O4    O     O_3   0.142944 0.380499 0.620779 -0.665236
O5    O     O_3   0.851659 0.663140 0.322616 -0.642207
O6    O     O_2   0.100895 0.629770 0.268377 -0.458608
O7    O     O_3   0.708110 0.555302 0.102855 -0.625458
O8    O     O_3   0.715030 0.325983 0.899051 -0.622494
O9    O     O_3   0.209878 0.454777 0.099373 -0.619744
O10   O     O_3   0.337899 0.643835 0.744597 -0.648538
O11   O     O_R   0.381230 0.319680 0.499990 -0.534234
O12   O     O_R   0.631790 0.498830 0.613930 -0.515709
O13   O     O_R   0.394210 0.498870 0.613920 -0.473501
O14   O     O_R   0.618770 0.680320 0.500010 -0.449506
O15   O     O_R   0.381190 0.680360 0.500000 -0.548169
O16   O     O_R   0.605790 0.501130 0.386080 -0.467578
O17   O     O_R   0.368210 0.501170 0.386070 -0.499980
O18   O     O_2   0.145494 0.920622 0.577472 -0.475437

loop_
_geom_bond_atom_site_label_1
_geom_bond_atom_site_label_2
_ccdc_geom_bond_type
N1    N2    D    
Cu1   N4    S    
C27   C29   A    
H10   O8    S    
C19   C20   A    
C16   O14   A    
C11   O4    S    
C17   H17   S    
C4    O12   A    
C28   N2    S    
C7    C8    S    
C31   O9    S    
C18   O17   A    
C17   C26   S    
C1    O1    A    
C5    C6    A    
C10   C17   S    
H6    O4    S    
C2    C32   A    
C1    C2    S    
C15   H16   S    
C26   O6    D    
C9    C32   S    
C25   H3    S    
C4    C19   S    
C8    C9    S    
H11   O9    S    
Cu2   N3    S    
C23   C27   A    
Cu1   O14   S    
C24   O8    S    
C8    O3    S    
C9    H12   S    
C18   O16   A    
C21   C22   A    
H5    O3    S    
C12   H18   S    
C14   N4    A    
C30   H19   S    
C16   O15   A    
C10   N3    A    
C10   C14   A    
C13   N4    A    
C27   H1    S    
C1    O11   A    
C29   C30   A    
H9    O7    S    
Cu1   Cu2   S    
C18   C29   S    
C23   C28   A    
C13   H15   S    
Cu2   O11   S    
C6    C7    A    
Cu1   O12   S    
H4    O2    S    
C22   C24   A    
H7    O5    S    
H13   O10   S    
C26   H8    S    
C15   C17   S    
C7    C32   A    
C20   O10   S    
C28   C31   A    
C3    C5    A    
C5    C25   S    
C22   N1    S    
C12   C24   A    
C21   H20   S    
C25   O18   D    
C23   O7    S    
C2    C3    A    
C8    O2    S    
C11   C13   A    
C30   C31   A    
C3    H2    S    
C12   C19   A    
Cu2   O15   S    
C6    C16   S    
Cu1   O16   S    
Cu2   O17   S    
C20   C21   A    
C9    H14   S    
Cu1   O1    S    
C15   O5    S    
C14   C15   S    
C11   N3    A    
Cu2   O13   S    
C4    O13   A    
