data_mof_unit_23634.cif
_audit_creation_date              2012-12-10T17:40:57-0500
_audit_creation_method            fapswitch 2.2
_symmetry_space_group_name_H-M    P1
_symmetry_Int_Tables_number       1
_space_group_crystal_system       triclinic
_cell_length_a                    14.655764
_cell_length_b                    15.513459
_cell_length_c                    9.98477
_cell_angle_alpha                 86.120968
_cell_angle_beta                  91.94204
_cell_angle_gamma                 90.081689
_cell_volume                      2263.65073554

loop_
_atom_site_label
_atom_site_type_symbol
_atom_type_description
_atom_site_fract_x
_atom_site_fract_y
_atom_site_fract_z
_atom_type_partial_charge
C1    C     C_R   0.391082 0.871649 0.503007 0.933571
C2    C     C_R   0.749205 0.200506 0.378980 -0.073026
C3    C     C_R   0.272314 0.334461 0.433597 -0.070890
C4    C     C_R   0.243544 0.704172 0.376812 -0.030693
C5    C     C_R   0.696206 0.820531 0.516885 -0.039251
C6    C     C_R   0.713785 0.162130 0.499539 -0.047532
C7    C     C_R   0.196005 0.320238 0.517061 -0.060319
C8    C     C_R   0.212787 0.662656 0.498074 -0.046066
C9    C     C_R   0.333931 0.981482 0.131637 -0.057249
C10   C     C_R   0.835907 0.469073 0.133530 -0.048243
C11   C     C_R   0.266631 0.929394 0.076458 0.455201
C12   C     C_R   0.379742 0.119208 0.495000 0.881828
C13   C     C_R   0.771307 0.415534 0.075443 0.505235
C14   C     C_R   0.266762 0.918266 0.939275 -0.319314
C15   C     C_R   0.769757 0.410846 0.936746 -0.307237
C16   C     C_R   0.336430 0.957846 0.863881 0.613484
C17   C     C_R   0.837812 0.454722 0.863442 0.599636
C18   C     C_R   0.419779 0.982012 0.927088 0.013851
C19   C     C_R   0.920607 0.479178 0.927339 0.013640
C20   C     C_R   0.419224 0.987128 0.069782 -0.203042
C21   C     C_R   0.920108 0.482509 0.070356 -0.186706
C22   C     C_R   0.577161 0.012633 0.073672 0.744212
C23   C     C_R   0.890364 0.372000 0.503381 0.958443
C24   C     C_R   0.076533 0.515561 0.073206 0.731392
C25   C     C_R   0.626720 0.114625 0.499322 0.884483
C26   C     C_R   0.621833 0.881242 0.505029 0.859442
C27   C     C_R   0.126642 0.614389 0.499244 0.959190
C28   C     C_R   0.121639 0.381016 0.505001 0.858313
C29   C     C_R   0.576512 0.014547 0.931270 -0.182175
C30   C     C_R   0.075821 0.517537 0.930854 -0.177100
C31   C     C_R   0.192723 0.085227 0.561424 -0.181589
C32   C     C_R   0.372141 0.750771 0.752175 -0.314912
C33   C     C_R   0.692791 0.586506 0.572918 -0.185900
C34   C     C_R   0.878710 0.618321 0.495198 0.963049
C35   C     C_R   0.866521 0.254898 0.756691 -0.275815
C36   C     C_R   0.115550 0.071113 0.637298 0.613402
C37   C     C_R   0.357542 0.695562 0.864347 0.603965
C38   C     C_R   0.618290 0.574238 0.654731 0.632800
C39   C     C_R   0.849517 0.201540 0.869460 0.591009
C40   C     C_R   0.589597 0.641547 0.728221 0.555283
C41   C     C_R   0.805197 0.123689 0.856409 0.635101
C42   C     C_R   0.082802 0.137215 0.710089 0.562379
C43   C     C_R   0.310101 0.619478 0.851239 0.634310
C44   C     C_R   0.625442 0.725340 0.703018 -0.286416
C45   C     C_R   0.337011 0.268621 0.431244 -0.162335
C46   C     C_R   0.771107 0.102441 0.729445 -0.252900
C47   C     C_R   0.119812 0.221113 0.692484 -0.284030
C48   C     C_R   0.272791 0.600296 0.725178 -0.277775
C49   C     C_R   0.684065 0.740610 0.592522 -0.089357
C50   C     C_R   0.767455 0.167415 0.621222 -0.071946
C51   C     C_R   0.181992 0.238744 0.587167 -0.088714
C52   C     C_R   0.268992 0.666096 0.617800 -0.070605
C53   C     C_R   0.229098 0.169091 0.542323 0.014729
C54   C     C_R   0.328472 0.737208 0.626761 0.059860
C55   C     C_R   0.729554 0.669762 0.548672 -0.023149
C56   C     C_R   0.322709 0.752882 0.382877 -0.155748
C57   C     C_R   0.826052 0.239192 0.630364 0.038793
C58   C     C_R   0.312613 0.185510 0.482294 -0.083064
C59   C     C_R   0.347711 0.786555 0.506433 -0.066274
C60   C     C_R   0.811441 0.684632 0.483515 -0.053120
C61   C     C_R   0.847730 0.286599 0.509523 -0.045526
C62   C     C_2   0.429737 0.286255 0.377774 0.407784
C63   C     C_2   0.378529 0.767030 0.261828 0.572375
C64   C     C_2   0.923897 0.783648 0.364610 0.486336
C65   C     C_2   0.902656 0.234791 0.292394 0.484415
C66   C     C_2   0.188329 0.875323 0.874014 0.603204
C67   C     C_R   0.833515 0.766316 0.424297 -0.163947
C68   C     C_2   0.690885 0.369841 0.869212 0.604518
C69   C     C_2   0.624058 0.786398 0.811317 0.540648
C70   C     C_2   0.763285 0.010045 0.702748 0.541340
C71   C     C_2   0.116452 0.278844 0.805075 0.532243
C72   C     C_2   0.260697 0.508343 0.698048 0.554060
C73   C     C_2   0.782873 0.913075 0.339656 0.518015
C74   C     C_2   0.704662 0.197165 0.243689 0.616905
C75   C     C_2   0.284197 0.413301 0.341321 0.604805
C76   C     C_2   0.196077 0.699746 0.243629 0.557482
C77   C     C_2   0.298064 0.060039 0.186346 0.566623
C78   C     C_R   0.829534 0.247632 0.388847 -0.152417
C79   C     C_2   0.795729 0.541238 0.199489 0.562250
C80   C     C_R   0.769816 0.832707 0.427928 -0.105966
F1    F     F_    0.312246 0.988441 0.739322 -0.628038
F2    F     F_    0.309300 0.560892 0.958648 -0.561832
F3    F     F_    0.656962 0.024088 0.141832 -0.628404
F4    F     F_    0.156097 0.528526 0.140877 -0.630955
F5    F     F_    0.191808 0.906958 0.147697 -0.599572
F6    F     F_    0.697592 0.388575 0.145763 -0.590804
F7    F     F_    0.812787 0.488526 0.741067 -0.634400
F8    F     F_    0.077792 0.991344 0.650384 -0.563993
F9    F     F_    0.402821 0.708619 0.981427 -0.586313
F10   F     F_    0.579565 0.495191 0.672879 -0.558066
F11   F     F_    0.888365 0.220087 0.988428 -0.642445
F12   F     F_    0.533284 0.622582 0.830883 -0.556924
F13   F     F_    0.804003 0.065951 0.964799 -0.582433
F14   F     F_    0.020561 0.117169 0.804605 -0.575415
H1    H     H_    0.638954 0.026521 0.880814 0.183569
H2    H     H_    0.892126 0.189104 0.216757 0.166747
H3    H     H_    0.129377 0.855706 0.931486 0.139093
H4    H     H_    0.633745 0.345644 0.926987 0.138153
H5    H     H_    0.671361 0.839831 0.810538 0.120356
H6    H     H_    0.738876 0.991946 0.606653 0.080868
H7    H     H_    0.162921 0.332802 0.809068 0.128383
H8    H     H_    0.239657 0.491571 0.599913 0.069665
H9    H     H_    0.810857 0.909170 0.241122 0.115371
H10   H     H_    0.742368 0.175969 0.160443 0.102022
H11   H     H_    0.317808 0.407902 0.247015 0.140570
H12   H     H_    0.137695 0.532295 0.880093 0.186892
H13   H     H_    0.231210 0.673804 0.161336 0.108981
H14   H     H_    0.333236 0.121151 0.167693 0.037744
H15   H     H_    0.821624 0.606208 0.178468 0.036769
H16   H     H_    0.223312 0.031010 0.516711 0.237012
H17   H     H_    0.422854 0.799307 0.766567 0.225972
H18   H     H_    0.721273 0.531259 0.528467 0.243609
H19   H     H_    0.916060 0.304082 0.772729 0.223304
H20   H     H_    0.467118 0.236481 0.332262 0.136078
H21   H     H_    0.345961 0.778529 0.163779 0.075532
H22   H     H_    0.928729 0.814600 0.264495 0.088568
N1    N     N_R   0.498810 0.000000 0.142780 -0.141124
N2    N     N_R   0.998810 0.500000 0.142780 -0.141229
N3    N     N_R   0.498740 0.000000 0.857170 -0.128743
N4    N     N_R   0.998740 0.500000 0.857170 -0.130238
O1    O     O_R   0.408390 0.908380 0.614690 -0.572638
O2    O     O_R   0.591620 0.908390 0.614640 -0.695028
O3    O     O_R   0.091620 0.591610 0.614640 -0.643538
O4    O     O_R   0.091620 0.408390 0.614640 -0.695389
O5    O     O_R   0.591610 0.091610 0.385310 -0.548407
O6    O     O_R   0.591610 0.908390 0.385310 -0.532337
O7    O     O_R   0.091610 0.591610 0.385310 -0.536809
O8    O     O_R   0.091610 0.408390 0.385310 -0.528266
O9    O     O_2   0.466516 0.356327 0.387834 -0.452315
O10   O     O_2   0.461796 0.764291 0.271551 -0.483917
O11   O     O_2   0.994069 0.766052 0.429894 -0.491632
O12   O     O_R   0.408390 0.091620 0.614690 -0.521322
O13   O     O_2   0.978172 0.267124 0.304401 -0.519389
O14   O     O_2   0.189374 0.859302 0.756069 -0.490206
O15   O     O_2   0.689437 0.360676 0.748733 -0.493782
O16   O     O_2   0.573548 0.776088 0.905719 -0.465452
O17   O     O_2   0.789608 0.953140 0.785414 -0.515364
O18   O     O_2   0.066199 0.264377 0.898905 -0.467555
O19   O     O_2   0.279384 0.450106 0.782878 -0.518671
O20   O     O_2   0.764623 0.984242 0.375784 -0.582902
O21   O     O_2   0.626907 0.223790 0.221870 -0.528498
O22   O     O_2   0.259743 0.484605 0.369462 -0.583511
O23   O     O_R   0.908390 0.408380 0.614690 -0.592147
O24   O     O_2   0.119711 0.730044 0.222807 -0.506316
O25   O     O_2   0.227452 0.058830 0.248005 -0.502272
O26   O     O_2   0.730726 0.530404 0.272052 -0.497379
O27   O     O_R   0.908390 0.591620 0.614690 -0.525604
O28   O     O_R   0.408370 0.908380 0.385360 -0.611306
O29   O     O_R   0.408370 0.091620 0.385360 -0.678614
O30   O     O_R   0.908370 0.408380 0.385360 -0.587125
O31   O     O_R   0.908370 0.591620 0.385360 -0.665208
O32   O     O_R   0.591620 0.091610 0.614640 -0.646399
Zn1   Zn    Zn3+2 0.500010 0.000000 0.653130 1.003322
Zn2   Zn    Zn3+2 0.000010 0.500000 0.653130 1.010244
Zn3   Zn    Zn3+2 0.499980 0.000000 0.346870 1.055516
Zn4   Zn    Zn3+2 0.999980 0.500000 0.346870 1.076628

loop_
_geom_bond_atom_site_label_1
_geom_bond_atom_site_label_2
_ccdc_geom_bond_type
C44   C49   A    
C33   C55   A    
C22   N1    A    
C64   H22   S    
C32   H17   S    
O4    Zn2   S    
C36   C42   A    
C4    C8    A    
C5    C49   A    
O31   Zn4   S    
C39   C41   A    
C36   F8    S    
C29   N3    A    
O1    Zn1   S    
C25   O32   A    
C66   H3    S    
C22   C29   A    
C11   F5    S    
C62   H20   S    
C3    C7    A    
C1    C59   S    
C11   C14   A    
C6    C25   S    
C12   O12   A    
C45   C62   S    
C26   O6    A    
C63   O10   D    
C39   F11   S    
O27   Zn2   S    
C25   O5    A    
C8    C27   S    
C66   O14   D    
C27   O7    A    
C73   C80   S    
C72   O19   D    
C41   F13   S    
C60   C67   A    
C52   C54   A    
C13   F6    S    
N1    Zn3   S    
C41   C46   A    
N2    Zn4   S    
O28   Zn3   S    
C71   O18   D    
C3    C75   S    
C43   C48   A    
C8    C52   A    
C40   C44   A    
C2    C74   S    
C53   C58   A    
C12   C58   S    
O6    Zn3   S    
C71   H7    S    
N3    Zn1   S    
O30   Zn4   S    
C55   C60   A    
C30   H12   S    
C34   C60   S    
C62   O9    D    
C23   O23   A    
C2    C6    A    
C48   C72   S    
C32   C54   A    
C20   N1    A    
C70   H6    S    
C79   O26   D    
C1    O1    A    
C54   C59   A    
C65   H2    S    
C10   C21   A    
C45   C58   A    
C4    C76   S    
C79   H15   S    
C64   C67   S    
C72   H8    S    
C29   H1    S    
C27   O3    A    
O23   Zn2   S    
C47   C51   A    
C49   C55   A    
C3    C45   A    
C31   C53   A    
C7    C28   S    
C51   C53   A    
C37   C43   A    
C35   C39   A    
C21   N2    A    
C2    C78   A    
C75   O22   D    
C34   O27   A    
C9    C20   A    
C64   O11   D    
C48   C52   A    
C61   C78   A    
C34   O31   A    
N4    Zn2   S    
O12   Zn1   S    
C14   C66   S    
C56   C63   S    
C44   C69   S    
C33   H18   S    
C9    C77   S    
C32   C37   A    
C40   F12   S    
C5    C80   A    
C9    C11   A    
C47   C71   S    
C65   O13   D    
C69   H5    S    
C74   O21   D    
C19   N4    A    
C75   H11   S    
C69   O16   D    
C13   C15   A    
O2    Zn1   S    
C14   C16   A    
C24   C30   A    
C77   O25   D    
C74   H10   S    
C23   C61   S    
C15   C17   A    
C38   F10   S    
C65   C78   S    
C6    C50   A    
C19   C21   A    
C42   F14   S    
C50   C57   A    
C12   O29   A    
C23   O30   A    
C77   H14   S    
C67   C80   A    
C76   O24   D    
C10   C13   A    
O7    Zn4   S    
C10   C79   S    
C28   O4    A    
C57   C61   A    
C73   O20   D    
C76   H13   S    
C46   C50   A    
C24   N2    A    
C33   C38   A    
C56   C59   A    
C37   F9    S    
C35   C57   A    
C22   F3    S    
O29   Zn3   S    
C63   H21   S    
C38   C40   A    
C30   N4    A    
C68   O15   D    
C15   C68   S    
C16   F1    S    
C17   C19   A    
C31   H16   S    
C35   H19   S    
C18   C20   A    
C42   C47   A    
C24   F4    S    
C68   H4    S    
C46   C70   S    
C17   F7    S    
O8    Zn4   S    
C7    C51   A    
C5    C26   S    
C28   O8    A    
C73   H9    S    
O32   Zn1   S    
C70   O17   D    
C16   C18   A    
C43   F2    S    
C31   C36   A    
C1    O28   A    
C26   O2    A    
C18   N3    A    
C4    C56   A    
O5    Zn3   S    
O3    Zn2   S    
