data_mof_unit_55289.cif
_audit_creation_date              2012-12-11T15:48:46-0500
_audit_creation_method            fapswitch 2.2
_symmetry_space_group_name_H-M    P1
_symmetry_Int_Tables_number       1
_space_group_crystal_system       triclinic
_cell_length_a                    11.022917
_cell_length_b                    10.925394
_cell_length_c                    18.790808
_cell_angle_alpha                 90.313525
_cell_angle_beta                  89.874626
_cell_angle_gamma                 60.3207
_cell_volume                      1966.03270255

loop_
_atom_site_label
_atom_site_type_symbol
_atom_type_description
_atom_site_fract_x
_atom_site_fract_y
_atom_site_fract_z
_atom_type_partial_charge
C1    C     C_R   0.283594 0.625768 0.615989 0.555915
C2    C     C_3   0.742530 0.514581 0.795817 0.199488
C3    C     C_3   0.697293 0.670211 0.813870 0.014681
C4    C     C_3   0.668161 0.644933 0.677778 -0.031455
C5    C     C_3   0.763915 0.707841 0.688122 0.217801
C6    C     C_3   0.730597 0.499896 0.715906 -0.237016
C7    C     C_R   0.685765 0.144813 0.820509 -0.027479
C8    C     C_R   0.779923 0.171681 0.783571 -0.004194
C9    C     C_R   0.774544 0.182139 0.709234 -0.014463
C10   C     C_R   0.592283 0.122534 0.706952 -0.026283
C11   C     C_R   0.586581 0.128340 0.780169 -0.135958
C12   C     C_R   0.652362 0.620810 0.601783 0.589323
C13   C     C_3   0.934013 0.086832 0.784195 -0.174540
C14   C     C_3   0.929991 0.097216 0.704007 -0.257766
C15   C     C_R   0.678993 0.158904 0.670393 0.034716
C16   C     C_R   0.206875 0.659702 0.841274 0.011608
C17   C     C_R   0.250941 0.530891 0.805608 -0.161092
C18   C     C_R   0.269559 0.521335 0.732055 -0.034636
C19   C     C_R   0.222917 0.759792 0.729058 -0.159750
C20   C     C_R   0.218124 0.764397 0.803003 0.305927
C21   C     C_3   0.209705 0.419867 0.807122 0.353663
C22   C     C_3   0.215097 0.420676 0.726321 0.764159
C23   C     C_R   0.630282 0.225372 0.601504 0.547362
C24   C     C_R   0.245000 0.638831 0.691605 -0.040626
C25   C     C_R   0.653039 0.655792 0.164856 -0.016543
C26   C     C_R   0.751918 0.536793 0.202121 0.045356
C27   C     C_R   0.746084 0.530905 0.274729 -0.050330
C28   C     C_R   0.526926 0.746492 0.276579 -0.167133
C29   C     C_R   0.532090 0.753398 0.201787 -0.173530
C30   C     C_3   0.908682 0.466086 0.204488 0.316168
C31   C     C_3   0.900121 0.459859 0.284349 -0.190609
C32   C     C_R   0.641462 0.640317 0.313967 -0.004145
C33   C     C_R   0.635198 0.185400 0.169609 -0.027231
C34   C     C_R   0.220887 0.648902 0.402038 0.563756
C35   C     C_R   0.525264 0.189758 0.209012 0.100288
C36   C     C_R   0.522972 0.201420 0.281757 0.022574
C37   C     C_R   0.725770 0.229885 0.277490 -0.165046
C38   C     C_R   0.726576 0.221150 0.203344 -0.163335
C39   C     C_3   0.475456 0.084919 0.212649 0.337647
C40   C     C_3   0.471263 0.100117 0.292662 0.285674
C41   C     C_R   0.629917 0.208253 0.317417 -0.051044
C42   C     C_R   0.118982 0.689370 0.188394 0.011942
C43   C     C_R   0.067016 0.809649 0.231727 -0.058030
C44   C     C_R   0.080557 0.800525 0.304079 -0.023424
C45   C     C_R   0.638342 0.619054 0.390224 0.561205
C46   C     C_R   0.181808 0.547695 0.293848 -0.128288
C47   C     C_R   0.168671 0.557857 0.220113 0.323852
C48   C     C_3   0.092184 0.931849 0.228087 -0.204660
C49   C     C_3   0.102565 0.925328 0.308242 -0.228305
C50   C     C_R   0.150087 0.668381 0.335445 -0.044403
C51   C     C_R   0.703128 0.097906 0.894720 0.533650
C52   C     C_R   0.721246 0.685550 0.889608 0.553848
C53   C     C_R   0.122886 0.703919 0.907181 0.566074
C54   C     C_R   0.672970 0.110707 0.102474 0.530922
C55   C     C_R   0.695344 0.687875 0.096741 0.511640
C56   C     C_R   0.612909 0.236725 0.392836 0.549159
C57   C     C_R   0.089791 0.711485 0.113688 0.565846
C58   C     C_3   0.541006 0.759480 0.793449 0.209960
C59   C     C_3   0.525354 0.743351 0.713199 -0.160034
C60   C     C_3   0.782260 0.722226 0.768564 -0.144013
Cr1   Cr    Cr6+3 0.392960 0.397920 0.502240 1.126590
Cr2   Cr    Cr6+3 0.398340 0.708480 0.501250 1.049088
Cr3   Cr    Cr6+3 0.708670 0.393570 0.496460 1.036880
Cr4   Cr    Cr6+3 0.937650 0.938540 0.007610 1.092871
Cr5   Cr    Cr6+3 0.625330 0.937370 0.994520 1.122604
Cr6   Cr    Cr6+3 0.937940 0.625230 0.001190 1.171791
H1    H     H_    0.509736 0.107986 0.804555 0.237540
H2    H     H_    0.966914 0.979433 0.803534 0.181365
H3    H     H_    0.976641 0.159858 0.683288 0.183198
H4    H     H_    0.965819 0.994568 0.676422 0.156039
H5    H     H_    0.479981 0.721450 0.824005 0.154819
H6    H     H_    0.463031 0.691519 0.705514 0.055728
H7    H     H_    0.802174 0.249013 0.303415 0.155192
H8    H     H_    0.545911 0.002986 0.321310 0.053820
H9    H     H_    0.000763 0.028355 0.208439 0.181146
H10   H     H_    0.192549 0.904699 0.201256 0.177007
H11   H     H_    0.747721 0.833984 0.781867 0.168149
O1    O     O_R   0.507380 0.255700 0.581440 -0.470667
O2    O     O_R   0.524480 0.695810 0.424040 -0.497849
O3    O     O_R   0.736390 0.504290 0.414790 -0.511162
O4    O     O_R   0.691300 0.277290 0.422170 -0.513303
O5    O     O_3   0.499990 0.499990 0.499980 -0.301219
O6    O     O_R   0.089400 0.825690 0.930570 -0.448667
O7    O     O_R   0.818460 0.054440 0.929850 -0.489083
O8    O     O_R   0.606060 0.077150 0.915510 -0.499159
O9    O     O_R   0.646550 0.806680 0.917570 -0.455941
O10   O     O_R   0.837170 0.593410 0.915250 -0.390382
O11   O     O_R   0.065200 0.635530 0.931570 -0.451854
O12   O     O_R   0.280320 0.527350 0.578930 -0.435578
O13   O     O_R   0.068260 0.828890 0.091840 -0.524810
O14   O     O_R   0.798870 0.057410 0.079340 -0.508380
O15   O     O_R   0.584930 0.080350 0.076780 -0.471933
O16   O     O_R   0.626960 0.809650 0.067060 -0.501632
O17   O     O_R   0.816040 0.596610 0.076510 -0.494293
O18   O     O_R   0.045610 0.638500 0.081060 -0.462662
O19   O     O_3   0.833640 0.833710 0.001100 -0.318417
O20   O     O_R   0.260510 0.739590 0.584590 -0.529033
O21   O     O_R   0.532300 0.695080 0.573820 -0.501196
O22   O     O_R   0.744840 0.503500 0.576370 -0.516897
O23   O     O_R   0.699120 0.276560 0.571960 -0.513184
O24   O     O_R   0.498940 0.256500 0.419860 -0.472940
O25   O     O_R   0.272500 0.528080 0.429150 -0.499592
O26   O     O_R   0.252060 0.740380 0.423010 -0.517452
F1    F     F_    0.486946 0.900827 0.809464 -0.595495
H12   H     H_    0.835933 0.425140 0.693999 0.228970
H13   H     H_    0.894467 0.662743 0.781511 0.208013
H14   H     H_    0.865401 0.639124 0.662077 0.230320
H15   H     H_    0.522612 0.096765 0.678463 0.259548
H16   H     H_    0.983257 0.142587 0.810408 0.260300
H17   H     H_    0.218860 0.848620 0.701580 0.175216
F2    F     F_    0.212787 0.878010 0.835979 -0.598885
F3    F     F_    0.078293 0.465302 0.833835 -0.543839
H18   H     H_    0.290600 0.320632 0.831633 0.122564
F4    F     F_    0.307302 0.293006 0.696666 -0.642696
F5    F     F_    0.086281 0.478571 0.694669 -0.607898
H19   H     H_    0.437525 0.827156 0.305010 0.158176
H20   H     H_    0.448631 0.841392 0.174211 0.177765
H21   H     H_    0.950267 0.534284 0.186402 0.170600
F6    F     F_    0.971630 0.333928 0.172898 -0.568067
H22   H     H_    0.944953 0.351100 0.305137 0.192600
H23   H     H_    0.933414 0.527676 0.312810 0.098847
H24   H     H_    0.806344 0.228556 0.173232 0.202892
H25   H     H_    0.555140 0.979420 0.193148 0.042376
F7    F     F_    0.344600 0.136129 0.182731 -0.492228
F8    F     F_    0.336853 0.165824 0.320170 -0.575497
H26   H     H_    0.231581 0.443577 0.316887 0.226110
F9    F     F_    0.212966 0.439461 0.180019 -0.546141
H27   H     H_    0.471601 0.848236 0.687109 0.236645
H28   H     H_    0.207181 0.901668 0.326700 0.181128
H29   H     H_    0.014107 0.016835 0.335244 0.144796
F10   F     F_    0.708117 0.837546 0.655377 -0.666299
F11   F     F_    0.877813 0.421161 0.816199 -0.548534
H30   H     H_    0.673056 0.483752 0.824236 0.099695
H31   H     H_    0.661314 0.454576 0.706234 0.083634

loop_
_geom_bond_atom_site_label_1
_geom_bond_atom_site_label_2
_ccdc_geom_bond_type
C44   C49   S    
Cr5   O15   S    
C8    C13   S    
C32   C45   S    
C48   H10   S    
C10   H15   S    
C35   C36   A    
Cr4   O13   S    
C55   O16   A    
C51   O8    A    
Cr5   O9    S    
C41   C56   S    
C7    C11   A    
C26   C27   A    
C34   O25   A    
Cr3   O4    S    
C18   C24   A    
C28   C29   A    
C56   O24   A    
C10   C15   A    
Cr6   O11   S    
C30   C31   S    
C58   H5    S    
C30   F6    S    
C40   F8    S    
C20   F2    S    
C39   H25   S    
Cr3   O22   S    
C16   C53   S    
Cr4   O7    S    
C12   O22   A    
C13   H16   S    
C28   H19   S    
Cr2   O21   S    
Cr5   O19   S    
C19   C20   A    
Cr1   O12   S    
C16   C17   A    
C2    F11   S    
C4    C12   S    
C43   C48   S    
C12   O21   A    
C59   H6    S    
Cr6   O17   S    
C3    C60   S    
Cr5   O16   S    
C23   O23   A    
Cr2   O5    S    
C21   C22   S    
C37   C41   A    
C14   H4    S    
C48   H9    S    
C36   C41   A    
C2    C6    S    
C55   O17   A    
C42   C57   S    
C11   H1    S    
Cr3   O3    S    
C25   C29   A    
C60   H11   S    
C34   C50   S    
C2    H30   S    
C57   O13   A    
Cr3   O5    S    
C27   C31   S    
Cr2   O2    S    
C28   C32   A    
C31   H23   S    
C4    C6    S    
C1    O20   A    
Cr6   O10   S    
C8    C9    A    
C30   H21   S    
Cr3   O23   S    
C58   C59   S    
C29   H20   S    
C17   C21   S    
C39   F7    S    
Cr1   O24   S    
C9    C14   S    
Cr4   O6    S    
C54   O15   A    
C37   C38   A    
Cr2   O20   S    
C36   C40   S    
Cr1   O1    S    
C16   C20   A    
C59   H27   S    
C17   C18   A    
C45   O2    A    
Cr5   O8    S    
Cr4   O19   S    
C38   H24   S    
C21   H18   S    
C48   C49   S    
C53   O11   A    
C26   C30   S    
C43   C44   A    
C14   H3    S    
C58   F1    S    
C42   C43   A    
C39   C40   S    
C21   F3    S    
C60   H13   S    
Cr6   O19   S    
Cr2   O26   S    
C5    H14   S    
C19   H17   S    
C44   C50   A    
C33   C54   S    
C40   H8    S    
C37   H7    S    
C46   C47   A    
C22   F5    S    
C1    O12   A    
C5    C60   S    
C27   C32   A    
C18   C22   S    
C19   C24   A    
C46   H26   S    
C52   O10   A    
C25   C55   S    
C4    C5    S    
C3    C52   S    
C47   F9    S    
C49   H29   S    
C46   C50   A    
C22   F4    S    
C34   O26   A    
C53   O6    A    
Cr1   O5    S    
C52   O9    A    
C2    C3    S    
C25   C26   A    
C7    C51   S    
C54   O14   A    
C6    H31   S    
C49   H28   S    
C35   C39   S    
C4    C59   S    
C15   C23   S    
C33   C35   A    
C6    H12   S    
C56   O4    A    
Cr1   O25   S    
C45   O3    A    
C42   C47   A    
C23   O1    A    
C9    C15   A    
C31   H22   S    
C7    C8    A    
C10   C11   A    
C3    C58   S    
C5    F10   S    
C1    C24   S    
C57   O18   A    
C33   C38   A    
Cr4   O14   S    
C13   C14   S    
C51   O7    A    
Cr6   O18   S    
C13   H2    S    
