data_mof_unit_5333.cif
_audit_creation_date              2012-12-10T16:59:12-0500
_audit_creation_method            fapswitch 2.2
_symmetry_space_group_name_H-M    P1
_symmetry_Int_Tables_number       1
_space_group_crystal_system       triclinic
_cell_length_a                    7.73566
_cell_length_b                    8.552442
_cell_length_c                    27.731002
_cell_angle_alpha                 90.991303
_cell_angle_beta                  86.176214
_cell_angle_gamma                 93.725968
_cell_volume                      1826.54094472

loop_
_atom_site_label
_atom_site_type_symbol
_atom_type_description
_atom_site_fract_x
_atom_site_fract_y
_atom_site_fract_z
_atom_type_partial_charge
C1    C     C_R   0.545933 0.794860 0.498736 0.976385
C2    C     C_R   0.524416 0.639383 0.128026 -0.008140
C3    C     C_R   0.509788 0.499319 0.646400 -0.038404
C4    C     C_R   0.490219 0.500670 0.353599 -0.038420
C5    C     C_R   0.540613 0.641342 0.025926 0.089405
C6    C     C_R   0.459635 0.358571 0.974072 0.089399
C7    C     C_R   0.450891 0.358727 0.025355 -0.021662
C8    C     C_R   0.549388 0.641180 0.974642 -0.021702
C9    C     C_R   0.490005 0.500178 0.050991 0.070065
C10   C     C_R   0.510235 0.499736 0.949007 0.070054
C11   C     C_R   0.583956 0.777918 0.053279 -0.235992
C12   C     C_R   0.454067 0.205140 0.501264 0.976384
C13   C     C_R   0.416242 0.222005 0.946720 -0.235891
C14   C     C_R   0.575845 0.776476 0.103195 -0.097461
C15   C     C_R   0.424311 0.223454 0.896803 -0.097410
C16   C     C_R   0.502906 0.499923 0.593916 0.873679
C17   C     C_R   0.497094 0.500076 0.406084 0.873682
C18   C     C_R   0.594888 0.778834 0.947964 -0.343582
C19   C     C_R   0.405455 0.221059 0.052033 -0.343655
C20   C     C_2   0.570224 0.958343 0.498002 -0.372290
C21   C     C_2   0.429776 0.041657 0.501998 -0.372291
C22   C     C_R   0.572434 0.633934 0.821208 0.529288
C23   C     C_R   0.518966 0.499714 0.897708 -0.127541
C24   C     C_R   0.427658 0.366012 0.178791 0.529397
C25   C     C_R   0.481652 0.361985 0.821589 0.506597
C26   C     C_R   0.518421 0.637965 0.178410 0.506579
C27   C     C_R   0.362405 0.500534 0.726039 -0.101709
C28   C     C_R   0.637602 0.499292 0.273962 -0.101729
C29   C     C_R   0.355803 0.501442 0.676160 -0.203469
C30   C     C_R   0.644194 0.498398 0.323842 -0.203441
C31   C     C_R   0.670312 0.496592 0.667210 -0.209201
C32   C     C_R   0.329716 0.503537 0.332787 -0.209210
C33   C     C_R   0.676439 0.496131 0.717162 -0.096037
C34   C     C_R   0.481223 0.500209 0.102289 -0.127573
C35   C     C_R   0.323599 0.503986 0.282834 -0.096016
C36   C     C_R   0.522501 0.497897 0.746445 0.316419
C37   C     C_R   0.477529 0.502067 0.253554 0.316418
C38   C     C_3   0.831675 0.957549 0.876560 -0.209718
C39   C     C_3   0.168749 0.042048 0.123337 -0.209850
C40   C     C_R   0.568861 0.638648 0.872018 -0.140252
C41   C     C_R   0.431320 0.361276 0.127979 -0.140201
C42   C     C_R   0.610944 0.777757 0.897647 0.550224
C43   C     C_R   0.389327 0.222145 0.102350 0.550284
C44   C     C_R   0.475724 0.360551 0.871972 -0.008115
H1    H     H_    0.790848 0.495236 0.645003 0.158964
H2    H     H_    0.243473 0.502150 0.748937 0.131342
H3    H     H_    0.612208 0.883948 0.122306 0.215534
H4    H     H_    0.387919 0.115988 0.877693 0.215462
H5    H     H_    0.627890 0.888769 0.037636 0.140793
H6    H     H_    0.372279 0.111163 0.962364 0.140781
H7    H     H_    0.617144 0.891938 0.964697 0.156536
H8    H     H_    0.383338 0.107940 0.035297 0.156475
H9    H     H_    0.702803 0.009564 0.494186 0.180638
H10   H     H_    0.297197 0.990436 0.505814 0.180637
H11   H     H_    0.911888 0.861768 0.861957 0.159083
H12   H     H_    0.209190 0.505015 0.354992 0.158982
H13   H     H_    0.863434 0.988552 0.914204 0.127128
H14   H     H_    0.866739 0.062450 0.854125 0.203792
H15   H     H_    0.137408 0.010621 0.085684 0.127220
H16   H     H_    0.088215 0.137826 0.137794 0.158911
H17   H     H_    0.133665 0.937315 0.145848 0.203858
H18   H     H_    0.014117 0.383191 0.463422 0.191268
H19   H     H_    0.985883 0.616809 0.536578 0.191263
H20   H     H_    0.800216 0.494145 0.733169 0.131266
H21   H     H_    0.199840 0.506081 0.266825 0.131273
H22   H     H_    0.769476 0.496340 0.339008 0.160453
H23   H     H_    0.230504 0.503390 0.660995 0.160442
H24   H     H_    0.756527 0.497554 0.251066 0.131341
N1    N     N_R   0.528013 0.497453 0.797610 -0.368192
N2    N     N_R   0.472037 0.502503 0.202389 -0.368219
N3    N     N_2   0.950320 0.457960 0.486880 -0.175745
N4    N     N_2   0.049680 0.542040 0.513120 -0.175745
O1    O     O_R   0.389250 0.738570 0.503220 -0.611227
O2    O     O_2   0.382578 0.235800 0.204686 -0.480945
O3    O     O_2   0.559268 0.770606 0.203445 -0.527506
O4    O     O_2   0.440765 0.229354 0.796555 -0.527565
O5    O     O_3   0.652784 0.917401 0.873804 -0.568223
O6    O     O_3   0.347547 0.082501 0.126201 -0.568173
O7    O     O_R   0.610750 0.261430 0.496780 -0.611227
O8    O     O_R   0.678390 0.711630 0.494810 -0.629395
O9    O     O_R   0.321610 0.288370 0.505190 -0.629395
O10   O     O_R   0.355440 0.513440 0.575450 -0.621434
O11   O     O_R   0.644560 0.486560 0.424550 -0.621437
O12   O     O_R   0.644590 0.486500 0.567040 -0.630431
O13   O     O_R   0.355410 0.513500 0.432960 -0.630432
O14   O     O_2   0.617461 0.764159 0.795314 -0.481033
Zn1   Zn    Zn3+2 0.306940 0.517990 0.505620 0.949795
Zn2   Zn    Zn3+2 0.693060 0.482010 0.494380 0.949795

loop_
_geom_bond_atom_site_label_1
_geom_bond_atom_site_label_2
_ccdc_geom_bond_type
C27   C29   A    
C24   N2    A    
C43   O6    S    
C17   O13   A    
C28   H24   S    
C15   C44   A    
C5    C11   A    
C18   C42   A    
C21   H10   S    
C11   C14   A    
C35   H21   S    
C23   C40   A    
C12   O7    A    
C16   O12   A    
C33   C36   A    
C3    C29   A    
O1    Zn1   S    
C10   C23   A    
C29   H23   S    
C14   H3    S    
C19   H8    S    
C38   H11   S    
C12   O9    A    
C31   C33   A    
C22   N1    A    
C2    C34   A    
C40   C42   A    
O11   Zn2   S    
C22   C40   A    
C38   H14   S    
C37   N2    S    
C24   C41   A    
C41   C43   A    
C34   C41   A    
C15   H4    S    
C25   C44   A    
O7    Zn2   S    
C19   C43   A    
C18   H7    S    
O13   Zn1   S    
C39   H17   S    
C32   C35   A    
C12   C21   S    
C8    C18   A    
C23   C44   A    
N3    Zn2   S    
C17   O11   A    
C39   O6    S    
C5    C9    A    
C11   H5    S    
C38   H13   S    
C39   H15   S    
C16   O10   A    
C26   O3    S    
C2    C26   A    
C30   H22   S    
H19   N4    S    
C3    C31   A    
O9    Zn1   S    
C4    C17   S    
C27   H2    S    
C7    C19   A    
C13   C15   A    
C9    C34   A    
C26   N2    A    
C25   N1    A    
N4    Zn1   S    
C36   N1    S    
C7    C9    A    
C1    C20   S    
C35   C37   A    
O12   Zn2   S    
C20   H9    S    
C6    C10   A    
C5    C8    A    
C6    C7    A    
C38   O5    S    
C27   C36   A    
C25   O4    S    
C1    O1    A    
C28   C30   A    
N3    N4    D    
O8    Zn2   S    
C6    C13   A    
C24   O2    S    
C28   C37   A    
C33   H20   S    
C39   H16   S    
C13   H6    S    
H18   N3    S    
C22   O14   S    
C2    C14   A    
C4    C32   A    
C20   C21   D    
C42   O5    S    
C8    C10   A    
C31   H1    S    
C1    O8    A    
C32   H12   S    
C4    C30   A    
C3    C16   S    
O10   Zn1   S    
