data_mof_unit_8026.cif
_audit_creation_date              2012-12-10T20:44:01-0500
_audit_creation_method            fapswitch 2.2
_symmetry_space_group_name_H-M    P1
_symmetry_Int_Tables_number       1
_space_group_crystal_system       triclinic
_cell_length_a                    17.516229
_cell_length_b                    10.700564
_cell_length_c                    9.861039
_cell_angle_alpha                 90.392089
_cell_angle_beta                  89.08493
_cell_angle_gamma                 90.255761
_cell_volume                      1847.9928265

loop_
_atom_site_label
_atom_site_type_symbol
_atom_type_description
_atom_site_fract_x
_atom_site_fract_y
_atom_site_fract_z
_atom_type_partial_charge
C1    C     C_R   0.498603 0.259861 0.499027 0.916466
C2    C     C_R   0.114151 0.537136 0.517221 -0.021761
C3    C     C_R   0.492806 0.064663 0.619044 0.093498
C4    C     C_R   0.353638 0.502930 0.500992 0.936074
C5    C     C_R   0.489839 0.127716 0.496548 -0.220343
C6    C     C_R   0.475000 0.061882 0.374642 0.480444
C7    C     C_R   0.470794 0.932158 0.379439 -0.322254
C8    C     C_R   0.487091 0.870837 0.500584 -0.157420
C9    C     C_R   0.491124 0.937509 0.621408 0.127120
C10   C     C_3   0.548213 0.930901 0.731954 -0.489694
C11   C     C_3   0.551203 0.072315 0.727627 -0.454910
C12   C     C_R   0.886075 0.526414 0.498723 -0.119106
C13   C     C_R   0.433060 0.507395 0.073478 0.172754
C14   C     C_R   0.566517 0.497092 0.069861 -0.155593
C15   C     C_R   0.566543 0.497969 0.926243 -0.107105
C16   C     C_R   0.497712 0.739772 0.500285 0.942168
C17   C     C_R   0.433083 0.506088 0.930793 0.132628
C18   C     C_3   0.368964 0.413672 0.927368 0.274716
C19   C     C_3   0.368744 0.415830 0.081506 -0.539040
C20   C     C_R   0.646212 0.501481 0.498839 1.025072
C21   C     C_R   0.849939 0.424089 0.558381 -0.342850
C22   C     C_R   0.770468 0.415557 0.560422 0.468087
C23   C     C_1   0.966152 0.534986 0.508826 0.067884
C24   C     C_R   0.728575 0.508724 0.495976 -0.318437
C25   C     C_R   0.764734 0.610453 0.431138 0.288313
C26   C     C_R   0.844786 0.619031 0.431610 0.474260
C27   C     C_3   0.329973 0.216199 0.854455 0.103554
C28   C     C_3   0.345971 0.089989 0.919731 -0.352167
C29   C     C_3   0.282635 0.995583 0.890979 -0.952496
C30   C     C_3   0.751803 0.295801 0.750657 -0.303289
C31   C     C_3   0.728179 0.714420 0.239599 0.145749
C32   C     C_3   0.657619 0.777026 0.182580 -0.340693
C33   C     C_3   0.664562 0.790493 0.029001 -1.008644
C34   C     C_1   0.033733 0.538508 0.514664 0.029337
C35   C     C_3   0.920196 0.691671 0.256952 -0.367188
C36   C     C_3   0.120263 0.453866 0.839495 0.064410
C37   C     C_3   0.062632 0.397993 0.940373 -0.298776
C38   C     C_3   0.073991 0.449812 0.083360 -1.005613
C39   C     C_3   0.243441 0.694746 0.198988 -0.349363
C40   C     C_3   0.514324 0.097054 0.151527 0.065377
C41   C     C_3   0.593634 0.152840 0.180117 -0.323259
C42   C     C_3   0.644681 0.150503 0.053682 -1.012215
C43   C     C_R   0.150835 0.465572 0.614213 0.518982
C44   C     C_R   0.229662 0.453147 0.605028 -0.408484
C45   C     C_R   0.271317 0.515594 0.503785 -0.193206
C46   C     C_R   0.234927 0.592255 0.408780 0.546822
C47   C     C_R   0.154942 0.602185 0.417460 -0.364561
H1    H     H_    0.883890 0.351376 0.603426 0.189037
H2    H     H_    0.316093 0.457546 0.126072 0.180835
H3    H     H_    0.385821 0.326108 0.128211 0.253264
H4    H     H_    0.258233 0.392854 0.675258 0.164756
H5    H     H_    0.123698 0.659918 0.347977 0.160302
H6    H     H_    0.322852 0.202115 0.743614 0.159639
H7    H     H_    0.274787 0.252056 0.897336 0.117693
H8    H     H_    0.400752 0.052143 0.879676 0.223703
H9    H     H_    0.350660 0.102741 0.031204 0.238915
H10   H     H_    0.227148 0.029933 0.932269 0.266363
H11   H     H_    0.296032 0.905373 0.940036 0.255346
H12   H     H_    0.458353 0.879722 0.288069 0.184352
H13   H     H_    0.277896 0.979400 0.780020 0.270733
H14   H     H_    0.710749 0.228799 0.796205 0.190013
H15   H     H_    0.747641 0.384663 0.809816 0.147691
H16   H     H_    0.809343 0.253968 0.759991 0.167635
H17   H     H_    0.734624 0.620501 0.190686 0.096082
H18   H     H_    0.778083 0.773868 0.212728 0.190076
H19   H     H_    0.606302 0.720295 0.207514 0.254219
H20   H     H_    0.650309 0.870959 0.229593 0.231365
H21   H     H_    0.712910 0.853526 0.002023 0.272513
H22   H     H_    0.611000 0.830314 0.990054 0.266020
H23   H     H_    0.522104 0.894418 0.827250 0.194209
H24   H     H_    0.674251 0.698243 0.979829 0.264230
H25   H     H_    0.889402 0.620721 0.194692 0.131300
H26   H     H_    0.978647 0.658604 0.278141 0.183640
H27   H     H_    0.926361 0.776970 0.194349 0.192925
H28   H     H_    0.111839 0.557202 0.837519 0.134174
H29   H     H_    0.178835 0.433178 0.874715 0.123602
H30   H     H_    0.003788 0.419844 0.907440 0.219457
H31   H     H_    0.069164 0.294716 0.942002 0.227888
H32   H     H_    0.131217 0.423723 0.120710 0.267340
H33   H     H_    0.029921 0.410205 0.153144 0.273369
H34   H     H_    0.602568 0.885677 0.699166 0.224433
H35   H     H_    0.068541 0.553210 0.084214 0.254201
H36   H     H_    0.211605 0.614527 0.154719 0.149042
H37   H     H_    0.287472 0.723079 0.123014 0.186509
H38   H     H_    0.205521 0.776371 0.216669 0.180272
H39   H     H_    0.493113 0.140088 0.057401 0.186316
H40   H     H_    0.518581 0.995209 0.130117 0.117643
H41   H     H_    0.588496 0.251707 0.212371 0.262680
H42   H     H_    0.621211 0.099695 0.262257 0.206420
H43   H     H_    0.621609 0.215191 0.977111 0.265967
H44   H     H_    0.703162 0.181881 0.079831 0.268455
H45   H     H_    0.528563 0.117938 0.821113 0.218754
H46   H     H_    0.647676 0.055090 0.009797 0.285499
H47   H     H_    0.606874 0.109523 0.689811 0.226234
H48   H     H_    0.620196 0.492596 0.121958 0.147405
H49   H     H_    0.620306 0.494968 0.871214 0.145393
H50   H     H_    0.317567 0.454749 0.880343 0.047783
N1    N     N_R   0.499490 0.499140 0.142800 -0.097951
N2    N     N_R   0.499490 0.499180 0.857150 -0.083246
O1    O     O_R   0.500010 0.316790 0.614690 -0.578757
O2    O     O_3   0.732713 0.312081 0.613455 -0.603038
O3    O     O_3   0.720476 0.707068 0.382242 -0.620646
O4    O     O_3   0.880873 0.723891 0.378656 -0.579749
O5    O     O_3   0.108607 0.399904 0.710205 -0.642483
O6    O     O_3   0.280571 0.662229 0.319595 -0.593583
O7    O     O_3   0.460027 0.125250 0.255486 -0.639234
O8    O     O_R   0.500000 0.316760 0.385350 -0.596463
O9    O     O_R   0.389120 0.500020 0.614710 -0.631060
O10   O     O_R   0.389110 0.499990 0.385370 -0.573143
O11   O     O_R   0.500000 0.683240 0.614650 -0.627557
O12   O     O_R   0.499990 0.683210 0.385310 -0.629904
O13   O     O_R   0.610890 0.500010 0.614630 -0.617241
O14   O     O_R   0.610880 0.499980 0.385290 -0.643080
O15   O     O_3   0.393155 0.297214 0.873649 -0.602391
Zn1   Zn    Zn3+2 0.500010 0.500020 0.653130 0.980896
Zn2   Zn    Zn3+2 0.499990 0.499980 0.346870 0.967689

loop_
_geom_bond_atom_site_label_1
_geom_bond_atom_site_label_2
_ccdc_geom_bond_type
C41   H42   S    
C4    O10   A    
C35   H27   S    
C42   H46   S    
C41   C42   S    
C18   O15   S    
C28   H9    S    
C27   H7    S    
C16   O11   A    
C7    C8    A    
C45   C46   A    
C4    O9    A    
C12   C23   S    
C28   C29   S    
C22   O2    S    
C1    C5    S    
O9    Zn1   S    
C40   O7    S    
C36   C37   S    
C39   H37   S    
C18   C19   S    
C35   O4    S    
N2    Zn1   S    
C20   O14   A    
C25   O3    S    
C38   H32   S    
C46   O6    S    
C31   H18   S    
C42   H44   S    
C40   H39   S    
C13   N1    A    
C43   O5    S    
C36   H29   S    
O10   Zn2   S    
C20   O13   A    
C11   H45   S    
C20   C24   S    
C8    C9    A    
O12   Zn2   S    
C18   H50   S    
C9    C10   S    
C33   H22   S    
C21   H1    S    
C2    C34   S    
C8    C16   S    
C21   C22   A    
C38   H35   S    
O1    Zn1   S    
C1    O1    A    
C7    H12   S    
C28   H8    S    
C14   N1    A    
C4    C45   S    
C13   C19   S    
C31   O3    S    
C24   C25   A    
C15   N2    A    
C15   H49   S    
C25   C26   A    
C37   H30   S    
C12   C21   A    
C12   C26   A    
C42   H43   S    
C43   C44   A    
C37   C38   S    
C3    C9    A    
C36   H28   S    
C26   O4    S    
C19   H2    S    
N1    Zn2   S    
C31   C32   S    
C29   H13   S    
C2    C43   A    
C23   C34   T    
C17   C18   S    
C6    O7    S    
C17   N2    A    
C47   H5    S    
C1    O8    A    
C32   H20   S    
C10   H23   S    
C44   H4    S    
C40   C41   S    
C29   H10   S    
C35   H25   S    
C30   H15   S    
C22   C24   A    
C39   H38   S    
C14   H48   S    
C44   C45   A    
C40   H40   S    
C32   H19   S    
C39   O6    S    
C41   H41   S    
C46   C47   A    
C35   H26   S    
C31   H17   S    
C11   H47   S    
C3    C5    A    
C27   H6    S    
C6    C7    A    
C2    C47   A    
C37   H31   S    
C10   H34   S    
C13   C17   A    
C36   O5    S    
C32   C33   S    
O14   Zn2   S    
C39   H36   S    
C19   H3    S    
C5    C6    A    
C38   H33   S    
C30   O2    S    
O8    Zn2   S    
C3    C11   S    
C10   C11   S    
C33   H24   S    
C27   O15   S    
C29   H11   S    
C16   O12   A    
C30   H14   S    
C27   C28   S    
C14   C15   A    
C30   H16   S    
O11   Zn1   S    
O13   Zn1   S    
C33   H21   S    
