data_mof_unit_20621.cif
_audit_creation_date              2012-12-10T17:59:16-0500
_audit_creation_method            fapswitch 2.2
_symmetry_space_group_name_H-M    P1
_symmetry_Int_Tables_number       1
_space_group_crystal_system       triclinic
_cell_length_a                    10.823939
_cell_length_b                    9.589185
_cell_length_c                    10.793461
_cell_angle_alpha                 90.000149
_cell_angle_beta                  92.844377
_cell_angle_gamma                 90.0002
_cell_volume                      1118.90285096

loop_
_atom_site_label
_atom_site_type_symbol
_atom_type_description
_atom_site_fract_x
_atom_site_fract_y
_atom_site_fract_z
_atom_type_partial_charge
C1    C     C_R   0.262306 0.500000 0.499916 0.842015
C2    C     C_3   0.626860 0.499970 0.933096 -0.441115
C3    C     C_R   0.063914 0.373301 0.499534 -0.079393
C4    C     C_R   0.063915 0.626698 0.499526 -0.079399
C5    C     C_R   0.936112 0.373308 0.498870 -0.083191
C6    C     C_R   0.936113 0.626692 0.498862 -0.083183
C7    C     C_R   0.871649 0.500000 0.499033 -0.040342
C8    C     C_R   0.128363 0.500000 0.499800 -0.037355
C9    C     C_R   0.418240 0.074100 0.424056 0.374989
C10   C     C_R   0.418240 0.925898 0.424057 0.374979
C11   C     C_R   0.583466 0.925945 0.574183 0.403256
C12   C     C_R   0.583464 0.074057 0.574185 0.403254
C13   C     C_R   0.495400 0.500000 0.260161 0.904941
C14   C     C_R   0.737697 0.500000 0.499675 0.854071
C15   C     C_R   0.494947 0.500000 0.739856 0.894331
C16   C     C_3   0.421248 0.629033 0.070745 -0.405409
C17   C     C_3   0.421207 0.370995 0.070743 -0.405421
C18   C     C_3   0.426100 0.636726 0.928031 0.631217
C19   C     C_3   0.426051 0.363303 0.928028 0.631204
C20   C     C_3   0.629501 0.499971 0.077064 0.643541
C21   C     C_3   0.493582 0.499999 0.122382 -0.249987
C22   C     C_3   0.491287 0.500001 0.878352 -0.284380
Cu1   Cu    Cu3+1 0.500020 0.640660 0.500000 1.114531
Cu2   Cu    Cu3+1 0.500020 0.359340 0.500000 1.114532
N1    N     N_R   0.500030 0.852070 0.500030 -0.282915
N2    N     N_R   0.500030 0.147930 0.500030 -0.282914
O1    O     O_R   0.319660 0.618740 0.499990 -0.551826
O2    O     O_R   0.319660 0.381260 0.499990 -0.551828
O3    O     O_R   0.499990 0.618790 0.317690 -0.539481
O4    O     O_R   0.499990 0.381210 0.317690 -0.539463
O5    O     O_R   0.680370 0.618830 0.500010 -0.553778
O6    O     O_R   0.680370 0.381170 0.500010 -0.553780
O7    O     O_R   0.500030 0.618780 0.682310 -0.511487
O8    O     O_R   0.500030 0.381220 0.682310 -0.511493
H1    H     H_    0.458995 0.726135 0.114255 0.279364
H2    H     H_    0.458926 0.273879 0.114249 0.279373
Cl1   Cl    Cl    0.695310 0.838724 0.669755 -0.431434
Cl2   Cl    Cl    0.695295 0.161282 0.669772 -0.431449
H3    H     H_    0.323733 0.623308 0.098694 0.232860
H4    H     H_    0.323695 0.376756 0.098697 0.232845
Cl3   Cl    Cl    0.273076 0.662284 0.859679 -0.454302
Cl4   Cl    Cl    0.273014 0.337819 0.859679 -0.454342
Cl5   Cl    Cl    0.506589 0.795484 0.893564 -0.377347
Cl6   Cl    Cl    0.506480 0.204507 0.893550 -0.377363
Cl7   Cl    Cl    0.714392 0.649665 0.134738 -0.472823
Cl8   Cl    Cl    0.714343 0.350244 0.134738 -0.472795
H5    H     H_    0.677973 0.591155 0.897986 0.257581
H6    H     H_    0.677939 0.408761 0.897987 0.257603
H7    H     H_    0.111886 0.274182 0.499853 0.205896
H8    H     H_    0.111886 0.725818 0.499840 0.205899
H9    H     H_    0.888185 0.274186 0.498236 0.203009
H10   H     H_    0.888185 0.725814 0.498221 0.203010
Cl9   Cl    Cl    0.312329 0.161816 0.322296 -0.502150
Cl10  Cl    Cl    0.312330 0.838181 0.322295 -0.502156

loop_
_geom_bond_atom_site_label_1
_geom_bond_atom_site_label_2
_ccdc_geom_bond_type
C2    C22   S    
C1    O2    A    
C11   C12   A    
Cu2   O6    S    
C6    C7    A    
C17   H2    S    
Cu1   O1    S    
C2    H5    S    
C7    C14   S    
C1    C8    S    
C9    C10   A    
C15   O8    A    
C20   Cl7   S    
C19   Cl4   S    
C4    C8    A    
C14   O5    A    
Cu1   Cu2   S    
C6    H10   S    
C17   C21   S    
C3    H7    S    
C13   C21   S    
C18   Cl5   S    
C19   Cl6   S    
C16   C21   S    
Cu1   O3    S    
C10   N1    A    
C16   C18   S    
C17   C19   S    
Cu2   N2    S    
C9    N2    A    
C5    C7    A    
Cu1   N1    S    
C16   H1    S    
C12   Cl2   S    
C10   Cl10  S    
Cu2   O4    S    
C4    C6    A    
C9    Cl9   S    
C11   N1    A    
C16   H3    S    
C2    C20   S    
Cu1   O5    S    
C3    C5    A    
C13   O4    A    
C19   C22   S    
C14   O6    A    
C20   C21   S    
C11   Cl1   S    
C3    C8    A    
C18   Cl3   S    
C12   N2    A    
C1    O1    A    
C5    H9    S    
C2    H6    S    
C18   C22   S    
C15   O7    A    
C15   C22   S    
C20   Cl8   S    
Cu2   O2    S    
C13   O3    A    
C4    H8    S    
Cu1   O7    S    
C17   H4    S    
Cu2   O8    S    
