data_mof_unit_64144.cif
_audit_creation_date              2012-12-10T16:48:37-0500
_audit_creation_method            fapswitch 2.2
_symmetry_space_group_name_H-M    P1
_symmetry_Int_Tables_number       1
_space_group_crystal_system       triclinic
_cell_length_a                    18.420309
_cell_length_b                    18.423691
_cell_length_c                    18.441046
_cell_angle_alpha                 119.84726
_cell_angle_beta                  119.60246
_cell_angle_gamma                 90.496069
_cell_volume                      4442.79332558

loop_
_atom_site_label
_atom_site_type_symbol
_atom_type_description
_atom_site_fract_x
_atom_site_fract_y
_atom_site_fract_z
_atom_type_partial_charge
C1    C     C_R   0.138407 0.361383 0.000268 0.512352
C2    C     C_2   0.809171 0.696903 0.004716 -0.090134
C3    C     C_2   0.703404 0.277283 0.445568 0.100844
C4    C     C_R   0.861847 0.638821 0.000467 0.510882
C5    C     C_2   0.705235 0.195358 0.387726 0.147182
C6    C     C_2   0.770732 0.336190 0.556771 -0.135652
C7    C     C_2   0.796239 0.304420 0.613415 -0.098382
C8    C     C_2   0.337328 0.281290 0.060351 -0.157523
C9    C     C_2   0.304727 0.192368 0.995610 -0.091587
C10   C     C_2   0.281047 0.337393 0.057671 -0.156292
C11   C     C_2   0.192244 0.304469 0.001432 -0.091475
C12   C     C_3   0.714838 0.244572 0.900009 -0.306805
C13   C     C_2   0.217344 0.775200 0.936944 -0.155771
C14   C     C_2   0.304940 0.811853 0.007254 -0.085837
C15   C     C_2   0.161661 0.724028 0.941457 -0.155382
C16   C     C_R   0.138497 0.638737 0.276974 0.515036
C17   C     C_2   0.195520 0.688026 0.993078 -0.086514
C18   C     C_2   0.219018 0.778283 0.556334 -0.154530
C19   C     C_2   0.307850 0.803294 0.612265 -0.092013
C20   C     C_2   0.162748 0.719622 0.443954 -0.152297
C21   C     C_2   0.195342 0.696538 0.387694 -0.090620
C22   C     C_R   0.639303 0.138771 0.277076 0.544526
C23   C     C_3   0.805764 0.301624 0.005644 0.084964
C24   C     C_R   0.361672 0.861160 0.723013 0.507733
C25   C     C_R   0.638309 0.861269 0.999780 0.534300
C26   C     C_R   0.361517 0.138437 0.999653 0.507741
C27   C     C_R   0.359471 0.860411 0.000891 0.514460
C28   C     C_R   0.860185 0.361340 0.723207 0.506915
C29   C     C_R   0.641942 0.141389 0.000700 0.557690
C30   C     C_R   0.140503 0.639522 0.999019 0.518996
C31   C     C_R   0.859598 0.358792 0.001095 0.514572
C32   C     C_3   0.851070 0.235778 0.026169 0.005302
C33   C     C_3   0.789783 0.174283 0.025015 0.190512
C34   C     C_3   0.703594 0.199241 0.005023 0.013150
C35   C     C_3   0.786167 0.359263 0.086993 -0.004457
C36   C     C_3   0.729469 0.298819 0.088847 -0.208202
C37   C     C_3   0.654461 0.186558 0.900564 -0.316074
C38   C     C_2   0.724765 0.780698 0.943495 -0.142297
C39   C     C_2   0.691127 0.803367 0.998656 -0.084515
C40   C     C_2   0.778305 0.721849 0.940931 -0.152290
H1    H     H_    0.593437 0.204698 0.884687 0.128711
H2    H     H_    0.766838 0.234773 0.578930 0.154929
H3    H     H_    0.408361 0.315200 0.117242 0.158726
H4    H     H_    0.234796 0.156221 0.936052 0.109400
H5    H     H_    0.314768 0.408642 0.105134 0.157818
H6    H     H_    0.156219 0.234320 0.955540 0.108620
H7    H     H_    0.185047 0.783636 0.875262 0.161265
H8    H     H_    0.338403 0.809045 0.072891 0.107236
H9    H     H_    0.091365 0.715084 0.900182 0.161689
H10   H     H_    0.264169 0.691284 0.029865 0.106004
H11   H     H_    0.185244 0.800562 0.593816 0.158305
H12   H     H_    0.745964 0.397325 0.062041 0.142144
H13   H     H_    0.767988 0.105360 0.957968 0.103308
H14   H     H_    0.343963 0.780674 0.578186 0.106918
H15   H     H_    0.091685 0.695734 0.406773 0.161394
H16   H     H_    0.265325 0.720697 0.421521 0.106815
H17   H     H_    0.764266 0.310683 0.164966 0.202053
H18   H     H_    0.681295 0.288263 0.880299 0.119935
H19   H     H_    0.724491 0.200935 0.839137 0.138587
H20   H     H_    0.633066 0.115572 0.837791 0.135285
H21   H     H_    0.977594 0.327215 0.120814 0.222158
H22   H     H_    0.974529 0.236311 0.117826 0.269671
H23   H     H_    0.668469 0.316473 0.075306 0.105918
H24   H     H_    0.647625 0.374627 0.454278 0.222187
H25   H     H_    0.575493 0.271082 0.374615 0.221256
H26   H     H_    0.766970 0.101334 0.377213 0.253605
H27   H     H_    0.834799 0.206595 0.455591 0.235687
H28   H     H_    0.927997 0.256495 0.298036 0.370856
H29   H     H_    0.898590 0.394493 0.225535 0.306933
H30   H     H_    0.848667 0.470879 0.233686 0.217177
H31   H     H_    0.711929 0.804990 0.896849 0.162959
H32   H     H_    0.700260 0.778707 0.043832 0.103710
H33   H     H_    0.793436 0.699400 0.884825 0.157016
H34   H     H_    0.797921 0.719829 0.063616 0.109188
H35   H     H_    0.795200 0.407022 0.592519 0.150120
H36   H     H_    0.856351 0.191879 0.961359 0.099167
N1    N     N_3   0.941644 0.282529 0.120201 -0.541022
N2    N     N_3   0.635703 0.308938 0.399419 -0.595230
N3    N     N_3   0.776779 0.166043 0.432045 -0.657354
N4    N     N_3   0.867051 0.424708 0.189290 -0.582885
O1    O     O_3   0.000000 0.500000 0.000000 -0.446407
O2    O     O_R   0.324760 0.053850 0.939900 -0.542635
O3    O     O_R   0.443270 0.883090 0.060070 -0.544536
O4    O     O_R   0.053940 0.324750 0.939940 -0.540245
O5    O     O_R   0.616890 0.176890 0.060090 -0.535613
O6    O     O_R   0.323100 0.883090 0.939900 -0.544246
O7    O     O_R   0.616910 0.056740 0.939940 -0.528621
O8    O     O_R   0.615250 0.885990 0.939940 -0.524327
O9    O     O_R   0.446110 0.175200 0.060060 -0.544976
O10   O     O_R   0.614030 0.053850 0.229160 -0.548474
O11   O     O_R   0.324790 0.884790 0.770830 -0.542292
O12   O     O_R   0.053880 0.613970 0.229150 -0.533119
O13   O     O_R   0.884790 0.613970 0.060060 -0.543005
O14   O     O_R   0.175250 0.615170 0.229170 -0.541297
O15   O     O_R   0.886020 0.446110 0.770840 -0.542594
O16   O     O_R   0.176940 0.616860 0.060100 -0.541894
O17   O     O_R   0.883150 0.323060 0.939910 -0.564494
O18   O     O_R   0.056770 0.616860 0.939930 -0.542161
O19   O     O_R   0.883130 0.443210 0.060060 -0.510179
O20   O     O_2   0.782050 0.110341 0.128425 -0.283654
O21   O     O_2   0.914285 0.123251 0.129713 -0.288054
O22   O     O_3   0.897255 0.267582 0.244718 -0.540388
O23   O     O_R   0.884840 0.324750 0.770840 -0.537137
O24   O     O_R   0.175280 0.446110 0.060100 -0.540264
O25   O     O_R   0.885990 0.615170 0.939900 -0.541779
O26   O     O_3   0.500040 0.999960 0.000000 -0.451172
O27   O     O_R   0.615200 0.175200 0.229160 -0.503150
O28   O     O_R   0.446160 0.885990 0.770850 -0.549840
O29   O     O_R   0.614060 0.884790 0.060100 -0.538428
S1    S     S_3+6 0.846215 0.166544 0.133300 0.000246
Zn1   Zn    Zn3+2 0.956210 0.542060 0.085830 0.948768
Zn2   Zn    Zn3+2 0.129620 0.543770 0.085850 0.942668
Zn3   Zn    Zn3+2 0.957930 0.543770 0.914160 0.935797
Zn4   Zn    Zn3+2 0.956240 0.370390 0.914160 0.932984
Zn5   Zn    Zn3+2 0.543830 0.957900 0.914170 0.971503
Zn6   Zn    Zn3+2 0.542120 0.956180 0.085840 0.958688
Zn7   Zn    Zn3+2 0.370430 0.956180 0.914150 0.931779
Zn8   Zn    Zn3+2 0.543800 0.129560 0.085840 0.973780

loop_
_geom_bond_atom_site_label_1
_geom_bond_atom_site_label_2
_ccdc_geom_bond_type
O20   S1    D    
C16   C21   S    
C16   O14   A    
C34   C37   S    
H22   N1    S    
C35   C36   S    
C1    C11   S    
C8    H3    S    
C3    C6    S    
C6    H35   S    
C26   O9    A    
H26   N3    S    
O16   Zn2   S    
C12   C23   S    
C28   O15   A    
O28   Zn5   S    
O25   Zn3   S    
H28   O22   S    
C38   C39   D    
C22   O27   A    
C35   N4    S    
C40   H33   S    
C18   C20   S    
C18   C19   D    
C7    H2    S    
C12   C37   S    
C30   O16   A    
O29   Zn6   S    
C32   N1    S    
C12   H19   S    
C5    C22   S    
O1    Zn1   S    
H21   N1    S    
C8    C9    D    
O1    Zn4   S    
C9    C26   S    
C39   H32   S    
O11   Zn7   S    
C24   O28   A    
C31   O19   A    
C14   C27   S    
C5    N3    S    
C36   H23   S    
O27   Zn8   S    
C29   O5    A    
C2    H34   S    
C25   O29   A    
C12   H18   S    
C15   H9    S    
C26   O2    A    
C13   C14   D    
O26   Zn8   S    
C17   C30   S    
C20   H15   S    
C18   H11   S    
C33   H13   S    
H30   N4    S    
O23   Zn4   S    
H27   N3    S    
C36   H17   S    
C13   H7    S    
O18   Zn3   S    
C14   H8    S    
O21   S1    D    
C29   C34   S    
C25   O8    A    
C7    C28   S    
O26   Zn6   S    
C1    O4    A    
C23   C31   S    
C27   O6    A    
C2    C4    S    
O1    Zn2   S    
O19   Zn1   S    
C10   H5    S    
C33   C34   S    
C22   O10   A    
O9    Zn8   S    
C1    O24   A    
O13   Zn1   S    
C19   H14   S    
C16   O12   A    
O10   Zn6   S    
C13   C15   S    
O26   Zn7   S    
O22   S1    S    
C24   O11   A    
O24   Zn2   S    
C15   C17   D    
C38   H31   S    
C9    H4    S    
O4    Zn4   S    
H25   N2    S    
H24   N2    S    
O3    Zn6   S    
C3    C5    D    
C17   H10   S    
C32   H36   S    
C21   H16   S    
O12   Zn1   S    
C6    C7    D    
C4    O25   A    
C30   O18   A    
C23   C35   S    
O26   Zn5   S    
C32   C33   S    
O8    Zn5   S    
C27   O3    A    
C19   C24   S    
C23   C32   S    
C38   C40   S    
C28   O23   A    
H29   N4    S    
O15   Zn3   S    
O14   Zn2   S    
O7    Zn5   S    
O6    Zn7   S    
C34   C36   S    
C31   O17   A    
C37   H1    S    
O5    Zn8   S    
C29   O7    A    
C37   H20   S    
C10   C11   D    
C4    O13   A    
C2    C40   D    
C20   C21   D    
C8    C10   S    
O1    Zn3   S    
C35   H12   S    
C11   H6    S    
C33   S1    S    
O2    Zn7   S    
O17   Zn4   S    
C3    N2    S    
C25   C39   S    
