data_mof_unit_27893.cif
_audit_creation_date              2012-12-10T17:03:25-0500
_audit_creation_method            fapswitch 2.2
_symmetry_space_group_name_H-M    P1
_symmetry_Int_Tables_number       1
_space_group_crystal_system       triclinic
_cell_length_a                    15.043805
_cell_length_b                    11.032173
_cell_length_c                    9.828056
_cell_angle_alpha                 111.051389
_cell_angle_beta                  98.174588
_cell_angle_gamma                 91.012951
_cell_volume                      1502.61226151

loop_
_atom_site_label
_atom_site_type_symbol
_atom_type_description
_atom_site_fract_x
_atom_site_fract_y
_atom_site_fract_z
_atom_type_partial_charge
C1    C     C_R   0.493631 0.254157 0.440710 0.873551
C2    C     C_R   0.507073 0.745852 0.559286 0.904625
C3    C     C_R   0.056137 0.317439 0.588326 0.009968
C4    C     C_R   0.939954 0.653352 0.372617 0.015472
C5    C     C_2   0.490518 0.114873 0.407312 -0.329912
C6    C     C_2   0.511240 0.885174 0.592696 -0.295857
C7    C     C_2   0.503330 0.069609 0.516613 -0.118762
C8    C     C_2   0.499782 0.930482 0.483365 -0.118558
C9    C     C_2   0.507672 0.510371 0.081280 -0.051244
C10   C     C_2   0.492381 0.489558 0.918706 -0.048617
C11   C     C_R   0.329230 0.503692 0.502065 0.873434
C12   C     C_R   0.670525 0.493664 0.497283 0.834912
C13   C     C_R   0.807141 0.570478 0.439572 -0.228387
C14   C     C_R   0.192107 0.424383 0.557348 -0.242762
C15   C     C_R   0.766358 0.485892 0.492346 -0.111251
C16   C     C_R   0.232924 0.508897 0.504559 -0.107729
C17   C     C_R   0.815967 0.394261 0.534481 -0.025407
C18   C     C_R   0.181480 0.587581 0.442941 -0.046610
C19   C     C_R   0.909826 0.396840 0.533606 0.043463
C20   C     C_R   0.086981 0.579748 0.435682 0.039038
C21   C     C_R   0.951259 0.484871 0.481846 0.034450
C22   C     C_R   0.045501 0.490536 0.485870 0.040625
C23   C     C_R   0.898689 0.568791 0.428568 0.096402
C24   C     C_R   0.098385 0.409207 0.543176 0.097616
C25   C     C_R   0.963343 0.314870 0.586213 -0.291332
C26   C     C_R   0.033174 0.660199 0.380891 -0.290264
Cu1   Cu    Cu3+1 0.515770 0.521810 0.644910 1.003874
Cu2   Cu    Cu3+1 0.484230 0.478190 0.355090 0.973490
H1    H     H_    0.766257 0.640397 0.411735 0.185494
H2    H     H_    0.235166 0.369330 0.607321 0.191588
H3    H     H_    0.933374 0.247134 0.626639 0.134047
H4    H     H_    0.062907 0.729289 0.342263 0.135885
H5    H     H_    0.487328 0.864747 0.368393 0.181099
H6    H     H_    0.516259 0.135355 0.631565 0.191250
H7    H     H_    0.523580 0.951193 0.707472 0.146631
H8    H     H_    0.477645 0.048830 0.292561 0.151586
H9    H     H_    0.439933 0.417381 0.845754 0.156273
H10   H     H_    0.560151 0.582506 0.154220 0.171599
H11   H     H_    0.588899 0.622412 0.934393 0.214862
H12   H     H_    0.411093 0.377605 0.065612 0.197947
N1    N     N_2   0.460520 0.445420 0.137370 -0.289246
N2    N     N_2   0.539480 0.554580 0.862630 -0.270369
O1    O     O_R   0.508410 0.332340 0.577400 -0.559034
O2    O     O_R   0.491590 0.667660 0.422600 -0.572076
O3    O     O_R   0.481780 0.295500 0.332650 -0.581821
O4    O     O_R   0.518220 0.704500 0.667350 -0.582830
O5    O     O_R   0.383570 0.518390 0.622380 -0.588774
O6    O     O_R   0.616430 0.481610 0.377620 -0.589531
O7    O     O_R   0.356940 0.481550 0.377630 -0.569468
O8    O     O_R   0.643060 0.518450 0.622370 -0.520677
C27   C     C_2   0.769934 0.290527 0.568993 0.324873
H13   H     H_    0.785139 0.189939 0.517746 0.065333
O9    O     O_2   0.717692 0.316233 0.657950 -0.506590
C28   C     C_2   0.226712 0.679017 0.389221 0.385538
H14   H     H_    0.199547 0.687284 0.284882 0.065928
O10   O     O_2   0.294133 0.747245 0.462499 -0.538515
C29   C     C_2   0.104422 0.219824 0.636544 0.329693
H15   H     H_    0.080756 0.189767 0.719746 0.079649
O11   O     O_2   0.166435 0.165462 0.577536 -0.541157
C30   C     C_2   0.889722 0.735848 0.302046 0.337598
H16   H     H_    0.920782 0.829031 0.312535 0.078108
O12   O     O_2   0.816554 0.697644 0.223831 -0.549121

loop_
_geom_bond_atom_site_label_1
_geom_bond_atom_site_label_2
_ccdc_geom_bond_type
C25   H3    S    
C12   O8    A    
Cu1   O8    S    
C26   H4    S    
C11   O7    A    
C17   C27   S    
C10   N2    D    
C1    O1    A    
Cu2   O7    S    
C11   O5    A    
C12   C15   S    
C12   O6    A    
C4    C30   S    
C22   C24   A    
C13   C15   A    
C3    C24   A    
C7    C8    S    
C21   C22   A    
C2    O4    A    
Cu1   N2    S    
C1    O3    A    
C29   H15   S    
C2    C6    S    
C20   C26   A    
C14   H2    S    
C10   H9    S    
C1    C5    S    
C3    C29   S    
Cu1   O4    S    
C16   C18   A    
C9    H10   S    
C17   C19   A    
C20   C22   A    
C4    C23   A    
H11   N2    S    
C28   O10   D    
C8    H5    S    
C21   C23   A    
C19   C25   A    
C7    H6    S    
C14   C16   A    
C4    C26   A    
C29   O11   D    
C11   C16   S    
C18   C28   S    
Cu1   O5    S    
C27   H13   S    
C5    H8    S    
Cu1   O1    S    
Cu2   N1    S    
C3    C25   A    
C6    H7    S    
C13   C23   A    
C18   C20   A    
C30   O12   D    
C9    C10   S    
C14   C24   A    
Cu1   Cu2   S    
C5    C7    D    
Cu2   O3    S    
C28   H14   S    
H12   N1    S    
C6    C8    D    
C19   C21   A    
C15   C17   A    
C9    N1    D    
Cu2   O2    S    
Cu2   O6    S    
C13   H1    S    
C2    O2    A    
C30   H16   S    
C27   O9    D    
