data_mof_unit_25817.cif
_audit_creation_date              2012-12-10T20:48:46-0500
_audit_creation_method            fapswitch 2.2
_symmetry_space_group_name_H-M    P1
_symmetry_Int_Tables_number       1
_space_group_crystal_system       triclinic
_cell_length_a                    15.758792
_cell_length_b                    8.951059
_cell_length_c                    8.133677
_cell_angle_alpha                 89.826348
_cell_angle_beta                  89.075521
_cell_angle_gamma                 90.125481
_cell_volume                      1147.16171857

loop_
_atom_site_label
_atom_site_type_symbol
_atom_type_description
_atom_site_fract_x
_atom_site_fract_y
_atom_site_fract_z
_atom_type_partial_charge
C1    C     C_R   0.499948 0.218051 0.500159 0.933156
C2    C     C_3   0.053287 0.437283 0.323352 0.366570
C3    C     C_3   0.949458 0.390331 0.639354 0.291156
C4    C     C_3   0.954067 0.439798 0.318551 0.288916
C5    C     C_1   0.750863 0.497567 0.494688 -0.183303
C6    C     C_1   0.249197 0.495004 0.504202 -0.210873
C7    C     C_3   0.082785 0.485139 0.497928 0.103240
C8    C     C_3   0.917323 0.487987 0.490834 0.067766
C9    C     C_3   0.951292 0.648677 0.519843 -0.608671
C10   C     C_3   0.048844 0.644799 0.533309 -0.629723
C11   C     C_3   0.886662 0.155530 0.562550 0.259250
C12   C     C_1   0.826030 0.493664 0.491314 -0.001211
C13   C     C_3   0.854851 0.009970 0.638280 -0.960393
C14   C     C_3   0.920384 0.279579 0.100756 0.183489
C15   C     C_3   0.921702 0.112378 0.068863 -0.810844
C16   C     C_3   0.112963 0.159985 0.730751 0.126889
C17   C     C_3   0.130565 0.997580 0.690524 -0.847671
C18   C     C_3   0.150575 0.298064 0.164963 0.119679
C19   C     C_3   0.188473 0.142957 0.145274 -0.820094
C20   C     C_1   0.174057 0.490022 0.503276 -0.027080
C21   C     C_R   0.337900 0.499663 0.501326 0.898912
C22   C     C_R   0.662115 0.500369 0.498602 0.896717
C23   C     C_1   0.499958 0.934819 0.499777 -0.194004
C24   C     C_1   0.499941 0.065166 0.500226 -0.193653
C25   C     C_R   0.499995 0.781927 0.499843 0.929681
C26   C     C_3   0.047630 0.375791 0.632654 0.340956
H1    H     H_    0.067033 0.678735 0.659460 0.210978
H2    H     H_    0.834128 0.197980 0.486580 0.186415
H3    H     H_    0.801381 0.031849 0.725509 0.277847
H4    H     H_    0.832364 0.934439 0.539959 0.221895
H5    H     H_    0.906979 0.953691 0.704025 0.250675
H6    H     H_    0.976310 0.331242 0.037556 0.117804
H7    H     H_    0.861708 0.328267 0.049007 0.158981
H8    H     H_    0.861775 0.060374 0.114737 0.237413
H9    H     H_    0.928984 0.090818 0.936125 0.253394
H10   H     H_    0.976021 0.060293 0.132595 0.259783
H11   H     H_    0.071352 0.163332 0.842317 0.146473
H12   H     H_    0.077431 0.726891 0.445281 0.226835
H13   H     H_    0.174275 0.217147 0.755102 0.140049
H14   H     H_    0.172608 0.989548 0.579992 0.262952
H15   H     H_    0.161704 0.942232 0.795897 0.204779
H16   H     H_    0.069623 0.940400 0.666063 0.257054
H17   H     H_    0.202130 0.375341 0.201614 0.149248
H18   H     H_    0.125810 0.335741 0.044756 0.088624
H19   H     H_    0.138810 0.062482 0.107489 0.241151
H20   H     H_    0.239729 0.145380 0.050003 0.203575
H21   H     H_    0.215491 0.105293 0.263654 0.263432
H22   H     H_    0.923381 0.696187 0.634739 0.215697
H23   H     H_    0.933036 0.724671 0.417728 0.216775
H24   H     H_    0.076023 0.523945 0.233180 -0.031982
H25   H     H_    0.072440 0.415529 0.753476 -0.032737
H26   H     H_    0.934329 0.527210 0.228228 0.022186
H27   H     H_    0.937593 0.462729 0.748613 0.070278
H28   H     H_    0.943726 0.128040 0.487358 0.251907
N1    N     N_1   0.500000 0.500030 0.073640 -0.035107
N2    N     N_1   0.500000 0.500030 0.926360 -0.035132
O1    O     O_R   0.500000 0.285340 0.636850 -0.615159
O2    O     O_3   0.920338 0.300207 0.272386 -0.641159
O3    O     O_3   0.072523 0.227154 0.596187 -0.550111
O4    O     O_3   0.084426 0.292217 0.284306 -0.530889
O5    O     O_R   0.500000 0.285340 0.363150 -0.614593
O6    O     O_R   0.377140 0.500000 0.636930 -0.618756
O7    O     O_R   0.377140 0.500000 0.363070 -0.621125
O8    O     O_R   0.622860 0.500000 0.636930 -0.610390
O9    O     O_R   0.622860 0.500000 0.363070 -0.615188
O10   O     O_R   0.500000 0.714650 0.636900 -0.615168
O11   O     O_R   0.500000 0.714650 0.363100 -0.615462
O12   O     O_3   0.904635 0.258052 0.688506 -0.646188
Zn1   Zn    Zn3+2 0.500000 0.499990 0.682780 0.988029
Zn2   Zn    Zn3+2 0.500000 0.499990 0.317220 0.986062

loop_
_geom_bond_atom_site_label_1
_geom_bond_atom_site_label_2
_ccdc_geom_bond_type
O5    Zn2   S    
C10   H1    S    
C7    C10   S    
C2    C4    S    
N1    N2    T    
C19   H19   S    
C22   O9    A    
C10   H12   S    
C18   H18   S    
C11   C13   S    
C9    C10   S    
C15   H10   S    
C15   H8    S    
C3    O12   S    
C25   O11   A    
O7    Zn2   S    
C8    C12   S    
C16   H11   S    
C4    C8    S    
O11   Zn2   S    
C14   H7    S    
C2    H24   S    
C8    C9    S    
C19   H20   S    
C5    C22   S    
C26   H25   S    
C18   O4    S    
C3    H27   S    
C7    C20   S    
C21   O6    A    
C11   H28   S    
C7    C26   S    
C6    C20   T    
C4    H26   S    
C11   H2    S    
C15   H9    S    
C17   H14   S    
C3    C8    S    
C19   H21   S    
C23   C25   S    
C9    H22   S    
C14   O2    S    
C2    O4    S    
C21   O7    A    
N1    Zn2   S    
C5    C12   T    
C13   H3    S    
C23   C24   T    
C22   O8    A    
O9    Zn2   S    
O10   Zn1   S    
C13   H4    S    
C17   H16   S    
C9    H23   S    
C11   O12   S    
C1    C24   S    
N2    Zn1   S    
C26   O3    S    
C4    O2    S    
C14   C15   S    
C18   C19   S    
O8    Zn1   S    
C16   H13   S    
C17   H15   S    
O1    Zn1   S    
C18   H17   S    
C6    C21   S    
C13   H5    S    
C3    C26   S    
C25   O10   A    
C2    C7    S    
O6    Zn1   S    
C14   H6    S    
C16   C17   S    
C1    O5    A    
C16   O3    S    
C1    O1    A    
