data_mof_unit_50062.cif
_audit_creation_date              2012-12-10T18:44:17-0500
_audit_creation_method            fapswitch 2.2
_symmetry_space_group_name_H-M    P1
_symmetry_Int_Tables_number       1
_space_group_crystal_system       triclinic
_cell_length_a                    18.123533
_cell_length_b                    18.129484
_cell_length_c                    22.126205
_cell_angle_alpha                 114.195817
_cell_angle_beta                  114.141157
_cell_angle_gamma                 90.031013
_cell_volume                      5926.58350015

loop_
_atom_site_label
_atom_site_type_symbol
_atom_type_description
_atom_site_fract_x
_atom_site_fract_y
_atom_site_fract_z
_atom_type_partial_charge
C1    C     C_R   0.349704 0.349685 0.699362 0.501316
C2    C     C_1   0.889193 0.889223 0.778447 0.013463
C3    C     C_3   0.080844 0.997937 0.024449 0.291078
C4    C     C_3   0.919138 0.002029 0.975551 0.291149
C5    C     C_3   0.037042 0.037027 0.074080 -0.014775
C6    C     C_3   0.962940 0.962940 0.925920 -0.014762
C7    C     C_1   0.077540 0.077464 0.154979 -0.019565
C8    C     C_1   0.922450 0.922512 0.845021 -0.019561
C9    C     C_3   0.076505 0.543948 0.550704 0.211833
C10   C     C_3   0.923494 0.456052 0.449290 0.211814
C11   C     C_3   0.003130 0.537609 0.567758 0.198439
C12   C     C_R   0.650298 0.650316 0.300638 0.500672
C13   C     C_3   0.996869 0.462391 0.432235 0.198826
C14   C     C_3   0.947995 0.550849 0.499445 0.002207
C15   C     C_3   0.052004 0.449151 0.500549 0.002083
C16   C     C_R   0.150343 0.150353 0.300696 0.504080
C17   C     C_R   0.849656 0.849645 0.699304 0.504127
C18   C     C_3   0.022101 0.556290 0.482322 0.198723
C19   C     C_3   0.977897 0.443710 0.517672 0.198694
C20   C     C_3   0.556333 0.565661 0.024540 0.148157
C21   C     C_3   0.444360 0.434638 0.975515 0.168988
C22   C     C_3   0.558587 0.476287 0.975328 -0.132259
C23   C     C_3   0.509099 0.578053 0.552763 -0.154948
C24   C     C_3   0.442072 0.523931 0.024662 -0.105341
C25   C     C_1   0.389625 0.389312 0.778569 0.002737
C26   C     C_1   0.610501 0.610702 0.221432 0.001340
C27   C     C_3   0.463609 0.552219 0.975519 0.168110
C28   C     C_3   0.537044 0.448037 0.024469 0.163286
C29   C     C_3   0.464166 0.462997 0.926133 0.009840
C30   C     C_3   0.536366 0.537180 0.073861 0.006856
C31   C     C_1   0.423279 0.422584 0.845183 -0.051589
C32   C     C_1   0.577003 0.577482 0.154818 -0.055807
C33   C     C_3   0.055454 0.959841 0.481105 0.198350
C34   C     C_3   0.490903 0.421947 0.447240 -0.154799
C35   C     C_3   0.944545 0.040154 0.518889 0.198326
C36   C     C_3   0.961409 0.936101 0.431877 0.199898
C37   C     C_3   0.038590 0.063894 0.568118 0.199816
C38   C     C_3   0.949055 0.948545 0.500484 0.002063
C39   C     C_3   0.050944 0.051451 0.499511 0.002009
C40   C     C_R   0.391599 0.108522 0.500075 0.511229
C41   C     C_R   0.608401 0.891478 0.499925 0.511356
C42   C     C_3   0.043990 0.973082 0.549777 0.212981
C43   C     C_3   0.956009 0.026912 0.450218 0.213052
C44   C     C_3   0.476529 0.011315 0.554158 -0.117408
C45   C     C_3   0.034319 0.039938 0.975699 0.118639
C46   C     C_3   0.523471 0.988686 0.445843 -0.117380
C47   C     C_3   0.565615 0.031597 0.565726 0.122987
C48   C     C_3   0.434385 0.968403 0.434275 0.122990
C49   C     C_3   0.551561 0.948495 0.499702 0.027158
C50   C     C_3   0.448439 0.051506 0.500299 0.027207
C51   C     C_3   0.462455 0.928512 0.486887 0.142074
C52   C     C_3   0.537545 0.071488 0.513113 0.142088
C53   C     C_R   0.108529 0.391687 0.500152 0.578373
C54   C     C_R   0.891470 0.608313 0.499846 0.577973
C55   C     C_R   0.108360 0.108417 0.499908 0.577821
C56   C     C_3   0.965663 0.960029 0.024301 0.118661
C57   C     C_R   0.891639 0.891581 0.500091 0.577616
C58   C     C_R   0.391654 0.391479 0.499972 0.538109
C59   C     C_R   0.608347 0.608521 0.500028 0.538210
C60   C     C_3   0.427369 0.522841 0.484646 0.279207
C61   C     C_3   0.572633 0.477160 0.515357 0.279319
C62   C     C_3   0.469461 0.497869 0.433636 0.097447
C63   C     C_3   0.530540 0.502131 0.566367 0.097602
C64   C     C_3   0.551237 0.552003 0.500398 0.025802
C65   C     C_3   0.448764 0.447998 0.499604 0.025734
C66   C     C_3   0.361237 0.441780 0.306255 -0.300381
C67   C     C_3   0.990384 0.078465 0.024349 0.123121
C68   C     C_3   0.638763 0.558219 0.693748 -0.301253
C69   C     C_3   0.635860 0.649294 0.000102 -0.317837
C70   C     C_3   0.370181 0.348868 0.002013 -0.309492
C71   C     C_3   0.575210 0.313205 0.997989 -0.307320
C72   C     C_3   0.426017 0.687462 0.001350 -0.300806
C73   C     C_3   0.933597 0.874250 0.308366 -0.106581
C74   C     C_3   0.066395 0.125740 0.691627 -0.105895
C75   C     C_3   0.101874 0.838532 0.440894 -0.109742
C76   C     C_3   0.898124 0.161462 0.559100 -0.109524
C77   C     C_3   0.170755 0.966944 0.632040 -0.102931
C78   C     C_3   0.009598 0.921501 0.975651 0.123015
C79   C     C_3   0.829243 0.033051 0.367955 -0.102937
C80   C     C_3   0.636649 0.137570 0.694424 -0.313325
C81   C     C_3   0.363350 0.862430 0.305577 -0.313017
C82   C     C_3   0.341096 0.843746 0.465571 -0.291783
C83   C     C_3   0.658905 0.156254 0.534430 -0.291732
C84   C     C_3   0.348751 0.619243 0.469047 -0.118322
C85   C     C_3   0.651250 0.380758 0.530956 -0.118191
C86   C     C_3   0.942777 0.193693 0.998470 -0.299485
C87   C     C_3   0.057203 0.806273 0.001529 -0.298984
C88   C     C_3   0.140966 0.146364 0.000430 -0.299059
C89   C     C_1   0.110803 0.110763 0.221553 0.013462
C90   C     C_3   0.859018 0.853603 0.999575 -0.299482
C91   C     C_3   0.810498 0.047519 0.000196 -0.117071
C92   C     C_3   0.189483 0.952446 0.999803 -0.116645
C93   C     C_3   0.062861 0.563769 0.690814 -0.103919
C94   C     C_3   0.937131 0.436235 0.309180 -0.107061
C95   C     C_3   0.164448 0.670734 0.634700 -0.093911
C96   C     C_3   0.835551 0.329267 0.365292 -0.093825
C97   C     C_3   0.104751 0.604614 0.444362 -0.107805
C98   C     C_3   0.895244 0.395386 0.555630 -0.107446
H1    H     H_    0.605702 0.456792 0.955300 0.096738
H2    H     H_    0.369080 0.377013 0.292585 0.141856
H3    H     H_    0.168614 0.695567 0.597759 0.152476
H4    H     H_    0.222147 0.699649 0.687447 0.117864
H5    H     H_    0.831385 0.304433 0.402233 0.152570
H6    H     H_    0.887600 0.310189 0.352042 0.161793
H7    H     H_    0.777852 0.300353 0.312546 0.118428
H8    H     H_    0.080665 0.558211 0.385571 0.151665
H9    H     H_    0.155634 0.584933 0.480132 0.170955
H10   H     H_    0.131722 0.663033 0.449431 0.099109
H11   H     H_    0.844362 0.415065 0.519858 0.170929
H12   H     H_    0.919329 0.441789 0.614420 0.151815
H13   H     H_    0.517327 0.505562 0.656358 0.263452
H14   H     H_    0.868274 0.336967 0.550560 0.099250
H15   H     H_    0.659450 0.549813 0.744758 0.126403
H16   H     H_    0.630924 0.622986 0.707412 0.141294
H17   H     H_    0.687204 0.546118 0.674440 0.197102
H18   H     H_    0.670349 0.644404 0.099763 0.251967
H19   H     H_    0.679007 0.709284 0.027504 0.134528
H20   H     H_    0.578770 0.649955 0.955124 0.155390
H21   H     H_    0.665342 0.599020 0.976097 0.128920
H22   H     H_    0.328626 0.358158 0.903503 0.252582
H23   H     H_    0.394839 0.543093 0.044610 0.098270
H24   H     H_    0.326759 0.289132 0.974932 0.130578
H25   H     H_    0.343300 0.399120 0.029938 0.127048
H26   H     H_    0.429233 0.346266 0.043930 0.189996
H27   H     H_    0.635745 0.420477 0.096521 0.247938
H28   H     H_    0.602283 0.273454 0.025053 0.132312
H29   H     H_    0.611643 0.320718 0.970172 0.126709
H30   H     H_    0.510648 0.281976 0.955988 0.189558
H31   H     H_    0.435186 0.608927 0.905742 0.247945
H32   H     H_    0.387059 0.721787 0.973190 0.130060
H33   H     H_    0.490490 0.723297 0.034918 0.171596
H34   H     H_    0.457142 0.020840 0.597920 0.122725
H35   H     H_    0.402165 0.681238 0.038316 0.147580
H36   H     H_    0.999539 0.899688 0.328120 0.148804
H37   H     H_    0.894007 0.913254 0.287332 0.151591
H38   H     H_    0.917097 0.812301 0.260877 0.118263
H39   H     H_    0.105986 0.086738 0.712663 0.151565
H40   H     H_    0.000452 0.100298 0.671868 0.148547
H41   H     H_    0.082889 0.187688 0.739114 0.119423
H42   H     H_    0.054942 0.804757 0.382217 0.152355
H43   H     H_    0.082360 0.822995 0.476591 0.169123
H44   H     H_    0.159762 0.815917 0.445016 0.103175
H45   H     H_    0.542858 0.979161 0.402080 0.122811
H46   H     H_    0.917639 0.177000 0.523403 0.169186
H47   H     H_    0.945055 0.195238 0.617777 0.152745
H48   H     H_    0.840236 0.184077 0.554976 0.103188
H49   H     H_    0.190512 0.032354 0.645983 0.160935
H50   H     H_    0.194643 0.925844 0.594216 0.146795
H51   H     H_    0.199935 0.960976 0.684281 0.114566
H52   H     H_    0.805355 0.074153 0.405778 0.146866
H53   H     H_    0.809486 0.967642 0.354014 0.160824
H54   H     H_    0.800063 0.039016 0.315713 0.114535
H55   H     H_    0.657530 0.018736 0.653365 0.269008
H56   H     H_    0.517921 0.641468 0.595798 0.121933
H57   H     H_    0.697358 0.159650 0.744286 0.139642
H58   H     H_    0.588242 0.124703 0.709385 0.138387
H59   H     H_    0.624342 0.187200 0.676789 0.150782
H60   H     H_    0.342470 0.981264 0.346636 0.269053
H61   H     H_    0.302640 0.840349 0.255717 0.139990
H62   H     H_    0.375660 0.812801 0.323213 0.150946
H63   H     H_    0.411755 0.875297 0.290614 0.138553
H64   H     H_    0.432059 0.799607 0.433548 0.239413
H65   H     H_    0.320263 0.783532 0.461418 0.106920
H66   H     H_    0.298445 0.848025 0.414636 0.178405
H67   H     H_    0.482081 0.358532 0.404204 0.122334
H68   H     H_    0.338678 0.893666 0.514647 0.164806
H69   H     H_    0.567942 0.200394 0.566454 0.239296
H70   H     H_    0.679737 0.216468 0.538583 0.106948
H71   H     H_    0.661322 0.106334 0.485353 0.164852
H72   H     H_    0.701556 0.151975 0.585364 0.178395
H73   H     H_    0.375025 0.625506 0.433491 0.144536
H74   H     H_    0.383311 0.668262 0.527013 0.123090
H75   H     H_    0.284347 0.628661 0.447628 0.112488
H76   H     H_    0.616692 0.331739 0.472989 0.123348
H77   H     H_    0.624974 0.374493 0.566509 0.144399
H78   H     H_    0.482671 0.494441 0.343644 0.264752
H79   H     H_    0.715655 0.371341 0.552377 0.112526
H80   H     H_    0.033039 0.203783 0.098920 0.247164
H81   H     H_    0.922895 0.251761 0.023596 0.122241
H82   H     H_    0.887698 0.148023 0.949616 0.184058
H83   H     H_    0.987353 0.206865 0.979901 0.164037
H84   H     H_    0.966942 0.796184 0.901080 0.247240
H85   H     H_    0.077085 0.748204 0.976403 0.124082
H86   H     H_    0.012626 0.793102 0.020098 0.163737
H87   H     H_    0.112282 0.851942 0.050384 0.184149
H88   H     H_    0.073558 0.042383 0.899804 0.243282
H89   H     H_    0.340543 0.450193 0.255248 0.127561
H90   H     H_    0.153179 0.182639 0.974298 0.122338
H91   H     H_    0.195610 0.119408 0.020003 0.169455
H92   H     H_    0.131799 0.188904 0.048615 0.158600
H93   H     H_    0.926427 0.957586 0.100199 0.243209
H94   H     H_    0.846806 0.817330 0.025710 0.121624
H95   H     H_    0.868185 0.811060 0.951391 0.158547
H96   H     H_    0.804373 0.880557 0.980000 0.169155
H97   H     H_    0.821495 0.113543 0.013034 0.147937
H98   H     H_    0.842435 0.040648 0.051916 0.114591
H99   H     H_    0.743305 0.027124 0.979018 0.122798
H100  H     H_    0.312798 0.453872 0.325567 0.196692
H101  H     H_    0.157545 0.959315 0.948083 0.114573
H102  H     H_    0.178487 0.886423 0.986967 0.148596
H103  H     H_    0.256677 0.972841 0.020980 0.123115
H104  H     H_    0.123150 0.603671 0.712898 0.153466
H105  H     H_    0.068574 0.497849 0.670573 0.149599
H106  H     H_    0.047420 0.579372 0.737668 0.121397
H107  H     H_    0.931417 0.502155 0.329424 0.148093
H108  H     H_    0.876842 0.396332 0.287094 0.151507
H109  H     H_    0.952571 0.420637 0.262325 0.119424
H110  H     H_    0.112399 0.689812 0.647950 0.161939
N1    N     N_2   0.438508 0.498482 0.362316 -0.525368
N2    N     N_2   0.575662 0.150492 0.526650 -0.502931
N3    N     N_2   0.980951 0.163560 0.053051 -0.524364
N4    N     N_2   0.019031 0.836406 0.946949 -0.524266
N5    N     N_2   0.068451 0.081785 0.946565 -0.519958
N6    N     N_2   0.931532 0.918183 0.053437 -0.519830
N7    N     N_2   0.561490 0.501518 0.637687 -0.525674
N8    N     N_2   0.617758 0.638256 0.054057 -0.514382
N9    N     N_2   0.383070 0.362261 0.946689 -0.514756
N10   N     N_2   0.577445 0.392666 0.053312 -0.514479
N11   N     N_2   0.422314 0.607055 0.946399 -0.510351
N12   N     N_2   0.638893 0.063461 0.636253 -0.513153
N13   N     N_2   0.361107 0.936539 0.363748 -0.513269
N14   N     N_2   0.424338 0.849509 0.473351 -0.502961
O1    O     O_3   0.250010 0.250010 0.500010 -0.462464
O2    O     O_R   0.893710 0.832180 0.664370 -0.535808
O3    O     O_R   0.332200 0.393690 0.664400 -0.541652
O4    O     O_R   0.667800 0.606310 0.335600 -0.540584
O5    O     O_R   0.229300 0.167820 0.335610 -0.537228
O6    O     O_R   0.770700 0.832180 0.664390 -0.537335
O7    O     O_R   0.358130 0.123520 0.543120 -0.551419
O8    O     O_R   0.641870 0.876480 0.456880 -0.551218
O9    O     O_R   0.080390 0.314990 0.456920 -0.512845
O10   O     O_R   0.919610 0.685010 0.543080 -0.512847
O11   O     O_R   0.185040 0.123520 0.543150 -0.515920
O12   O     O_3   0.749990 0.749990 0.499990 -0.462525
O13   O     O_R   0.814960 0.876480 0.456850 -0.516121
O14   O     O_R   0.358080 0.419590 0.543080 -0.520369
O15   O     O_R   0.641920 0.580410 0.456920 -0.519662
O16   O     O_R   0.080420 0.141920 0.456950 -0.507109
O17   O     O_R   0.919580 0.858080 0.543050 -0.507146
O18   O     O_R   0.376490 0.315000 0.456880 -0.554820
O19   O     O_R   0.623510 0.685000 0.543120 -0.554909
O20   O     O_3   0.918293 0.865658 0.362996 -0.573929
O21   O     O_3   0.081703 0.134335 0.637000 -0.573310
O22   O     O_3   0.117245 0.924104 0.462795 -0.579378
O23   O     O_R   0.376520 0.141930 0.456900 -0.537388
O24   O     O_3   0.882754 0.075890 0.537199 -0.579420
O25   O     O_3   0.084421 0.942165 0.601368 -0.556441
O26   O     O_3   0.915578 0.057829 0.398626 -0.556450
O27   O     O_3   0.347416 0.540378 0.466602 -0.555747
O28   O     O_3   0.652586 0.459623 0.533401 -0.555650
O29   O     O_3   0.833297 0.999550 0.944376 -0.565883
O30   O     O_3   0.166684 0.000416 0.055624 -0.565826
O31   O     O_3   0.000408 0.579683 0.636233 -0.574639
O32   O     O_3   0.999586 0.420319 0.363758 -0.573614
O33   O     O_3   0.158769 0.584427 0.603257 -0.554501
O34   O     O_R   0.623480 0.858070 0.543100 -0.537404
O35   O     O_3   0.841229 0.415574 0.396737 -0.554536
O36   O     O_3   0.040252 0.618965 0.465255 -0.576377
O37   O     O_3   0.959746 0.381036 0.534739 -0.576095
O38   O     O_R   0.184990 0.419580 0.543110 -0.502887
O39   O     O_R   0.815010 0.580420 0.456890 -0.503293
O40   O     O_R   0.332220 0.270690 0.664420 -0.539153
O41   O     O_R   0.667780 0.729310 0.335580 -0.539548
O42   O     O_R   0.106290 0.167820 0.335630 -0.535947
Zn1   Zn    Zn3+2 0.307090 0.219220 0.438420 0.938255
Zn2   Zn    Zn3+2 0.692910 0.780780 0.561580 0.938292
Zn3   Zn    Zn3+2 0.280820 0.192930 0.561610 0.951163
Zn4   Zn    Zn3+2 0.719180 0.807070 0.438390 0.950670
Zn5   Zn    Zn3+2 0.131340 0.219220 0.438450 0.990700
Zn6   Zn    Zn3+2 0.868660 0.780780 0.561550 0.990382
Zn7   Zn    Zn3+2 0.280790 0.368660 0.561580 0.976950
Zn8   Zn    Zn3+2 0.719210 0.631340 0.438420 0.977471

loop_
_geom_bond_atom_site_label_1
_geom_bond_atom_site_label_2
_ccdc_geom_bond_type
C98   O37   S    
C25   C31   T    
C72   H35   S    
C1    C25   S    
C96   H7    S    
C63   C65   S    
C16   O5    A    
C26   C32   T    
O42   Zn5   S    
C98   H12   S    
C6    C45   S    
C78   N4    S    
C27   C29   S    
C87   N4    S    
C14   C18   S    
C5    C56   S    
C50   C52   S    
C94   H108  S    
C24   C27   S    
O1    Zn1   S    
C5    C67   S    
C84   H73   S    
O6    Zn2   S    
C40   O23   A    
O7    Zn3   S    
C87   H87   S    
C90   H94   S    
C88   H92   S    
C74   H40   S    
C41   O34   A    
C11   C19   S    
C59   C64   S    
C33   C39   S    
C71   N10   S    
C13   C18   S    
C72   H33   S    
C37   O21   S    
C33   C42   S    
C20   N8    S    
C22   C29   S    
H13   N7    S    
C38   C42   S    
C58   O14   A    
C75   H42   S    
C94   O32   S    
H93   N6    S    
C19   O37   S    
C76   H46   S    
C17   O6    A    
C93   O31   S    
C6    C78   S    
C82   H65   S    
C51   N14   S    
C44   C50   S    
C7    C89   T    
H88   N5    S    
C46   C52   S    
C69   H20   S    
C34   C62   S    
C33   C36   S    
C56   C78   S    
H78   N1    S    
C60   C62   S    
C66   H2    S    
C37   C42   S    
C68   N7    S    
C93   H106  S    
C2    C8    T    
O3    Zn7   S    
O39   Zn8   S    
C62   C64   S    
C75   O22   S    
C75   H43   S    
O4    Zn8   S    
O9    Zn5   S    
C97   H10   S    
C12   O4    A    
C70   H25   S    
H55   N12   S    
C48   C51   S    
C39   C55   S    
C73   O20   S    
H64   N14   S    
C16   O42   A    
C96   O35   S    
C49   C51   S    
C45   C67   S    
C86   H83   S    
C45   N5    S    
C71   H28   S    
C80   H58   S    
O12   Zn8   S    
C30   C32   S    
C34   H67   S    
C35   C43   S    
C77   H49   S    
C56   N6    S    
C44   C47   S    
H18   N8    S    
C68   H15   S    
H27   N10   S    
C23   C63   S    
C80   N12   S    
C93   H105  S    
C76   H48   S    
C85   O28   S    
C81   H62   S    
C21   N9    S    
C66   H89   S    
C4    C56   S    
C2    C17   S    
C52   N2    S    
C71   H29   S    
C9    O33   S    
C94   H107  S    
C81   H63   S    
C55   O11   A    
C58   O18   A    
C27   N11   S    
C34   C65   S    
C41   C49   S    
C57   O13   A    
C97   O36   S    
O12   Zn6   S    
C16   C89   S    
C92   O30   S    
C23   C60   S    
C37   C39   S    
C74   H39   S    
C46   C48   S    
C42   O25   S    
C47   N12   S    
C70   N9    S    
C98   H14   S    
C88   N5    S    
C73   H37   S    
C35   C38   S    
C86   N3    S    
C4    O29   S    
C4    C6    S    
C10   C14   S    
C77   H51   S    
C87   H86   S    
C5    C7    S    
C82   H68   S    
C61   O28   S    
C6    C8    S    
C59   O15   A    
C3    C5    S    
C21   C29   S    
C3    C45   S    
O14   Zn7   S    
C12   C26   S    
C77   O25   S    
C12   O41   A    
C97   H9    S    
O16   Zn5   S    
C15   C19   S    
C54   O10   A    
C20   C30   S    
O1    Zn7   S    
C75   H44   S    
O11   Zn3   S    
C38   C57   S    
C91   H97   S    
C70   H24   S    
C58   C65   S    
O12   Zn4   S    
C90   H96   S    
C73   H38   S    
C10   C19   S    
C15   C53   S    
O41   Zn4   S    
H84   N4    S    
C85   H76   S    
C36   C43   S    
C10   O35   S    
C11   C14   S    
C66   H100  S    
O8    Zn4   S    
C66   N1    S    
C72   H32   S    
C93   H104  S    
C9    C11   S    
C77   H50   S    
O13   Zn4   S    
C57   O17   A    
C67   N3    S    
C53   O9    A    
C79   H52   S    
C69   N8    S    
C74   O21   S    
C91   O29   S    
C44   C51   S    
C23   C64   S    
C14   C54   S    
C43   O26   S    
C20   C22   S    
C60   C65   S    
H60   N13   S    
C13   C15   S    
C60   O27   S    
C46   C49   S    
C71   H30   S    
C21   C24   S    
C85   H77   S    
C97   H8    S    
C84   H75   S    
C92   H101  S    
C95   O33   S    
C90   N6    S    
C36   C38   S    
C80   H57   S    
C79   H53   S    
C74   H41   S    
C1    O3    A    
C95   H110  S    
C72   N11   S    
O34   Zn2   S    
C24   H23   S    
C35   O24   S    
C28   N10   S    
C22   H1    S    
O17   Zn6   S    
C35   C37   S    
C84   O27   S    
C54   O39   A    
O1    Zn3   S    
O18   Zn1   S    
C21   C28   S    
C61   C63   S    
O23   Zn1   S    
C94   H109  S    
H69   N2    S    
C41   O8    A    
C84   H74   S    
C10   C13   S    
C76   H47   S    
C4    C67   S    
C39   C43   S    
C81   H61   S    
C95   H4    S    
O1    Zn5   S    
C46   H45   S    
C82   N14   S    
C20   C27   S    
C83   H72   S    
C44   H34   S    
C81   N13   S    
C83   H70   S    
C53   O38   A    
C59   O19   A    
C36   O20   S    
C79   O26   S    
O38   Zn7   S    
C96   H6    S    
C86   H82   S    
C9    C15   S    
C28   C30   S    
C29   C31   S    
C17   O2    A    
C47   C49   S    
O5    Zn1   S    
C61   C64   S    
C87   H85   S    
C91   H98   S    
C69   H19   S    
O40   Zn3   S    
C80   H59   S    
C96   H5    S    
C90   H95   S    
C82   H66   S    
C40   C50   S    
C13   O32   S    
C83   H71   S    
C48   C50   S    
C86   H81   S    
C11   O31   S    
C62   N1    S    
C69   H21   S    
H80   N3    S    
O15   Zn8   S    
O10   Zn6   S    
C3    O30   S    
C34   C61   S    
C55   O16   A    
H31   N11   S    
C24   C30   S    
C76   O24   S    
C18   O36   S    
C83   N2    S    
O12   Zn2   S    
H22   N9    S    
C68   H17   S    
O2    Zn6   S    
C1    O40   A    
C91   H99   S    
C70   H26   S    
C9    C18   S    
C88   H90   S    
C73   H36   S    
C85   H79   S    
C48   N13   S    
C23   H56   S    
C47   C52   S    
C98   H11   S    
O19   Zn2   S    
C79   H54   S    
C33   O22   S    
C22   C28   S    
C63   N7    S    
C40   O7    A    
C92   H102  S    
C3    C78   S    
C92   H103  S    
C95   H3    S    
C68   H16   S    
C88   H91   S    
