data_mof_unit_26969.cif
_audit_creation_date              2012-12-11T14:50:51-0500
_audit_creation_method            fapswitch 2.2
_symmetry_space_group_name_H-M    P1
_symmetry_Int_Tables_number       1
_space_group_crystal_system       triclinic
_cell_length_a                    10.875669
_cell_length_b                    10.884068
_cell_length_c                    18.841313
_cell_angle_alpha                 90.510897
_cell_angle_beta                  90.353091
_cell_angle_gamma                 60.395754
_cell_volume                      1939.05000119

loop_
_atom_site_label
_atom_site_type_symbol
_atom_type_description
_atom_site_fract_x
_atom_site_fract_y
_atom_site_fract_z
_atom_type_partial_charge
C1    C     C_R   0.232921 0.647712 0.608686 0.569869
C2    C     C_R   0.582978 0.120724 0.775900 -0.036735
C3    C     C_R   0.586086 0.122851 0.703481 -0.151338
C4    C     C_R   0.650456 0.616894 0.603651 0.537385
C5    C     C_R   0.679127 0.154519 0.669347 0.002954
C6    C     C_R   0.176137 0.555634 0.718338 -0.108231
C7    C     C_R   0.167701 0.560384 0.792676 -0.075724
C8    C     C_R   0.160493 0.677610 0.830104 -0.068291
C9    C     C_R   0.160323 0.787729 0.792426 -0.124311
C10   C     C_R   0.163623 0.785824 0.719625 0.331128
C11   C     C_R   0.180431 0.666602 0.681686 -0.008554
C12   C     C_3   0.758835 0.505649 0.796555 -0.241480
C13   C     C_R   0.790013 0.570863 0.286505 0.404202
C14   C     C_R   0.790709 0.574587 0.213869 -0.087951
C15   C     C_R   0.678674 0.683920 0.176321 -0.043292
C16   C     C_R   0.631621 0.223442 0.601066 0.547398
C17   C     C_R   0.566052 0.792533 0.214083 -0.158453
C18   C     C_R   0.561172 0.784033 0.288011 -0.203910
C19   C     C_R   0.669002 0.667537 0.323904 0.025619
C20   C     C_R   0.490274 0.260394 0.274325 -0.154837
C21   C     C_R   0.507134 0.224917 0.203203 0.355799
C22   C     C_R   0.635037 0.191386 0.169260 -0.032747
C23   C     C_3   0.693891 0.664038 0.815838 0.046931
C24   C     C_R   0.736295 0.212773 0.204859 -0.154175
C25   C     C_R   0.717488 0.252076 0.275842 0.359578
C26   C     C_R   0.597006 0.268808 0.311960 -0.045374
C27   C     C_R   0.281335 0.711369 0.275073 -0.128307
C28   C     C_R   0.286773 0.620452 0.392880 0.532275
C29   C     C_R   0.245108 0.724701 0.204363 -0.120147
C30   C     C_R   0.172655 0.657961 0.177474 0.030243
C31   C     C_R   0.149700 0.566375 0.219822 -0.090366
C32   C     C_R   0.187374 0.552319 0.290788 -0.117451
C33   C     C_R   0.250239 0.628032 0.318765 0.009917
C34   C     C_3   0.665017 0.637891 0.680133 0.033772
C35   C     C_R   0.704898 0.092090 0.892963 0.534809
C36   C     C_R   0.718207 0.683251 0.890880 0.531985
C37   C     C_R   0.114432 0.707882 0.904198 0.543166
C38   C     C_R   0.672542 0.112036 0.102817 0.571495
C39   C     C_R   0.701636 0.694430 0.100776 0.546572
C40   C     C_R   0.645222 0.626171 0.393937 0.549998
C41   C     C_R   0.097733 0.706954 0.111267 0.551280
C42   C     C_R   0.579679 0.295558 0.388178 0.548195
C43   C     C_3   0.534967 0.737469 0.796699 -0.247935
C44   C     C_3   0.518083 0.729974 0.715850 -0.205969
C45   C     C_3   0.755479 0.708827 0.691524 -0.249925
C46   C     C_3   0.768645 0.728293 0.771442 -0.218255
C47   C     C_1   0.463478 0.112963 0.804094 0.232489
C48   C     C_1   0.174854 0.439174 0.680620 0.224389
C49   C     C_1   0.154191 0.450817 0.829185 0.246573
C50   C     C_3   0.737145 0.490860 0.717346 -0.229729
C51   C     C_R   0.791084 0.154035 0.707317 -0.117177
C52   C     C_R   0.799549 0.135900 0.780962 -0.154443
C53   C     C_R   0.692785 0.124525 0.816723 -0.005407
Cr1   Cr    Cr6+3 0.392930 0.397900 0.502230 1.057609
Cr2   Cr    Cr6+3 0.398240 0.708600 0.501260 1.064143
Cr3   Cr    Cr6+3 0.708800 0.393470 0.496460 1.121495
Cr4   Cr    Cr6+3 0.937620 0.938540 0.007640 1.036130
Cr5   Cr    Cr6+3 0.625150 0.937450 0.994520 1.081301
Cr6   Cr    Cr6+3 0.937990 0.625080 0.001190 1.063114
F1    F     F_    0.155691 0.900273 0.686840 -0.625759
F2    F     F_    0.905998 0.467050 0.319437 -0.576672
F3    F     F_    0.402230 0.213563 0.169662 -0.613034
F4    F     F_    0.821602 0.264109 0.309574 -0.552788
H1    H     H_    0.480267 0.848756 0.814125 0.174156
H2    H     H_    0.883302 0.492171 0.187450 0.169983
H3    H     H_    0.482484 0.882398 0.186755 0.184342
H4    H     H_    0.470972 0.864797 0.316626 0.155976
H5    H     H_    0.395551 0.275566 0.300605 0.171709
H6    H     H_    0.834071 0.190648 0.179192 0.173798
H7    H     H_    0.327985 0.770741 0.296589 0.137982
H8    H     H_    0.449577 0.682885 0.704934 0.149588
H9    H     H_    0.264773 0.795045 0.172032 0.143612
H10   H     H_    0.094517 0.513598 0.199532 0.166665
H11   H     H_    0.163057 0.486379 0.323926 0.190942
H12   H     H_    0.842227 0.418669 0.693407 0.162196
H13   H     H_    0.464958 0.838715 0.693653 0.177035
H14   H     H_    0.722276 0.842169 0.783847 0.133178
H15   H     H_    0.705978 0.813264 0.664759 0.123254
H16   H     H_    0.874123 0.447217 0.808165 0.171698
H17   H     H_    0.708762 0.456413 0.828307 0.119488
H18   H     H_    0.669367 0.441535 0.710495 0.123806
H19   H     H_    0.882217 0.677716 0.785803 0.134112
H20   H     H_    0.862365 0.642468 0.668134 0.141706
H21   H     H_    0.866681 0.175257 0.680895 0.175167
H22   H     H_    0.886374 0.134904 0.809908 0.148762
H23   H     H_    0.503776 0.115482 0.673925 0.158082
H24   H     H_    0.149777 0.881136 0.819014 0.175942
H25   H     H_    0.483414 0.684965 0.824438 0.115838
N1    N     N_1   0.368126 0.106108 0.826183 -0.265933
N2    N     N_1   0.173500 0.346339 0.650869 -0.262393
N3    N     N_1   0.139948 0.366278 0.859018 -0.248506
O1    O     O_R   0.507430 0.255570 0.581420 -0.506061
O2    O     O_R   0.837200 0.593290 0.915250 -0.510046
O3    O     O_R   0.065330 0.635370 0.931590 -0.484415
O4    O     O_R   0.280190 0.527390 0.578910 -0.497829
O5    O     O_R   0.068300 0.828790 0.091860 -0.514917
O6    O     O_R   0.798730 0.057480 0.079370 -0.518693
O7    O     O_R   0.584680 0.080480 0.076790 -0.428157
O8    O     O_R   0.626790 0.809640 0.067050 -0.492215
O9    O     O_R   0.816010 0.596460 0.076500 -0.527245
O10   O     O_R   0.045680 0.638310 0.081070 -0.499601
O11   O     O_3   0.833590 0.833690 0.001120 -0.271108
O12   O     O_R   0.524460 0.695920 0.424060 -0.547634
O13   O     O_R   0.260310 0.739740 0.584580 -0.430437
O14   O     O_R   0.532250 0.695150 0.573830 -0.503159
O15   O     O_R   0.744930 0.503430 0.576380 -0.515969
O16   O     O_R   0.699250 0.276390 0.571950 -0.504786
O17   O     O_R   0.499020 0.256400 0.419850 -0.523987
O18   O     O_R   0.272400 0.528160 0.429140 -0.511718
O19   O     O_R   0.251910 0.740570 0.423020 -0.480789
O20   O     O_R   0.736530 0.504260 0.414810 -0.395269
O21   O     O_R   0.691460 0.277160 0.422180 -0.408149
O22   O     O_3   0.499990 0.499990 0.499980 -0.328977
O23   O     O_R   0.089490 0.825610 0.930610 -0.525653
O24   O     O_R   0.818370 0.054540 0.929880 -0.506342
O25   O     O_R   0.605870 0.077310 0.915530 -0.503708
O26   O     O_R   0.646440 0.806700 0.917570 -0.508366

loop_
_geom_bond_atom_site_label_1
_geom_bond_atom_site_label_2
_ccdc_geom_bond_type
C12   H16   S    
C35   C53   S    
Cr5   O7    S    
C38   O7    A    
C7    C8    A    
Cr4   O24   S    
C45   C46   S    
C27   C33   A    
Cr4   O11   S    
C12   C23   S    
C17   H3    S    
C6    C48   S    
Cr2   O14   S    
C43   H25   S    
C52   H22   S    
C32   H11   S    
C30   C31   A    
C31   H10   S    
C41   O5    A    
C27   C29   A    
C22   C38   S    
Cr1   O22   S    
Cr2   O12   S    
C23   C43   S    
C44   H8    S    
C18   C19   A    
C25   F4    S    
C44   H13   S    
C42   O21   A    
C5    C16   S    
C16   O16   A    
C46   H19   S    
C36   O2    A    
C8    C9    A    
Cr4   O5    S    
C1    C11   S    
C43   H1    S    
Cr3   O22   S    
C30   C41   S    
C35   O24   A    
C45   H15   S    
Cr5   O11   S    
Cr6   O3    S    
C9    C10   A    
C15   C39   S    
Cr3   O20   S    
C29   H9    S    
C23   C46   S    
C48   N2    T    
C13   C14   A    
C3    H23   S    
Cr5   O25   S    
Cr6   O9    S    
C47   N1    T    
C45   H20   S    
C49   N3    T    
C38   O6    A    
C24   H6    S    
C40   O20   A    
C4    C34   S    
C34   C50   S    
C13   C19   A    
C51   C52   A    
Cr6   O10   S    
C34   C44   S    
C24   C25   A    
C7    C49   S    
C10   C11   A    
C6    C11   A    
C37   O23   A    
Cr2   O22   S    
C28   O19   A    
C25   C26   A    
C4    O15   A    
Cr2   O13   S    
Cr5   O26   S    
Cr1   O18   S    
C10   F1    S    
C43   C44   S    
Cr3   O16   S    
Cr1   O1    S    
C29   C30   A    
C39   O8    A    
C31   C32   A    
C1    O4    A    
Cr4   O6    S    
C17   C18   A    
C21   F3    S    
C35   O25   A    
C34   C45   S    
C36   O26   A    
C1    O13   A    
Cr3   O15   S    
Cr1   O4    S    
C6    C7    A    
C27   H7    S    
C28   C33   S    
C16   O1    A    
Cr2   O19   S    
C28   O18   A    
C22   C24   A    
C8    C37   S    
C52   C53   A    
C26   C42   S    
C15   C17   A    
Cr6   O11   S    
C20   H5    S    
Cr5   O8    S    
C3    C5    A    
C2    C53   A    
C46   H14   S    
C12   C50   S    
Cr4   O23   S    
C2    C47   S    
C4    O14   A    
Cr1   O17   S    
C32   C33   A    
C2    C3    A    
C18   H4    S    
C50   H12   S    
C9    H24   S    
C40   O12   A    
C39   O9    A    
C20   C26   A    
C12   H17   S    
C14   H2    S    
C41   O10   A    
C37   O3    A    
C19   C40   S    
C13   F2    S    
C20   C21   A    
C23   C36   S    
C14   C15   A    
C5    C51   A    
Cr6   O2    S    
C21   C22   A    
C42   O17   A    
C51   H21   S    
Cr3   O21   S    
C50   H18   S    
