data_mof_unit_61462.cif
_audit_creation_date              2012-10-26T18:19:06-0400
_audit_creation_method            fapswitch 2.2
_symmetry_space_group_name_H-M    P1
_symmetry_Int_Tables_number       1
_space_group_crystal_system       triclinic
_cell_length_a                    18.925359
_cell_length_b                    18.707465
_cell_length_c                    18.76044
_cell_angle_alpha                 109.117163
_cell_angle_beta                  109.866606
_cell_angle_gamma                 109.474832
_cell_volume                      5110.05010128

loop_
_atom_site_label
_atom_site_type_symbol
_atom_type_description
_atom_site_fract_x
_atom_site_fract_y
_atom_site_fract_z
_atom_type_partial_charge
C1    C     C_R   0.381200 0.381201 0.499643 0.545434
C2    C     C_R   0.256734 0.182332 0.502392 0.018158
C3    C     C_3   0.302060 0.131055 0.507068 -0.268973
C4    C     C_R   0.618319 0.499102 0.619735 0.539474
C5    C     C_3   0.372134 0.200989 0.505148 -0.272984
C6    C     C_R   0.314425 0.496093 0.240204 0.029037
C7    C     C_R   0.312159 0.497782 0.313784 0.029368
C8    C     C_R   0.241114 0.499393 0.321880 -0.151018
C9    C     C_R   0.175463 0.498574 0.256339 -0.151751
C10   C     C_R   0.181934 0.499249 0.183758 0.020718
C11   C     C_R   0.253361 0.498708 0.179223 0.019855
C12   C     C_3   0.809600 0.499297 0.808040 0.049786
C13   C     C_3   0.296335 0.498658 0.125884 -0.274229
C14   C     C_3   0.366605 0.496669 0.196055 -0.265534
C15   C     C_R   0.766160 0.693368 0.525216 -0.052942
C16   C     C_R   0.618319 0.619060 0.499896 0.594879
C17   C     C_R   0.685371 0.687397 0.502196 0.023360
C18   C     C_R   0.673583 0.754205 0.491077 0.348355
C19   C     C_R   0.738257 0.818654 0.491228 -0.121292
C20   C     C_R   0.815849 0.818065 0.505046 -0.045099
C21   C     C_R   0.830698 0.758172 0.527473 0.013432
C22   C     C_3   0.860101 0.697914 0.490460 -0.257858
C23   C     C_3   0.847012 0.547275 0.764516 -0.227659
C24   C     C_3   0.788978 0.626654 0.487969 -0.274243
C25   C     C_R   0.997964 0.381216 0.879588 0.550729
C26   C     C_R   0.878104 0.499045 0.876575 0.545920
C27   C     C_R   0.997615 0.619179 0.116070 0.550725
C28   C     C_R   0.380476 0.499566 0.380500 0.567331
C29   C     C_R   0.116286 0.499687 0.116555 0.551652
C30   C     C_R   0.999657 0.118649 0.618360 0.550747
C31   C     C_R   0.118334 0.118641 0.499730 0.550605
C32   C     C_R   0.000189 0.881184 0.381506 0.547462
C33   C     C_R   0.881437 0.881402 0.500546 0.551385
C34   C     C_3   0.768764 0.546298 0.849690 -0.239056
C35   C     C_R   0.924188 0.243703 0.741479 0.015281
C36   C     C_R   0.999909 0.314874 0.815463 0.020988
C37   C     C_R   0.079268 0.320917 0.824983 -0.154327
C38   C     C_R   0.079670 0.255624 0.760845 -0.154476
C39   C     C_R   0.000852 0.185518 0.685378 0.019040
C40   C     C_3   0.664105 0.404249 0.666853 -0.232871
C41   C     C_R   0.924720 0.183033 0.678577 0.016680
C42   C     C_3   0.828513 0.132812 0.622090 -0.265190
C43   C     C_3   0.827997 0.202734 0.693570 -0.272226
C44   C     C_R   0.922704 0.687987 0.171513 0.009012
C45   C     C_R   0.317611 0.243027 0.499849 0.016668
C46   C     C_R   0.999156 0.687515 0.182538 0.016210
C47   C     C_R   0.078649 0.758591 0.255457 -0.152764
C48   C     C_R   0.079561 0.822413 0.321526 -0.156028
C49   C     C_R   0.001054 0.816846 0.313402 0.016411
C50   C     C_R   0.923771 0.752315 0.235363 0.028414
C51   C     C_3   0.840207 0.689318 0.221354 -0.274496
C52   C     C_3   0.737344 0.404196 0.735799 -0.233477
C53   C     C_3   0.839234 0.618569 0.151199 -0.271271
C54   C     C_3   0.774390 0.545114 0.692600 -0.239762
C55   C     C_3   0.698331 0.548503 0.779941 -0.227283
C56   C     C_R   0.313303 0.314887 0.497883 0.020526
C57   C     C_3   0.687096 0.499350 0.688485 0.051680
C58   C     C_R   0.240604 0.321652 0.495716 -0.154037
C59   C     C_R   0.175234 0.256364 0.494882 -0.154318
C60   C     C_R   0.183667 0.185511 0.499270 0.018686
Cu1   Cu    Cu3+1 0.500370 0.438220 0.438550 0.912545
Cu2   Cu    Cu3+1 0.499630 0.561780 0.561450 0.968850
Cu3   Cu    Cu3+1 0.935500 0.438280 0.997350 0.913630
Cu4   Cu    Cu3+1 0.059110 0.561800 0.997270 0.921220
Cu5   Cu    Cu3+1 0.062130 0.000020 0.562160 0.924949
Cu6   Cu    Cu3+1 0.937870 0.000080 0.437940 0.927898
F1    F     F_    0.597822 0.753877 0.474640 -0.626791
H1    H     H_    0.654586 0.366454 0.601336 0.135161
H2    H     H_    0.375815 0.175898 0.444775 0.146645
H3    H     H_    0.235922 0.500320 0.377890 0.122913
H4    H     H_    0.602164 0.370653 0.665090 0.102934
H5    H     H_    0.121024 0.499092 0.263160 0.126342
H6    H     H_    0.257107 0.437771 0.061368 0.129190
H7    H     H_    0.320037 0.560589 0.124022 0.151476
H8    H     H_    0.368393 0.434898 0.171901 0.141660
H9    H     H_    0.430655 0.557725 0.235072 0.159443
H10   H     H_    0.726928 0.867460 0.478588 0.149942
H11   H     H_    0.849351 0.685954 0.424567 0.125600
H12   H     H_    0.819714 0.614239 0.902928 0.115113
H13   H     H_    0.926513 0.716901 0.538092 0.144870
H14   H     H_    0.736865 0.573318 0.420580 0.149446
H15   H     H_    0.709404 0.367203 0.764399 0.135437
H16   H     H_    0.814402 0.604652 0.534216 0.132308
H17   H     H_    0.140293 0.375102 0.881878 0.119798
H18   H     H_    0.141047 0.260779 0.769359 0.127581
H19   H     H_    0.806871 0.133940 0.559671 0.145576
H20   H     H_    0.799594 0.067105 0.615748 0.144035
H21   H     H_    0.806670 0.244547 0.672503 0.123697
H22   H     H_    0.798218 0.177331 0.728127 0.150240
H23   H     H_    0.791454 0.613018 0.706363 0.113406
H24   H     H_    0.139415 0.762340 0.263292 0.129219
H25   H     H_    0.140978 0.874901 0.379157 0.124372
H26   H     H_    0.848102 0.680637 0.278939 0.124799
H27   H     H_    0.765197 0.369718 0.703966 0.102952
H28   H     H_    0.787381 0.703253 0.194844 0.143590
H29   H     H_    0.846697 0.568859 0.168155 0.150375
H30   H     H_    0.785866 0.591755 0.084275 0.131039
H31   H     H_    0.768863 0.509878 0.628541 0.122598
H32   H     H_    0.878404 0.515734 0.735575 0.121058
H33   H     H_    0.717197 0.617760 0.798473 0.136419
H34   H     H_    0.897485 0.616525 0.814309 0.136525
H35   H     H_    0.635820 0.517863 0.778224 0.121615
H36   H     H_    0.739451 0.511928 0.879417 0.123504
H37   H     H_    0.233958 0.376390 0.493726 0.123018
H38   H     H_    0.119468 0.262067 0.492491 0.128025
H39   H     H_    0.325139 0.131281 0.570144 0.144786
H40   H     H_    0.264811 0.065680 0.447508 0.133436
H41   H     H_    0.435399 0.241926 0.567356 0.124255
O1    O     O_R   0.410140 0.357660 0.448100 -0.510544
O2    O     O_R   0.947040 0.090210 0.537310 -0.512616
O3    O     O_R   0.142640 0.090190 0.552500 -0.512970
O4    O     O_R   0.409510 0.462000 0.551890 -0.520270
O5    O     O_R   0.037710 0.090250 0.447610 -0.510870
O6    O     O_R   0.052960 0.909890 0.462790 -0.516104
O7    O     O_R   0.948020 0.909940 0.357900 -0.503300
O8    O     O_R   0.962290 0.909850 0.552490 -0.499458
O9    O     O_R   0.857360 0.909910 0.447600 -0.516615
O10   O     O_R   0.590970 0.447830 0.538770 -0.524223
O11   O     O_R   0.590340 0.552170 0.642560 -0.523094
O12   O     O_R   0.049970 0.462000 0.907620 -0.514689
O13   O     O_R   0.590490 0.538000 0.448110 -0.526842
O14   O     O_R   0.589860 0.642340 0.551900 -0.462650
O15   O     O_R   0.409660 0.447830 0.357440 -0.512600
O16   O     O_R   0.409030 0.552170 0.461230 -0.495446
O17   O     O_R   0.945590 0.357690 0.907690 -0.506700
O18   O     O_R   0.854460 0.447890 0.906680 -0.520418
O19   O     O_R   0.958840 0.552200 0.906620 -0.515897
O20   O     O_R   0.944630 0.538080 0.087010 -0.514509
O21   O     O_R   0.049020 0.642390 0.086940 -0.508555
O22   O     O_R   0.035760 0.447880 0.088010 -0.510761
O23   O     O_R   0.140150 0.552190 0.087940 -0.508985
O24   O     O_R   0.051980 0.090160 0.642200 -0.511432

loop_
_geom_bond_atom_site_label_1
_geom_bond_atom_site_label_2
_ccdc_geom_bond_type
C23   H32   S    
C33   O9    A    
Cu6   O5    S    
C41   C42   S    
C35   C36   A    
C9    H5    S    
C24   H14   S    
Cu1   O1    S    
Cu2   O16   S    
C28   O15   A    
C7    C8    A    
C39   C41   A    
C23   H34   S    
C55   H35   S    
C59   H38   S    
C30   O2    A    
C43   H21   S    
C36   C37   A    
C40   H4    S    
C1    C56   S    
C54   H23   S    
C1    O4    A    
C26   O18   A    
C38   C39   A    
C2    C60   A    
Cu1   O13   S    
C18   C19   A    
Cu5   O6    S    
Cu3   O22   S    
C19   H10   S    
C25   O17   A    
Cu5   O3    S    
C16   O14   A    
C1    O1    A    
C44   C53   S    
C47   C48   A    
C45   C56   A    
C8    C9    A    
Cu6   O9    S    
C4    C57   S    
C5    H2    S    
C4    O11   A    
C52   H27   S    
C42   H19   S    
C35   C43   S    
C9    C10   A    
Cu3   O20   S    
C59   C60   A    
C2    C45   A    
C21   C22   S    
C53   H29   S    
C4    O10   A    
C12   C52   S    
C44   C46   A    
C17   C18   A    
C3    H39   S    
Cu6   O7    S    
C38   H18   S    
C22   H11   S    
C6    C11   A    
C16   C17   S    
C53   H30   S    
C58   C59   A    
C40   C52   S    
C5    C45   S    
C7    C28   S    
C12   C26   S    
C51   C53   S    
C14   H9    S    
C31   C60   S    
C55   H33   S    
C16   O13   A    
C37   C38   A    
C34   H12   S    
C6    C14   S    
C27   O20   A    
C29   O22   A    
C12   C23   S    
Cu4   O23   S    
Cu4   O19   S    
C50   C51   S    
C34   C55   S    
C37   H17   S    
C43   H22   S    
Cu6   O2    S    
C52   H15   S    
Cu2   O11   S    
Cu3   O17   S    
C51   H26   S    
C20   C33   S    
C27   C46   S    
C48   C49   A    
C13   H6    S    
C49   C50   A    
C55   C57   S    
C40   H1    S    
C27   O21   A    
Cu5   O8    S    
C22   C24   S    
C58   H37   S    
C42   C43   S    
C12   C34   S    
C25   O12   A    
Cu2   O14   S    
Cu5   O24   S    
C23   C54   S    
C44   C50   A    
C15   C17   A    
C46   C47   A    
C15   C24   S    
C33   O8    A    
C40   C57   S    
Cu1   O10   S    
C47   H24   S    
C24   H16   S    
C3    C5    S    
C28   O16   A    
C6    C7    A    
Cu4   O21   S    
C8    H3    S    
C34   H36   S    
Cu4   O12   S    
Cu1   O15   S    
C3    H40   S    
C14   H8    S    
C19   C20   A    
C2    C3    S    
C18   F1    S    
C22   H13   S    
C11   C13   S    
C10   C29   S    
C29   O23   A    
C30   O24   A    
C5    H41   S    
C56   C58   A    
C30   C39   S    
C26   O19   A    
C32   O7    A    
Cu1   Cu2   S    
C35   C41   A    
C32   C49   S    
Cu3   O18   S    
C10   C11   A    
C25   C36   S    
Cu3   Cu4   S    
C15   C21   A    
Cu2   O4    S    
C20   C21   A    
Cu5   Cu6   S    
C48   H25   S    
C31   O3    A    
C54   H31   S    
C42   H20   S    
C32   O6    A    
C13   C14   S    
C31   O5    A    
C51   H28   S    
C13   H7    S    
C54   C57   S    
