data_mof_unit_54249.cif
_audit_creation_date              2012-12-11T16:53:22-0500
_audit_creation_method            fapswitch 2.2
_symmetry_space_group_name_H-M    P1
_symmetry_Int_Tables_number       1
_space_group_crystal_system       triclinic
_cell_length_a                    14.897201
_cell_length_b                    14.811401
_cell_length_c                    17.021394
_cell_angle_alpha                 108.893454
_cell_angle_beta                  106.234132
_cell_angle_gamma                 108.275669
_cell_volume                      3055.51927149

loop_
_atom_site_label
_atom_site_type_symbol
_atom_type_description
_atom_site_fract_x
_atom_site_fract_y
_atom_site_fract_z
_atom_type_partial_charge
C1    C     C_R   0.089511 0.287023 0.075275 -0.148084
C2    C     C_R   0.061141 0.533016 0.265572 -0.140855
C3    C     C_R   0.232314 0.799877 0.187479 -0.119362
C4    C     C_R   0.933947 0.518149 0.746893 -0.128147
C5    C     C_R   0.699037 0.409576 0.999096 -0.106661
C6    C     C_R   0.258500 0.807161 0.274804 0.060366
C7    C     C_R   0.641512 0.444685 0.948242 0.103682
C8    C     C_R   0.968043 0.518425 0.273981 0.076175
C9    C     C_R   0.995306 0.816257 0.968788 0.052528
C10   C     C_R   0.390062 0.461652 0.871555 0.099940
C11   C     C_R   0.340267 0.411108 0.914856 0.062567
C12   C     C_R   0.024105 0.581508 0.745925 0.065776
C13   C     C_R   0.372420 0.339619 0.937558 -0.189565
C14   C     C_R   0.467510 0.341529 0.939080 -0.172783
C15   C     C_R   0.531171 0.416571 0.919890 0.012378
C16   C     C_R   0.720930 0.214425 0.822642 -0.121204
C17   C     C_R   0.486843 0.470409 0.880287 0.083053
C18   C     C_3   0.524018 0.577766 0.880297 0.412788
C19   C     C_3   0.415409 0.566981 0.869143 -0.689683
C20   C     C_R   0.957245 0.560109 0.359466 0.083566
C21   C     C_R   0.029797 0.621962 0.678657 0.111273
C22   C     C_R   0.131663 0.690527 0.604823 -0.172771
C23   C     C_R   0.665536 0.217875 0.744521 0.047208
C24   C     C_R   0.126789 0.678584 0.681296 -0.166856
C25   C     C_R   0.937597 0.591121 0.604067 -0.238144
C26   C     C_R   0.941550 0.595046 0.524614 0.016873
C27   C     C_R   0.040080 0.641606 0.524369 0.133518
C28   C     C_R   0.246155 0.523691 0.939921 -0.133722
C29   C     C_R   0.046685 0.627199 0.441960 -0.266741
C30   C     C_R   0.858658 0.526464 0.360321 -0.343324
C31   C     C_R   0.849903 0.541823 0.442630 0.530481
C32   C     C_R   0.556756 0.145258 0.679176 0.126983
C33   C     C_R   0.300366 0.902847 0.360977 0.136362
C34   C     C_R   0.276944 0.450014 0.954422 0.072191
C35   C     C_R   0.395064 0.094393 0.448581 -0.229207
C36   C     C_R   0.335599 0.004320 0.364466 -0.169416
C37   C     C_R   0.312571 0.893159 0.442134 -0.269476
C38   C     C_R   0.379756 0.981540 0.525910 0.186786
C39   C     C_R   0.424879 0.082259 0.528517 0.188027
C40   C     C_R   0.728110 0.310601 0.746247 -0.126720
C41   C     C_R   0.509704 0.165312 0.607310 -0.262774
C42   C     C_R   0.504020 0.049206 0.680774 -0.169370
C43   C     C_R   0.413811 0.968209 0.604819 -0.216209
C44   C     C_R   0.089219 0.086091 0.100673 0.166890
C45   C     C_R   0.235663 0.705105 0.265576 -0.122617
C46   C     C_R   0.010754 0.120637 0.091838 0.040442
C47   C     C_R   0.943656 0.091590 0.133352 -0.140592
C48   C     C_R   0.961885 0.039487 0.188034 -0.201222
C49   C     C_R   0.048537 0.017724 0.204286 0.043797
C50   C     C_R   0.106391 0.034935 0.154575 0.170271
C51   C     C_3   0.221249 0.084646 0.184605 -0.530180
C52   C     C_R   0.248760 0.433157 0.021833 -0.118088
C53   C     C_3   0.203650 0.140710 0.125376 -0.500457
C54   C     C_R   0.106570 0.606183 0.824464 -0.151587
C55   C     C_R   0.917210 0.201538 0.001099 -0.039087
C56   C     C_R   0.705852 0.503580 0.920707 -0.074551
C57   C     C_R   0.005226 0.192662 0.048710 -0.009143
C58   C     C_2   0.608452 0.672072 0.971878 0.870231
C59   C     C_3   0.581352 0.662562 0.792677 0.217539
C60   C     C_3   0.500300 0.704224 0.768690 -0.296754
C61   C     C_3   0.540514 0.794948 0.744379 -0.967944
C62   C     C_3   0.710492 0.390172 0.407520 0.163866
C63   C     C_3   0.594575 0.344570 0.386598 -0.237274
C64   C     C_3   0.543306 0.222989 0.341236 -1.049682
C65   C     C_2   0.809439 0.136879 0.983010 0.922623
C66   C     C_R   0.887848 0.455823 0.186726 -0.072720
C67   C     C_R   0.082277 0.802701 0.008628 -0.133229
C68   C     C_R   0.910291 0.719174 0.935968 -0.082557
H1    H     H_    0.166140 0.318688 0.128660 0.101089
H2    H     H_    0.495043 0.292723 0.964568 0.122496
H3    H     H_    0.854182 0.494847 0.703380 0.084875
H4    H     H_    0.417487 0.629192 0.928636 0.188944
H5    H     H_    0.365565 0.556025 0.801325 0.215828
H6    H     H_    0.122888 0.660114 0.442487 0.121334
H7    H     H_    0.788049 0.481974 0.297330 0.143045
H8    H     H_    0.207446 0.728172 0.605716 0.115400
H9    H     H_    0.199365 0.706953 0.739205 0.112516
H10   H     H_    0.862412 0.552773 0.603231 0.149764
H11   H     H_    0.545898 0.240594 0.606694 0.120694
H12   H     H_    0.683530 0.528606 0.868614 0.113894
H13   H     H_    0.689878 0.160494 0.848431 0.127413
H14   H     H_    0.535896 0.032734 0.736907 0.125073
H15   H     H_    0.427053 0.171934 0.450384 0.139680
H16   H     H_    0.378360 0.891759 0.604212 0.122246
H17   H     H_    0.323797 0.014260 0.302953 0.119621
H18   H     H_    0.280122 0.815976 0.440734 0.112040
H19   H     H_    0.882697 0.116764 0.130821 0.142979
H20   H     H_    0.913376 0.023477 0.223443 0.144210
H21   H     H_    0.264499 0.140001 0.259209 0.198168
H22   H     H_    0.250644 0.026306 0.158986 0.185489
H23   H     H_    0.805042 0.426444 0.167052 0.101880
H24   H     H_    0.241529 0.228119 0.167966 0.190225
H25   H     H_    0.247944 0.549508 0.888069 0.120388
H26   H     H_    0.221849 0.113323 0.065399 0.195504
H27   H     H_    0.706685 0.347104 0.703208 0.091006
H28   H     H_    0.260799 0.380108 0.050034 0.095974
H29   H     H_    0.186019 0.666129 0.852480 0.091310
H30   H     H_    0.258395 0.683030 0.319471 0.087737
H31   H     H_    0.676877 0.830865 0.052836 0.338446
H32   H     H_    0.605527 0.643617 0.735618 0.122702
H33   H     H_    0.654312 0.724621 0.853769 0.122117
H34   H     H_    0.162127 0.857579 0.030473 0.093208
H35   H     H_    0.427539 0.638412 0.709165 0.198675
H36   H     H_    0.481697 0.734279 0.827820 0.229776
H37   H     H_    0.613265 0.861906 0.802780 0.311764
H38   H     H_    0.480858 0.824273 0.728821 0.254199
H39   H     H_    0.556305 0.766810 0.683111 0.261047
H40   H     H_    0.751654 0.369535 0.459435 0.097180
H41   H     H_    0.717686 0.351948 0.342883 0.100212
H42   H     H_    0.585164 0.374779 0.451201 0.192592
H43   H     H_    0.554542 0.371208 0.339612 0.208763
H44   H     H_    0.553384 0.191105 0.277269 0.274873
H45   H     H_    0.830398 0.697074 0.893377 0.086517
H46   H     H_    0.458490 0.192552 0.323050 0.268171
H47   H     H_    0.577997 0.194129 0.388805 0.275021
H48   H     H_    0.677240 0.134624 0.993306 0.313901
H49   H     H_    0.136947 0.566208 0.320298 0.090738
H50   H     H_    0.242496 0.863949 0.168801 0.087575
H51   H     H_    0.669638 0.349172 0.020009 0.110668
H52   H     H_    0.331611 0.291977 0.964391 0.124225
N1    N     N_R   0.055640 0.348550 0.045600 -0.048934
N2    N     N_R   0.811290 0.303400 0.871650 -0.040111
N3    N     N_R   0.205180 0.552990 0.997660 -0.043833
N4    N     N_R   0.814810 0.361830 0.823710 -0.045684
N5    N     N_R   0.201660 0.494570 0.045600 -0.042175
N6    N     N_R   0.068420 0.560530 0.871650 -0.040224
N7    N     N_R   0.948050 0.295860 0.997660 -0.062424
N8    N     N_R   0.185190 0.638170 0.176290 -0.040514
N9    N     N_R   0.798340 0.505430 0.954400 -0.049548
N10   N     N_R   0.931580 0.439470 0.128350 -0.031677
N11   N     N_R   0.051950 0.704140 0.002340 -0.040666
N12   N     N_R   0.944360 0.651450 0.954400 -0.044447
N13   N     N_R   0.039170 0.492150 0.176290 -0.044844
N14   N     N_R   0.188710 0.696600 0.128350 -0.040909
N15   N     N_R   0.794820 0.447010 0.002340 -0.037260
N16   N     N_R   0.960830 0.507850 0.823710 -0.039573
Ni1   Ni    Ni4+2 0.119330 0.493420 0.109950 0.214483
Ni2   Ni    Ni4+2 0.880670 0.506580 0.890050 0.211523
Ni3   Ni    Ni4+2 0.872590 0.372590 0.000000 0.255421
Ni4   Ni    Ni4+2 0.127410 0.627410 0.000000 0.213922
O1    O     O_2   0.661000 0.658067 0.031933 -0.647019
O2    O     O_R   0.620092 0.775187 0.989838 -0.807980
O3    O     O_3   0.539622 0.566534 0.799307 -0.686052
O4    O     O_3   0.752236 0.502259 0.442381 -0.662423
O5    O     O_2   0.773687 0.039820 0.948802 -0.654086
O6    O     O_R   0.749633 0.187173 0.008032 -0.837581

loop_
_geom_bond_atom_site_label_1
_geom_bond_atom_site_label_2
_ccdc_geom_bond_type
C8    C66   A    
C59   H32   S    
C6    C45   A    
C27   C29   A    
H31   O2    S    
C35   C39   A    
C35   C36   A    
C42   H14   S    
C22   H8    S    
C3    C6    A    
C28   N3    A    
C39   C41   A    
C20   C30   A    
N13   Ni1   S    
C54   N6    A    
N6    Ni4   S    
C26   C27   A    
C62   C63   S    
C5    H51   S    
N4    Ni2   S    
C18   O3    S    
N2    Ni3   S    
N1    N7    A    
C1    C57   A    
C45   H30   S    
C51   H22   S    
N14   Ni4   S    
C30   C31   A    
C64   H44   S    
C62   H40   S    
C10   C17   A    
N12   Ni2   S    
C23   C40   A    
C33   C36   A    
C15   C17   A    
C18   C19   S    
N1    Ni1   S    
C31   O4    S    
C68   N12   A    
C16   N2    A    
N11   Ni4   S    
N9    N15   A    
C44   C53   S    
C18   C58   S    
N9    Ni2   S    
C32   C41   A    
C48   H20   S    
C54   H29   S    
C4    C12   A    
C60   H35   S    
C61   H37   S    
C56   N9    A    
C68   H45   S    
C4    N16   A    
C7    C15   S    
C28   C34   A    
C59   C60   S    
C64   H47   S    
C13   C14   A    
C43   H16   S    
C14   H2    S    
C19   H4    S    
N7    Ni3   S    
C7    C56   A    
C59   O3    S    
N10   Ni3   S    
C55   C65   S    
C2    H49   S    
C44   C46   A    
C50   C51   S    
C1    N1    A    
C20   C29   A    
C40   N4    A    
C67   N11   A    
C2    N13   A    
C64   H46   S    
C25   H10   S    
C59   H33   S    
C37   H18   S    
C19   H5    S    
N16   Ni2   S    
C5    C7    A    
C35   H15   S    
C29   H6    S    
N5    Ni1   S    
C25   C26   A    
N3    Ni4   S    
C33   C37   A    
C28   H25   S    
C51   C53   S    
C47   H19   S    
N15   Ni3   S    
N8    Ni1   S    
C9    C67   A    
C37   C38   A    
C3    H50   S    
N8    N14   A    
C58   O2    S    
C47   C48   A    
C10   C19   S    
C53   H24   S    
C17   C18   S    
C8    C20   S    
C61   H38   S    
C48   C49   A    
C55   N7    A    
C16   C23   A    
C22   C27   A    
C55   C57   A    
C46   C57   S    
C22   C24   A    
N10   N13   A    
C42   C43   A    
C40   H27   S    
C65   O5    D    
N11   N12   A    
C13   H52   S    
C44   C50   A    
C5    N15   A    
C21   C25   A    
C46   C47   A    
C53   H26   S    
C11   C34   S    
C2    C8    A    
C62   O4    S    
C41   H11   S    
C52   N5    A    
C66   H23   S    
C36   H17   S    
C34   C52   A    
C56   H12   S    
C6    C33   S    
C3    N14   A    
C23   C32   S    
C63   H42   S    
C9    C68   A    
C38   C43   A    
C51   H21   S    
H48   O6    S    
C30   H7    S    
C11   C13   A    
C58   O1    D    
C38   C39   A    
C62   H41   S    
C12   C21   S    
C16   H13   S    
C52   H28   S    
C63   H43   S    
C61   H39   S    
C1    H1    S    
N3    N5    A    
C10   C11   A    
N6    N16   A    
C63   C64   S    
C24   H9    S    
C26   C31   A    
C49   C50   A    
C21   C24   A    
C32   C42   A    
C14   C15   A    
C60   C61   S    
C45   N8    A    
C65   O6    S    
C60   H36   S    
N2    N4    A    
C4    H3    S    
C12   C54   A    
C67   H34   S    
C66   N10   A    
