data_mof_unit_51396.cif
_audit_creation_date              2012-12-11T17:02:15-0500
_audit_creation_method            fapswitch 2.2
_symmetry_space_group_name_H-M    P1
_symmetry_Int_Tables_number       1
_space_group_crystal_system       triclinic
_cell_length_a                    21.645381
_cell_length_b                    7.05874
_cell_length_c                    14.842885
_cell_angle_alpha                 89.646455
_cell_angle_beta                  106.004213
_cell_angle_gamma                 89.8633
_cell_volume                      2179.87217379

loop_
_atom_site_label
_atom_site_type_symbol
_atom_type_description
_atom_site_fract_x
_atom_site_fract_y
_atom_site_fract_z
_atom_type_partial_charge
O1    O     O_R   0.585850 0.505770 0.002130 -0.536829
O2    O     O_R   0.414150 0.005770 0.997870 -0.537236
O3    O     O_R   0.467530 0.173560 0.861970 -0.538694
O4    O     O_R   0.532470 0.673560 0.138030 -0.538852
C1    C     C_R   0.455677 0.345219 0.825315 0.684163
C2    C     C_R   0.544416 0.843622 0.174805 0.684133
O5    O     O_R   0.588690 0.175900 0.993250 -0.545357
O6    O     O_R   0.411310 0.675900 0.006750 -0.545275
O7    O     O_R   0.536170 0.007950 0.130090 -0.538256
O8    O     O_R   0.463830 0.507950 0.869910 -0.537753
C3    C     C_R   0.615014 0.344402 0.997605 0.710193
C4    C     C_R   0.384977 0.844698 0.002317 0.711615
O9    O     O_3   0.482630 0.339970 0.044740 -0.373425
O10   O     O_3   0.517370 0.839970 0.955260 -0.373116
V1    V     V_3+5 0.503220 0.064200 0.991700 1.410564
V2    V     V_3+5 0.496780 0.564200 0.008300 1.411252
C5    C     C_R   0.292825 0.994025 0.049628 0.088936
C6    C     C_R   0.706915 0.494796 0.950040 0.087532
C7    C     C_R   0.316728 0.851575 0.003195 -0.173558
C8    C     C_R   0.683245 0.351015 0.996542 -0.169830
C9    C     C_R   0.273363 0.710525 0.958204 -0.175839
C10   C     C_R   0.726937 0.209228 0.041860 -0.177208
H1    H     H_    0.290141 0.596397 0.922392 0.138880
H2    H     H_    0.710388 0.094110 0.077764 0.136033
C11   C     C_R   0.206918 0.724570 0.950153 0.333308
C12   C     C_R   0.793395 0.223684 0.050139 0.333729
C13   C     C_R   0.182984 0.876615 0.994303 -0.196046
C14   C     C_R   0.817053 0.377111 0.005945 -0.191941
C15   C     C_R   0.228113 0.004509 0.046556 0.055299
C16   C     C_R   0.771634 0.505769 0.953316 0.052089
C17   C     C_3   0.228551 0.215944 0.043598 -0.371881
C18   C     C_3   0.770577 0.717151 0.955663 -0.373791
C19   C     C_3   0.299304 0.204057 0.046836 -0.382345
C20   C     C_3   0.699799 0.704745 0.952154 -0.381233
H3    H     H_    0.220173 0.279273 0.107639 0.160007
H4    H     H_    0.778892 0.781693 0.891514 0.158703
H5    H     H_    0.197753 0.273199 0.976310 0.222430
H6    H     H_    0.801086 0.773537 0.022856 0.223387
H7    H     H_    0.331674 0.260129 0.112862 0.165289
H8    H     H_    0.667372 0.761701 0.885859 0.164546
H9    H     H_    0.309462 0.255238 0.981391 0.176218
H10   H     H_    0.689356 0.754751 0.017340 0.177669
C21   C     C_R   0.927375 0.889840 0.723323 -0.031872
C22   C     C_R   0.072782 0.380155 0.276243 -0.027788
C23   C     C_R   0.572303 0.847035 0.276365 -0.030225
C24   C     C_R   0.427532 0.356522 0.724066 -0.026706
C25   C     C_R   0.936765 0.954220 0.567860 -0.160032
C26   C     C_R   0.061184 0.335325 0.431870 -0.159013
C27   C     C_R   0.964854 0.938553 0.663918 -0.171998
C28   C     C_R   0.033674 0.352621 0.335699 -0.174140
C29   C     C_R   0.861503 0.857391 0.686702 -0.209351
C30   C     C_R   0.139518 0.389769 0.312640 -0.208987
C31   C     C_R   0.831186 0.877666 0.589440 0.083417
C32   C     C_R   0.168962 0.371177 0.410118 0.083726
C33   C     C_R   0.870451 0.926254 0.530354 0.134987
C34   C     C_R   0.128191 0.343965 0.469430 0.135498
C35   C     C_R   0.763405 0.855318 0.549291 0.059739
C36   C     C_R   0.237137 0.377652 0.450432 0.059564
C37   C     C_R   0.736237 0.881937 0.450475 0.054003
C38   C     C_R   0.263221 0.357366 0.549749 0.054376
C39   C     C_R   0.777770 0.929049 0.395121 -0.183140
C40   C     C_R   0.220294 0.331036 0.605337 -0.180758
C41   C     C_R   0.843339 0.950055 0.434417 -0.196060
C42   C     C_R   0.154355 0.324571 0.565784 -0.195690
C43   C     C_R   0.721866 0.808303 0.604655 -0.187442
C44   C     C_R   0.280076 0.403365 0.394811 -0.186991
C45   C     C_R   0.656300 0.787193 0.565335 -0.202663
C46   C     C_R   0.346018 0.409826 0.434377 -0.203126
C47   C     C_R   0.629198 0.810820 0.469378 0.141401
C48   C     C_R   0.372167 0.391116 0.530774 0.141587
C49   C     C_R   0.668464 0.859472 0.410306 0.083953
C50   C     C_R   0.331385 0.364281 0.590096 0.084530
C51   C     C_R   0.562898 0.782618 0.431832 -0.163725
C52   C     C_R   0.439168 0.399998 0.568365 -0.163093
C53   C     C_R   0.534827 0.798161 0.335756 -0.172574
C54   C     C_R   0.466656 0.383418 0.664578 -0.175469
C55   C     C_R   0.638160 0.879654 0.313031 -0.211543
C56   C     C_R   0.360804 0.346640 0.687628 -0.210517
H11   H     H_    0.873140 0.987254 0.389060 0.132187
H12   H     H_    0.123436 0.303695 0.611365 0.128821
H13   H     H_    0.664307 0.913671 0.263008 0.094609
H14   H     H_    0.333656 0.327021 0.737795 0.092835
H15   H     H_    0.483978 0.770064 0.307514 0.104739
H16   H     H_    0.518366 0.392296 0.692714 0.103382
H17   H     H_    0.626493 0.750028 0.610688 0.121415
H18   H     H_    0.376950 0.430228 0.388776 0.120819
H19   H     H_    0.966733 0.992374 0.522924 0.114578
H20   H     H_    0.030027 0.313963 0.477025 0.114490
H21   H     H_    0.015719 0.966465 0.692143 0.106079
H22   H     H_    0.981961 0.343767 0.307561 0.103257
H23   H     H_    0.835361 0.823431 0.736738 0.093128
H24   H     H_    0.166648 0.410041 0.262493 0.090958
H25   H     H_    0.761335 0.951863 0.320580 0.133326
H26   H     H_    0.235843 0.314365 0.680301 0.130699
H27   H     H_    0.738295 0.785641 0.679213 0.120942
H28   H     H_    0.264540 0.419281 0.319802 0.120699
H29   H     H_    0.532928 0.744379 0.476752 0.113968
H30   H     H_    0.470340 0.420960 0.523198 0.113793
O11   O     O_R   0.036080 0.231270 0.130120 -0.540984
O12   O     O_R   0.963920 0.731270 0.869880 -0.541292
O13   O     O_R   0.911300 0.558970 0.006750 -0.536656
O14   O     O_R   0.088700 0.058970 0.993250 -0.536748
C57   C     C_R   0.885350 0.389771 0.004490 0.683332
C58   C     C_R   0.114661 0.889533 0.995572 0.683810
O15   O     O_R   0.032450 0.561140 0.138040 -0.538721
O16   O     O_R   0.967550 0.061140 0.861960 -0.539120
O17   O     O_R   0.085870 0.728910 0.002130 -0.534923
O18   O     O_R   0.914130 0.228910 0.997870 -0.533960
C59   C     C_R   0.044615 0.391712 0.175028 0.683228
C60   C     C_R   0.955282 0.893353 0.824855 0.683020
O19   O     O_3   0.017320 0.394650 0.955270 -0.369040
O20   O     O_3   0.982680 0.894650 0.044730 -0.368079
V3    V     V_3+5 0.996780 0.670490 0.008300 1.443628
V4    V     V_3+5 0.003220 0.170490 0.991700 1.443613
O21   O     O_3   0.167246 0.594840 0.893192 -0.656461
H31   H     H_    0.123966 0.651436 0.868359 0.284356
O22   O     O_3   0.833333 0.092691 0.107271 -0.657310
H32   H     H_    0.876447 0.149066 0.132242 0.282197

loop_
_geom_bond_atom_site_label_1
_geom_bond_atom_site_label_2
_ccdc_geom_bond_type
C44   C46   A    
O12   C60   A    
C2    C23   S    
C13   C15   A    
C5    C15   A    
C20   H10   S    
C12   O22   S    
O2    C4    A    
C54   H16   S    
O11   V4    S    
C24   C54   A    
C25   C27   A    
C41   H11   S    
C51   H29   S    
C36   C44   A    
C19   H7    S    
C52   C54   A    
O16   V4    S    
C20   H8    S    
C18   H4    S    
O15   V3    S    
C7    C9    A    
C26   C28   A    
C11   O21   S    
C32   C36   A    
C39   H25   S    
C35   C37   A    
C38   C50   A    
C36   C38   A    
O21   H31   S    
O11   C59   A    
C13   C58   S    
C46   H18   S    
C38   C40   A    
O18   V4    S    
C39   C41   A    
O17   V3    S    
C40   C42   A    
C29   H23   S    
C28   H22   S    
C43   C45   A    
C33   C41   A    
C48   C52   A    
C50   C56   A    
C26   H20   S    
C47   C51   A    
C57   O18   A    
C6    C16   A    
C21   C60   S    
C18   H6    S    
C6    C8    A    
C22   C59   S    
C22   C30   A    
O5    V1    S    
C47   C49   A    
O6    V2    S    
C42   H12   S    
C5    C19   S    
C2    O7    A    
O20   V4    S    
O20   V3    S    
C30   C32   A    
C31   C33   A    
C32   C34   A    
C3    C8    S    
C45   H17   S    
C37   C39   A    
C17   C19   S    
C44   H28   S    
C53   H15   S    
C52   H30   S    
C27   H21   S    
C24   C56   A    
C31   C35   A    
C21   C27   A    
C17   H5    S    
C45   C47   A    
C18   C20   S    
O4    V2    S    
O5    C3    A    
O14   V4    S    
C56   H14   S    
C55   H13   S    
O6    C4    A    
C34   C42   A    
O19   V3    S    
O1    V2    S    
O14   C58   A    
O2    V1    S    
C6    C20   S    
O4    C2    A    
C8    C10   A    
C9    H1    S    
C17   H3    S    
C30   H24   S    
C51   C53   A    
C49   C55   A    
O3    V1    S    
C25   C33   A    
O16   C60   A    
C22   C28   A    
C26   C34   A    
C9    C11   A    
O12   V3    S    
C35   C43   A    
O3    C1    A    
C48   C50   A    
C11   C13   A    
C1    C24   S    
C12   C14   A    
C23   C53   A    
C19   H9    S    
C40   H26   S    
O7    V1    S    
C1    O8    A    
C15   C17   S    
O8    V2    S    
O22   H32   S    
C16   C18   S    
C14   C57   S    
C21   C29   A    
O15   C59   A    
C4    C7    S    
C14   C16   A    
C5    C7    A    
O19   V4    S    
C10   H2    S    
O13   V3    S    
C43   H27   S    
O13   C57   A    
C10   C12   A    
O9    V2    S    
C46   C48   A    
O10   V1    S    
C23   C55   A    
O1    C3    A    
C29   C31   A    
C58   O17   A    
C37   C49   A    
C25   H19   S    
