data_mof_unit_6445.cif
_audit_creation_date              2012-12-10T17:46:14-0500
_audit_creation_method            fapswitch 2.2
_symmetry_space_group_name_H-M    P1
_symmetry_Int_Tables_number       1
_space_group_crystal_system       triclinic
_cell_length_a                    14.148313
_cell_length_b                    10.625213
_cell_length_c                    9.934023
_cell_angle_alpha                 90.106627
_cell_angle_beta                  89.99997
_cell_angle_gamma                 91.556576
_cell_volume                      1492.81649021

loop_
_atom_site_label
_atom_site_type_symbol
_atom_type_description
_atom_site_fract_x
_atom_site_fract_y
_atom_site_fract_z
_atom_type_partial_charge
C1    C     C_R   0.501281 0.260678 0.499920 0.839935
C2    C     C_R   0.428846 0.061699 0.448860 -0.218357
C3    C     C_R   0.428805 0.932919 0.449174 -0.195056
C4    C     C_R   0.329302 0.499708 0.500036 0.864854
C5    C     C_R   0.506932 0.871887 0.499559 -0.094524
C6    C     C_R   0.377363 0.333657 0.139490 -0.114459
C7    C     C_R   0.317144 0.251404 0.069320 -0.194810
C8    C     C_R   0.316946 0.251566 0.930047 -0.183342
C9    C     C_R   0.377020 0.333914 0.860049 -0.106330
C10   C     C_R   0.439739 0.417943 0.927668 0.061887
C11   C     C_R   0.439883 0.417846 0.072066 0.148086
C12   C     C_1   0.772175 0.500532 0.500161 -0.233000
C13   C     C_R   0.557302 0.578990 0.071971 -0.224961
C14   C     C_R   0.558880 0.578131 0.928030 0.534992
C15   C     C_R   0.501524 0.739399 0.499977 0.860062
C16   C     C_R   0.670696 0.500562 0.499994 0.858996
C17   C     C_1   0.227800 0.499600 0.500107 -0.209607
C18   C     C_1   0.142523 0.499644 0.500265 -0.015202
C19   C     C_1   0.042606 0.499855 0.500455 0.000711
C20   C     C_1   0.957335 0.500102 0.500517 -0.000548
C21   C     C_1   0.857432 0.500382 0.500399 -0.022721
C22   C     C_3   0.711869 0.650655 0.887334 0.094365
C23   C     C_R   0.669707 0.137489 0.591066 -0.170384
C24   C     C_3   0.751541 0.769560 0.955215 -0.864715
C25   C     C_R   0.749975 0.074724 0.632447 -0.138420
C26   C     C_R   0.750554 0.943750 0.630150 -0.157688
C27   C     C_R   0.670506 0.875025 0.588004 -0.133847
C28   C     C_R   0.588496 0.937306 0.546121 0.092315
C29   C     C_R   0.588269 0.069208 0.546849 0.096537
C30   C     C_R   0.506841 0.128587 0.499518 -0.078753
H1    H     H_    0.367443 0.109507 0.411261 0.131634
H2    H     H_    0.372287 0.328709 0.246185 0.191266
H3    H     H_    0.269989 0.187546 0.123563 0.144947
H4    H     H_    0.749979 0.638695 0.790605 0.168764
H5    H     H_    0.728192 0.566840 0.950034 0.112416
H6    H     H_    0.721805 0.779798 0.057751 0.245184
H7    H     H_    0.829621 0.764567 0.963349 0.215421
H8    H     H_    0.733849 0.853794 0.895491 0.277121
H9    H     H_    0.269631 0.187824 0.875681 0.146483
H10   H     H_    0.371794 0.328999 0.753333 0.195725
H11   H     H_    0.672604 0.239223 0.592233 0.139091
H12   H     H_    0.812144 0.127893 0.665320 0.140149
H13   H     H_    0.813199 0.895193 0.661139 0.139194
H14   H     H_    0.673972 0.773483 0.586658 0.141970
H15   H     H_    0.367334 0.880489 0.411916 0.147070
H16   H     H_    0.602218 0.644547 0.127245 0.168892
N1    N     N_R   0.499190 0.498800 0.142780 -0.133773
N2    N     N_R   0.499160 0.498720 0.857170 -0.155194
O1    O     O_R   0.500000 0.316780 0.614690 -0.635074
O2    O     O_R   0.499990 0.316750 0.385360 -0.621694
O3    O     O_R   0.373720 0.500010 0.614690 -0.613385
O4    O     O_R   0.373710 0.499990 0.385360 -0.612110
O5    O     O_R   0.500010 0.683250 0.614640 -0.559850
O6    O     O_R   0.500000 0.683220 0.385310 -0.607425
O7    O     O_R   0.626290 0.500010 0.614640 -0.589676
O8    O     O_R   0.626280 0.499990 0.385310 -0.587156
O9    O     O_3   0.614724 0.664361 0.857552 -0.582548
Zn1   Zn    Zn3+2 0.500010 0.500020 0.653130 0.961922
Zn2   Zn    Zn3+2 0.499990 0.499980 0.346870 0.934618

loop_
_geom_bond_atom_site_label_1
_geom_bond_atom_site_label_2
_ccdc_geom_bond_type
C25   H12   S    
C8    C9    A    
C24   H8    S    
O5    Zn1   S    
C16   O8    A    
N2    Zn1   S    
C6    C7    A    
C8    H9    S    
C5    C28   A    
C9    C10   A    
C11   N1    A    
C19   C20   T    
C23   H11   S    
O8    Zn2   S    
C2    C30   A    
C22   O9    S    
C17   C18   T    
C16   O7    A    
C7    C8    A    
O3    Zn1   S    
C13   C14   A    
C22   H5    S    
C7    H3    S    
C26   C27   A    
C24   H6    S    
C1    O1    A    
C4    O4    A    
C4    C17   S    
C15   O5    A    
C28   C29   A    
O4    Zn2   S    
C26   H13   S    
C24   H7    S    
C2    C3    A    
O6    Zn2   S    
C23   C25   A    
C10   N2    A    
C13   H16   S    
C22   H4    S    
C22   C24   S    
C5    C15   S    
C10   C11   A    
O2    Zn2   S    
C4    O3    A    
C29   C30   A    
C15   O6    A    
C23   C29   A    
C27   C28   A    
C20   C21   S    
C18   C19   S    
C1    O2    A    
O7    Zn1   S    
C6    C11   A    
C13   N1    A    
C14   O9    S    
C1    C30   S    
C14   N2    A    
C3    C5    A    
C25   C26   A    
C27   H14   S    
N1    Zn2   S    
C12   C21   T    
C3    H15   S    
C9    H10   S    
O1    Zn1   S    
C12   C16   S    
C2    H1    S    
C6    H2    S    
