data_mof_unit_24183.cif
_audit_creation_date              2012-12-10T17:33:50-0500
_audit_creation_method            fapswitch 2.2
_symmetry_space_group_name_H-M    P1
_symmetry_Int_Tables_number       1
_space_group_crystal_system       triclinic
_cell_length_a                    10.72136
_cell_length_b                    11.954781
_cell_length_c                    12.966059
_cell_angle_alpha                 92.22858
_cell_angle_beta                  88.950648
_cell_angle_gamma                 86.347846
_cell_volume                      1656.88972231

loop_
_atom_site_label
_atom_site_type_symbol
_atom_type_description
_atom_site_fract_x
_atom_site_fract_y
_atom_site_fract_z
_atom_type_partial_charge
C1    C     C_R   0.494743 0.520548 0.700681 0.990569
C2    C     C_R   0.494005 0.444924 0.977549 0.084626
C3    C     C_R   0.515189 0.550975 0.024899 0.087067
C4    C     C_R   0.741805 0.500890 0.505266 0.842310
C5    C     C_R   0.522028 0.559981 0.131366 -0.208757
C6    C     C_R   0.498814 0.360301 0.143052 -0.137633
C7    C     C_R   0.491999 0.349672 0.037632 -0.135382
C8    C     C_R   0.403887 0.955352 0.391551 -0.253790
C9    C     C_R   0.409995 0.839061 0.403124 0.042607
C10   C     C_R   0.538100 0.857233 0.549233 0.000549
C11   C     C_R   0.534475 0.975149 0.541396 0.018356
C12   C     C_3   0.120955 0.496229 0.501188 -0.110882
C13   C     C_R   0.466690 0.024280 0.460563 0.035456
C14   C     C_R   0.463017 0.141623 0.450963 -0.045842
C15   C     C_R   0.587551 0.161867 0.598472 0.095236
C16   C     C_R   0.504853 0.478780 0.299965 0.942244
C17   C     C_R   0.595565 0.045637 0.611213 0.061883
C18   C     C_R   0.257557 0.499044 0.497811 0.969426
C19   C     C_3   0.931292 0.442955 0.606573 -0.298455
C20   C     C_3   0.077145 0.420765 0.594175 -0.237344
C21   C     C_3   0.929735 0.438446 0.406428 -0.370119
C22   C     C_3   0.919980 0.621819 0.509886 -0.406662
C23   C     C_3   0.071345 0.454367 0.391451 0.030210
C24   C     C_3   0.877699 0.499805 0.507455 0.000951
C25   C     C_2   0.863860 0.345930 0.649994 0.982068
C26   C     C_2   0.131495 0.454188 0.699358 0.931126
C27   C     C_2   0.117773 0.295376 0.573772 0.949733
C28   C     C_2   0.139205 0.349968 0.339030 0.956908
C29   C     C_3   0.061278 0.619064 0.523483 -0.363868
C30   C     C_R   0.509374 0.465849 0.189818 -0.055580
C31   C     C_R   0.492890 0.530406 0.812167 -0.118818
C32   C     C_R   0.526211 0.645516 0.965136 0.170963
C33   C     C_R   0.517699 0.633719 0.859145 -0.235031
C34   C     C_R   0.474197 0.436134 0.871922 0.111171
H1    H     H_    0.099964 0.681619 0.472678 0.223210
H2    H     H_    0.350837 0.990973 0.329077 0.163707
H3    H     H_    0.362123 0.785921 0.349516 0.154974
H4    H     H_    0.590245 0.816159 0.609095 0.152016
H5    H     H_    0.909575 0.348860 0.410393 0.264526
H6    H     H_    0.894438 0.663351 0.437153 0.231625
H7    H     H_    0.873002 0.673276 0.574623 0.193451
H8    H     H_    0.080460 0.649943 0.603030 0.221657
H9    H     H_    0.775589 0.286302 0.773503 0.352055
H10   H     H_    0.131145 0.430946 0.852882 0.368946
H11   H     H_    0.233766 0.162590 0.607929 0.352702
H12   H     H_    0.878045 0.469975 0.338640 0.178013
H13   H     H_    0.128367 0.197582 0.267689 0.354595
H14   H     H_    0.534646 0.640199 0.169775 0.188319
H15   H     H_    0.492769 0.286106 0.187873 0.179901
H16   H     H_    0.485247 0.265844 0.005386 0.186065
H17   H     H_    0.531336 0.705981 0.813283 0.199342
H18   H     H_    0.410914 0.180461 0.389689 0.171379
H19   H     H_    0.913030 0.509509 0.668854 0.150549
H20   H     H_    0.630748 0.216293 0.653467 0.165649
I1    I     I_    0.094300 0.577149 0.272837 -0.341882
I2    I     I_    0.559864 0.808537 0.026375 -0.297969
I3    I     I_    0.399853 0.283572 0.811054 -0.253672
I4    I     I_    0.698603 0.985381 0.738220 -0.296214
N1    N     N_R   0.523380 0.207800 0.519350 -0.115929
N2    N     N_R   0.476620 0.792180 0.480650 -0.116597
O1    O     O_R   0.506240 0.421700 0.658830 -0.604131
O2    O     O_R   0.815972 0.356102 0.751287 -0.779329
O3    O     O_2   0.207660 0.525651 0.707961 -0.654102
O4    O     O_R   0.091548 0.401650 0.787616 -0.724624
O5    O     O_2   0.066013 0.238095 0.509748 -0.579497
O6    O     O_R   0.215472 0.244726 0.628780 -0.739806
O7    O     O_2   0.251182 0.348573 0.319469 -0.650137
O8    O     O_R   0.072558 0.259696 0.303213 -0.749204
O9    O     O_R   0.491240 0.609310 0.646410 -0.630636
O10   O     O_R   0.692710 0.406190 0.506230 -0.607802
O11   O     O_R   0.677700 0.593810 0.493810 -0.632368
O12   O     O_R   0.508760 0.390690 0.353590 -0.606260
O13   O     O_R   0.493760 0.578300 0.341170 -0.637538
O14   O     O_R   0.322300 0.406190 0.506190 -0.590768
O15   O     O_R   0.307290 0.593810 0.493770 -0.608623
O16   O     O_2   0.850368 0.260425 0.597797 -0.572652
Zn1   Zn    Zn3+2 0.510020 0.374730 0.508290 1.031254
Zn2   Zn    Zn3+2 0.489980 0.625270 0.491710 0.980510

loop_
_geom_bond_atom_site_label_1
_geom_bond_atom_site_label_2
_ccdc_geom_bond_type
C8    C13   A    
C22   C29   S    
C29   H8    S    
C2    C7    A    
C16   O12   A    
N1    Zn1   S    
C4    O10   A    
H10   O4    S    
C14   N1    A    
C12   C23   S    
N2    Zn2   S    
C18   O15   A    
C28   O8    S    
C21   H12   S    
C4    C24   S    
C22   H7    S    
C16   C30   S    
C1    C31   S    
C8    H2    S    
C26   O4    S    
C14   H18   S    
C19   C20   S    
O1    Zn1   S    
C8    C9    A    
O14   Zn1   S    
C34   I3    S    
O13   Zn2   S    
C31   C33   A    
C17   I4    S    
C19   H19   S    
C18   O14   A    
C13   C14   A    
O10   Zn1   S    
O9    Zn2   S    
C5    H14   S    
C16   O13   A    
C15   H20   S    
C28   O7    D    
C1    O9    A    
C10   N2    A    
C26   O3    D    
O12   Zn1   S    
C27   O5    D    
C21   H5    S    
C22   H6    S    
C12   C20   S    
C9    H3    S    
C31   C34   A    
C23   C28   S    
C6    C30   A    
C21   C23   S    
C22   C24   S    
H13   O8    S    
C5    C30   A    
C15   C17   A    
C11   C17   A    
C15   N1    A    
C7    H16   S    
C3    C5    A    
C12   C29   S    
C1    O1    A    
C23   I1    S    
C6    C7    A    
C20   C27   S    
C33   H17   S    
C29   H1    S    
C10   H4    S    
C25   O16   D    
C32   C33   A    
C9    N2    A    
C19   C24   S    
C27   O6    S    
C11   C13   A    
C2    C34   A    
C20   C26   S    
C2    C3    A    
C25   O2    S    
O11   Zn2   S    
C6    H15   S    
C3    C32   A    
C19   C25   S    
O15   Zn2   S    
C10   C11   A    
C21   C24   S    
C12   C18   S    
H11   O6    S    
C32   I2    S    
C4    O11   A    
H9    O2    S    
