data_mof_unit_55310.cif
_audit_creation_date              2012-12-10T17:48:44-0500
_audit_creation_method            fapswitch 2.2
_symmetry_space_group_name_H-M    P1
_symmetry_Int_Tables_number       1
_space_group_crystal_system       triclinic
_cell_length_a                    15.732086
_cell_length_b                    10.681878
_cell_length_c                    9.892789
_cell_angle_alpha                 88.947856
_cell_angle_beta                  89.991138
_cell_angle_gamma                 91.712783
_cell_volume                      1661.4422716

loop_
_atom_site_label
_atom_site_type_symbol
_atom_type_description
_atom_site_fract_x
_atom_site_fract_y
_atom_site_fract_z
_atom_type_partial_charge
C1    C     C_R   0.504131 0.259296 0.502158 0.859120
C2    C     C_3   0.950277 0.464487 0.641766 -0.479245
C3    C     C_3   0.917614 0.499901 0.498504 0.182290
C4    C     C_3   0.953606 0.633301 0.459907 0.316476
C5    C     C_3   0.052148 0.631474 0.457657 -0.462223
C6    C     C_1   0.825970 0.500021 0.499589 -0.012013
C7    C     C_1   0.174143 0.500009 0.500100 -0.070267
C8    C     C_1   0.249465 0.499867 0.500194 -0.184728
C9    C     C_R   0.506786 0.101278 0.760572 -0.172425
C10   C     C_R   0.476636 0.036920 0.875162 -0.217790
C11   C     C_R   0.427458 0.927652 0.862153 -0.279288
C12   C     C_R   0.338342 0.499695 0.500094 0.916117
C13   C     C_R   0.415688 0.873444 0.733447 0.566499
C14   C     C_R   0.458087 0.931798 0.620386 -0.002130
C15   C     C_R   0.489940 0.054917 0.629943 0.025442
C16   C     C_R   0.504122 0.124313 0.507280 -0.087562
C17   C     C_R   0.504143 0.064089 0.382964 -0.219218
C18   C     C_R   0.492111 0.937058 0.378936 -0.236225
C19   C     C_R   0.473369 0.869957 0.497951 -0.094648
C20   C     C_R   0.387441 0.336724 0.143075 -0.159572
C21   C     C_R   0.331858 0.256929 0.074065 -0.216596
C22   C     C_R   0.331823 0.257340 0.934206 -0.187143
C23   C     C_R   0.489288 0.738235 0.499101 0.934188
C24   C     C_R   0.387650 0.337135 0.862579 -0.156911
C25   C     C_R   0.444658 0.419565 0.929095 0.139142
C26   C     C_R   0.444615 0.419537 0.073808 0.161190
C27   C     C_R   0.552587 0.577524 0.069995 -0.129301
C28   C     C_R   0.552563 0.577490 0.926755 -0.117576
C29   C     C_R   0.661681 0.500320 0.499941 0.905045
C30   C     C_3   0.048327 0.465254 0.642315 -0.416768
C31   C     C_3   0.047738 0.403122 0.397715 -0.461187
C32   C     C_3   0.949137 0.403042 0.395208 0.431170
C33   C     C_1   0.750623 0.500168 0.499916 -0.171370
C34   C     C_3   0.082708 0.500032 0.499563 0.239664
H1    H     H_    0.924896 0.370149 0.673676 0.231751
H2    H     H_    0.073011 0.533946 0.717117 0.175714
H3    H     H_    0.515776 0.114489 0.288355 0.171793
H4    H     H_    0.545962 0.184160 0.777311 0.183548
H5    H     H_    0.400749 0.886181 0.953733 0.139387
H6    H     H_    0.500552 0.891282 0.283185 0.169757
H7    H     H_    0.595495 0.640844 0.122643 0.150423
H8    H     H_    0.070345 0.371192 0.674443 0.188975
H9    H     H_    0.383447 0.330515 0.250279 0.205732
H10   H     H_    0.288677 0.194167 0.129648 0.148118
H11   H     H_    0.288904 0.194526 0.880689 0.150903
H12   H     H_    0.384932 0.330272 0.755539 0.205431
H13   H     H_    0.072668 0.425906 0.294547 0.137977
H14   H     H_    0.070250 0.308330 0.426060 0.198217
H15   H     H_    0.927869 0.434428 0.292472 0.107855
H16   H     H_    0.078299 0.702994 0.528130 0.149183
H17   H     H_    0.076620 0.657001 0.354851 0.202515
H18   H     H_    0.933462 0.697786 0.541126 0.084274
N1    N     N_R   0.499210 0.498800 0.142780 -0.120873
N2    N     N_R   0.499180 0.498720 0.857170 -0.120364
O1    O     O_R   0.500000 0.316780 0.614690 -0.654107
O2    O     O_R   0.499990 0.316750 0.385360 -0.641328
O3    O     O_R   0.377150 0.500020 0.614720 -0.612670
O4    O     O_R   0.377140 0.499990 0.385380 -0.640626
O5    O     O_R   0.500010 0.683250 0.614640 -0.587343
O6    O     O_R   0.500000 0.683220 0.385310 -0.636068
O7    O     O_R   0.622860 0.500010 0.614620 -0.619384
O8    O     O_R   0.622850 0.499980 0.385280 -0.604004
Zn1   Zn    Zn3+2 0.500010 0.500020 0.653130 0.945905
Zn2   Zn    Zn3+2 0.499990 0.499980 0.346870 0.933371
H19   H     H_    0.927672 0.532223 0.717051 0.163910
O9    O     O_3   0.922326 0.670585 0.331053 -0.608646
C35   C     C_3   0.916660 0.802094 0.322246 -0.346408
H20   H     H_    0.978582 0.850071 0.345362 0.161482
H21   H     H_    0.866101 0.834827 0.390574 0.166178
H22   H     H_    0.898997 0.828740 0.217290 0.193065
H23   H     H_    0.488880 0.074564 0.974430 0.169132
O10   O     O_3   0.361442 0.770001 0.708498 -0.610096
C36   C     C_3   0.319323 0.719460 0.823844 -0.280546
H24   H     H_    0.277922 0.639357 0.792292 0.195558
H25   H     H_    0.277336 0.789246 0.869373 0.141127
H26   H     H_    0.365490 0.682352 0.898434 0.165285
H27   H     H_    0.595410 0.640852 0.871521 0.149504
O11   O     O_3   0.915366 0.281834 0.430055 -0.599034
C37   C     C_3   0.906050 0.208113 0.313791 -0.369421
H28   H     H_    0.966894 0.203140 0.257059 0.155687
H29   H     H_    0.855235 0.244658 0.247082 0.172774
H30   H     H_    0.886689 0.111342 0.345797 0.194234

loop_
_geom_bond_atom_site_label_1
_geom_bond_atom_site_label_2
_ccdc_geom_bond_type
C2    H1    S    
C36   H24   S    
C3    C6    S    
C7    C8    T    
C23   O5    A    
C4    H18   S    
C1    O2    A    
N1    Zn2   S    
N2    Zn1   S    
C15   C16   A    
C29   C33   S    
C18   C19   A    
O7    Zn1   S    
C18   H6    S    
O8    Zn2   S    
C16   C17   A    
O1    Zn1   S    
O2    Zn2   S    
C9    C10   A    
C12   O4    A    
C10   H23   S    
C2    H19   S    
O9    C35   S    
C31   H13   S    
C13   C14   A    
C36   H25   S    
O6    Zn2   S    
O3    Zn1   S    
O4    Zn2   S    
C23   O6    A    
C29   O7    A    
C30   C34   S    
C35   H20   S    
C25   N2    A    
C37   H29   S    
C28   N2    A    
O11   C37   S    
O10   C36   S    
C25   C26   A    
C35   H21   S    
C19   C23   S    
C21   H10   S    
C27   H7    S    
C31   C32   S    
C8    C12   S    
C5    C34   S    
C17   C18   A    
C31   C34   S    
C1    C16   S    
C17   H3    S    
C24   C25   A    
C11   H5    S    
C28   H27   S    
C12   O3    A    
C31   H14   S    
C36   H26   S    
C22   C24   A    
C5    H16   S    
C3    C4    S    
C26   N1    A    
C20   H9    S    
C29   O8    A    
C14   C19   A    
C5    H17   S    
C4    C5    S    
C37   H30   S    
C27   N1    A    
C13   O10   S    
O5    Zn1   S    
C6    C33   T    
C30   H2    S    
C2    C30   S    
C35   H22   S    
C24   H12   S    
C2    C3    S    
C1    O1    A    
C4    O9    S    
C11   C13   A    
C20   C26   A    
C9    H4    S    
C7    C34   S    
C9    C15   A    
C3    C32   S    
C32   H15   S    
C10   C11   A    
C32   O11   S    
C37   H28   S    
C22   H11   S    
C20   C21   A    
C27   C28   A    
C14   C15   A    
C30   H8    S    
C21   C22   A    
