data_mof_unit_17487.cif
_audit_creation_date              2012-12-10T20:34:53-0500
_audit_creation_method            fapswitch 2.2
_symmetry_space_group_name_H-M    P1
_symmetry_Int_Tables_number       1
_space_group_crystal_system       triclinic
_cell_length_a                    10.617863
_cell_length_b                    10.64775
_cell_length_c                    9.886165
_cell_angle_alpha                 89.684681
_cell_angle_beta                  90.165399
_cell_angle_gamma                 90.192486
_cell_volume                      1117.66590725

loop_
_atom_site_label
_atom_site_type_symbol
_atom_type_description
_atom_site_fract_x
_atom_site_fract_y
_atom_site_fract_z
_atom_type_partial_charge
C1    C     C_R   0.501369 0.260479 0.499978 0.895173
C2    C     C_3   0.878453 0.510621 0.499919 0.177908
C3    C     C_3   0.928146 0.585395 0.623651 -0.410278
C4    C     C_3   0.926365 0.576630 0.369235 -0.462136
C5    C     C_R   0.596831 0.063942 0.569651 0.072517
C6    C     C_R   0.505923 0.128809 0.496272 -0.027206
C7    C     C_R   0.428661 0.065444 0.403807 -0.203662
C8    C     C_R   0.428679 0.935672 0.403214 -0.198365
C9    C     C_R   0.504265 0.871378 0.496607 -0.052581
C10   C     C_R   0.593356 0.936050 0.572897 0.073225
C11   C     C_3   0.636524 0.930080 0.717485 -0.240158
C12   C     C_R   0.258076 0.506959 0.499804 0.852623
C13   C     C_3   0.642631 0.073500 0.712213 -0.480963
C14   C     C_R   0.389872 0.488105 0.071202 0.289281
C15   C     C_R   0.607102 0.523936 0.071938 -0.138879
C16   C     C_R   0.607057 0.524153 0.928257 -0.169874
C17   C     C_R   0.390016 0.486616 0.928973 0.152934
C18   C     C_3   0.298223 0.379293 0.926122 -0.290175
C19   C     C_3   0.298367 0.381966 0.080068 -0.599257
C20   C     C_R   0.500320 0.739584 0.499639 0.858674
C21   C     C_R   0.742042 0.506147 0.500097 0.829511
C22   C     C_3   0.072290 0.375178 0.506280 -0.409515
C23   C     C_3   0.928032 0.374328 0.506061 -0.408339
C24   C     C_3   0.072307 0.584589 0.624588 -0.393633
C25   C     C_3   0.070799 0.575635 0.366641 -0.127968
C26   C     C_3   0.121476 0.512188 0.499186 0.077073
H1    H     H_    0.107363 0.327841 0.599756 0.212234
H2    H     H_    0.888375 0.674027 0.364204 0.156269
H3    H     H_    0.109259 0.682365 0.626028 0.166530
H4    H     H_    0.893526 0.683941 0.619404 0.155128
H5    H     H_    0.364413 0.115753 0.337697 0.153047
H6    H     H_    0.365234 0.886144 0.336022 0.202441
H7    H     H_    0.730537 0.885385 0.728430 0.111608
H8    H     H_    0.575165 0.122014 0.778937 0.227670
H9    H     H_    0.740495 0.110646 0.717271 0.175323
H10   H     H_    0.694101 0.541563 0.125617 0.148363
H11   H     H_    0.107289 0.320478 0.418403 0.165424
H12   H     H_    0.693945 0.542124 0.874788 0.146999
H13   H     H_    0.206054 0.406122 0.881159 0.174360
H14   H     H_    0.206383 0.411462 0.121429 0.203602
H15   H     H_    0.339345 0.297812 0.130709 0.200980
H16   H     H_    0.893005 0.320159 0.417468 0.168551
H17   H     H_    0.893256 0.326130 0.599070 0.171675
H18   H     H_    0.104804 0.538650 0.719645 0.192027
H19   H     H_    0.893923 0.542816 0.719909 0.182359
H20   H     H_    0.099036 0.517001 0.279326 0.166674
H21   H     H_    0.891349 0.526826 0.277693 0.176661
N1    N     N_R   0.499150 0.499140 0.142800 -0.105328
N2    N     N_R   0.499150 0.499180 0.857150 -0.120909
O1    O     O_R   0.500020 0.316790 0.614690 -0.599055
O2    O     O_R   0.500000 0.316760 0.385350 -0.632155
O3    O     O_R   0.314800 0.500000 0.614670 -0.614715
O4    O     O_R   0.314790 0.499960 0.385330 -0.606983
O5    O     O_R   0.500000 0.683240 0.614650 -0.613234
O6    O     O_R   0.499980 0.683210 0.385310 -0.604864
O7    O     O_R   0.685210 0.500040 0.614670 -0.643216
O8    O     O_R   0.685200 0.500000 0.385330 -0.635491
Zn1   Zn    Zn3+2 0.500010 0.500020 0.653130 0.954647
Zn2   Zn    Zn3+2 0.499990 0.499980 0.346870 0.961357
C27   C     C_2   0.539874 0.880187 0.815840 0.514565
H22   H     H_    0.568207 0.812437 0.892308 0.040972
O9    O     O_2   0.430445 0.915152 0.811361 -0.530330
C28   C     C_2   0.351376 0.259588 0.871516 0.569990
H23   H     H_    0.438113 0.222302 0.913235 0.036495
O10   O     O_2   0.296265 0.202776 0.782164 -0.559574
C29   C     C_2   0.122430 0.706552 0.343311 0.370891
H24   H     H_    0.103016 0.781157 0.414471 0.066902
O11   O     O_2   0.185131 0.729846 0.242891 -0.573821

loop_
_geom_bond_atom_site_label_1
_geom_bond_atom_site_label_2
_ccdc_geom_bond_type
C17   C18   S    
C13   H8    S    
C3    H4    S    
C29   O11   D    
C18   H13   S    
C28   O10   D    
C21   O8    A    
C6    C7    A    
O6    Zn2   S    
C8    C9    A    
C21   O7    A    
C11   C13   S    
C1    O1    A    
C9    C20   S    
C2    C4    S    
C12   O4    A    
C10   C11   S    
C2    C21   S    
C29   H24   S    
O4    Zn2   S    
C23   H17   S    
C5    C10   A    
C1    O2    A    
C14   C17   A    
C19   H15   S    
C3    C24   S    
C23   H16   S    
O3    Zn1   S    
C15   N1    A    
C20   O6    A    
C14   C19   S    
C20   O5    A    
C4    H2    S    
O7    Zn1   S    
C2    C3    S    
C22   H1    S    
O5    Zn1   S    
C5    C6    A    
C24   H18   S    
C18   C28   S    
O8    Zn2   S    
C7    H5    S    
C19   H14   S    
N2    Zn1   S    
C28   H23   S    
C22   C26   S    
C15   C16   A    
O1    Zn1   S    
C4    C25   S    
C15   H10   S    
C11   H7    S    
O2    Zn2   S    
C16   N2    A    
N1    Zn2   S    
C27   O9    D    
C7    C8    A    
C9    C10   A    
C12   C26   S    
C2    C23   S    
C24   H3    S    
C18   C19   S    
C14   N1    A    
C1    C6    S    
C12   O3    A    
C25   C26   S    
C22   C23   S    
C22   H11   S    
C5    C13   S    
C25   H20   S    
C3    H19   S    
C13   H9    S    
C17   N2    A    
C25   C29   S    
C11   C27   S    
C16   H12   S    
C27   H22   S    
C24   C26   S    
C4    H21   S    
C8    H6    S    
