data_mof_unit_6546.cif
_audit_creation_date              2012-12-10T20:35:54-0500
_audit_creation_method            fapswitch 2.2
_symmetry_space_group_name_H-M    P1
_symmetry_Int_Tables_number       1
_space_group_crystal_system       triclinic
_cell_length_a                    15.703543
_cell_length_b                    10.672583
_cell_length_c                    9.916057
_cell_angle_alpha                 89.822605
_cell_angle_beta                  91.033627
_cell_angle_gamma                 89.825076
_cell_volume                      1661.61861324

loop_
_atom_site_label
_atom_site_type_symbol
_atom_type_description
_atom_site_fract_x
_atom_site_fract_y
_atom_site_fract_z
_atom_type_partial_charge
C1    C     C_R   0.498676 0.260286 0.500088 0.879088
C2    C     C_R   0.488723 0.128752 0.500024 -0.094756
C3    C     C_R   0.472127 0.065258 0.378717 -0.232135
C4    C     C_R   0.338473 0.501486 0.498742 0.894052
C5    C     C_R   0.471105 0.935809 0.378649 -0.237946
C6    C     C_R   0.486184 0.871195 0.500115 -0.079097
C7    C     C_R   0.487590 0.935792 0.621824 0.086726
C8    C     C_3   0.543283 0.923351 0.745381 -0.480143
C9    C     C_3   0.549466 0.066105 0.743788 -0.050153
C10   C     C_R   0.428364 0.468631 0.068605 0.131511
C11   C     C_R   0.572634 0.521436 0.073658 -0.126306
C12   C     C_3   0.955417 0.452197 0.632193 -0.538612
C13   C     C_R   0.572539 0.522077 0.930187 -0.147897
C14   C     C_R   0.429055 0.464839 0.926759 0.181239
C15   C     C_3   0.343097 0.523360 0.913938 -0.502369
C16   C     C_R   0.497753 0.739722 0.499848 0.873977
C17   C     C_3   0.343006 0.532835 0.067477 -0.087637
C18   C     C_R   0.661575 0.499628 0.501130 0.900167
C19   C     C_3   0.053772 0.453117 0.629511 0.385879
C20   C     C_3   0.048193 0.413313 0.375952 0.175521
C21   C     C_3   0.946405 0.409375 0.377444 0.856726
C22   C     C_1   0.750474 0.498942 0.503605 -0.203103
C23   C     C_3   0.917459 0.498248 0.494802 0.105598
C24   C     C_3   0.082698 0.502290 0.490384 0.016399
C25   C     C_3   0.640675 0.118523 0.726658 -0.344106
C26   C     C_3   0.687667 0.078053 0.599499 -0.841465
C27   C     C_3   0.116717 0.311355 0.785194 0.065272
C28   C     C_3   0.180740 0.203484 0.785528 -0.291833
C29   C     C_3   0.208135 0.167572 0.928569 -1.025853
C30   C     C_3   0.344747 0.669527 0.117470 -0.307019
C31   C     C_3   0.256259 0.728755 0.107636 -0.912618
C32   C     C_3   0.144300 0.255962 0.306161 0.078689
C33   C     C_3   0.193568 0.145285 0.367441 -0.267199
C34   C     C_3   0.947361 0.634791 0.469444 -0.612865
C35   C     C_3   0.258708 0.092670 0.270729 -1.004577
C36   C     C_3   0.911590 0.198261 0.310512 0.196836
C37   C     C_3   0.819866 0.187885 0.256305 -0.363341
C38   C     C_3   0.813158 0.092194 0.142608 -1.000719
C39   C     C_3   0.941229 0.445867 0.132446 0.010872
C40   C     C_3   0.964521 0.577693 0.083337 -0.323725
C41   C     C_3   0.041095 0.574721 0.992214 -1.040523
C42   C     C_3   0.064407 0.764094 0.661555 0.106557
C43   C     C_3   0.030660 0.898575 0.665230 -0.314573
C44   C     C_3   0.011553 0.939437 0.808991 -0.993275
C45   C     C_3   0.046062 0.636416 0.461567 0.213446
C46   C     C_1   0.825819 0.498508 0.502368 0.075898
C47   C     C_1   0.174373 0.505629 0.490798 0.043671
C48   C     C_1   0.249696 0.504714 0.494767 -0.203298
C49   C     C_R   0.491670 0.062964 0.621182 0.114198
H1    H     H_    0.932025 0.356556 0.656472 0.239080
H2    H     H_    0.631014 0.542063 0.128451 0.161304
H3    H     H_    0.630716 0.543457 0.878311 0.149872
H4    H     H_    0.344376 0.614450 0.859127 0.220770
H5    H     H_    0.295326 0.456093 0.873689 0.180547
H6    H     H_    0.293375 0.473890 0.114912 0.155351
H7    H     H_    0.071772 0.455297 0.281255 0.008061
H8    H     H_    0.059809 0.655400 0.354097 0.128287
H9    H     H_    0.921677 0.697743 0.547494 0.202112
H10   H     H_    0.691096 0.974756 0.590299 0.252349
H11   H     H_    0.657048 0.117856 0.507437 0.249459
H12   H     H_    0.078660 0.520270 0.705123 0.042932
H13   H     H_    0.753875 0.114236 0.604881 0.244515
H14   H     H_    0.637686 0.222465 0.728165 0.219910
H15   H     H_    0.679545 0.089474 0.816228 0.199923
H16   H     H_    0.062126 0.287582 0.850376 0.140652
H17   H     H_    0.150704 0.394280 0.827174 0.118946
H18   H     H_    0.151950 0.120738 0.735451 0.237805
H19   H     H_    0.237725 0.231661 0.727896 0.212611
H20   H     H_    0.237209 0.248961 0.981442 0.263043
H21   H     H_    0.255756 0.090562 0.925269 0.273237
H22   H     H_    0.152084 0.134677 0.985286 0.264067
H23   H     H_    0.933119 0.514004 0.714582 0.142924
H24   H     H_    0.232120 0.728494 0.001655 0.264348
H25   H     H_    0.211230 0.676601 0.172087 0.264454
H26   H     H_    0.259465 0.827098 0.143139 0.256315
H27   H     H_    0.366376 0.672944 0.224076 0.247409
H28   H     H_    0.390145 0.726483 0.058239 0.195709
H29   H     H_    0.189996 0.333429 0.287574 0.126678
H30   H     H_    0.114054 0.227735 0.208809 0.117585
H31   H     H_    0.226976 0.176365 0.461285 0.220014
H32   H     H_    0.148301 0.069672 0.394370 0.229758
H33   H     H_    0.225870 0.052108 0.181327 0.271535
H34   H     H_    0.918928 0.671036 0.373559 0.195623
H35   H     H_    0.295344 0.016648 0.321850 0.280812
H36   H     H_    0.303339 0.167086 0.238468 0.269097
H37   H     H_    0.929842 0.106109 0.354942 0.153643
H38   H     H_    0.957201 0.213866 0.228882 0.108326
H39   H     H_    0.777731 0.158810 0.339478 0.223025
H40   H     H_    0.796815 0.279861 0.217884 0.255309
H41   H     H_    0.853481 0.120966 0.057006 0.262090
H42   H     H_    0.746019 0.086087 0.106149 0.269983
H43   H     H_    0.833846 0.998239 0.179208 0.268473
H44   H     H_    0.894165 0.406548 0.059219 0.157713
H45   H     H_    0.464648 0.114449 0.283499 0.175762
H46   H     H_    0.995665 0.380050 0.128302 0.113794
H47   H     H_    0.909254 0.619551 0.027652 0.207694
H48   H     H_    0.979637 0.640052 0.168903 0.218388
H49   H     H_    0.098528 0.540724 0.048349 0.267741
H50   H     H_    0.053778 0.670020 0.952471 0.270213
H51   H     H_    0.026940 0.510538 0.908133 0.253845
H52   H     H_    0.121759 0.757048 0.728475 0.150536
H53   H     H_    0.016251 0.700649 0.704071 0.124598
H54   H     H_    0.078631 0.962499 0.621686 0.230190
H55   H     H_    0.971539 0.906121 0.602451 0.216259
H56   H     H_    0.463401 0.887338 0.283383 0.168516
H57   H     H_    0.961868 0.878440 0.852738 0.265714
H58   H     H_    0.988041 0.037694 0.808075 0.275378
H59   H     H_    0.070145 0.934281 0.873273 0.267584
H60   H     H_    0.507131 0.887153 0.832599 0.176713
H61   H     H_    0.603432 0.871695 0.727198 0.207897
H62   H     H_    0.516934 0.108865 0.831240 0.133626
N1    N     N_R   0.499430 0.499140 0.142800 -0.112952
N2    N     N_R   0.499430 0.499180 0.857150 -0.102484
O1    O     O_R   0.500010 0.316790 0.614690 -0.623363
O2    O     O_3   0.080411 0.290009 0.397512 -0.568357
O3    O     O_3   0.916812 0.287527 0.415466 -0.640849
O4    O     O_3   0.901153 0.454030 0.258939 -0.699294
O5    O     O_3   0.089911 0.735994 0.528817 -0.622975
O6    O     O_R   0.500000 0.316760 0.385350 -0.620689
O7    O     O_R   0.377150 0.500020 0.614720 -0.613210
O8    O     O_R   0.377140 0.499990 0.385380 -0.634460
O9    O     O_R   0.500000 0.683240 0.614650 -0.613773
O10   O     O_R   0.499990 0.683210 0.385310 -0.637217
O11   O     O_R   0.622860 0.500010 0.614620 -0.629290
O12   O     O_R   0.622850 0.499980 0.385280 -0.609760
O13   O     O_3   0.086486 0.330163 0.651610 -0.565909
Zn1   Zn    Zn3+2 0.500010 0.500020 0.653130 0.931289
Zn2   Zn    Zn3+2 0.499990 0.499980 0.346870 0.928010

loop_
_geom_bond_atom_site_label_1
_geom_bond_atom_site_label_2
_ccdc_geom_bond_type
C45   O5    S    
C9    H62   S    
C11   C13   A    
C37   H39   S    
C20   H7    S    
O7    Zn1   S    
C9    C25   S    
C7    C8    S    
C5    H56   S    
C12   C23   S    
C45   H8    S    
C24   C45   S    
C15   H4    S    
C36   C37   S    
C28   H19   S    
C16   O10   A    
C18   O12   A    
C25   H14   S    
C30   C31   S    
C27   O13   S    
C31   H24   S    
C10   C17   S    
C38   H43   S    
C1    C2    S    
C1    O6    A    
O9    Zn1   S    
C16   O9    A    
C43   H55   S    
C39   H44   S    
C21   O4    S    
C30   H28   S    
C20   C24   S    
C42   C43   S    
C8    C9    S    
O12   Zn2   S    
C41   H50   S    
C10   N1    A    
C26   H10   S    
C17   H6    S    
O6    Zn2   S    
C12   H23   S    
C23   C46   S    
C17   C30   S    
C40   H47   S    
C21   O3    S    
C42   H53   S    
C35   H33   S    
C29   H20   S    
C44   H59   S    
C36   H38   S    
C15   H5    S    
C28   H18   S    
C9    C49   S    
C7    C49   A    
O8    Zn2   S    
C10   C14   A    
C40   H48   S    
C42   O5    S    
C31   H25   S    
C36   H37   S    
C25   C26   S    
C39   O4    S    
C32   H29   S    
C38   H42   S    
C25   H15   S    
C43   C44   S    
C37   C38   S    
C27   H16   S    
C2    C49   A    
C8    H61   S    
C13   H3    S    
C30   H27   S    
C31   H26   S    
C47   C48   T    
C14   C15   S    
C23   C34   S    
C41   H51   S    
C34   C45   S    
C39   H46   S    
O11   Zn1   S    
C40   C41   S    
C22   C46   T    
C21   C23   S    
C1    O1    A    
C36   O3    S    
C42   H52   S    
C39   C40   S    
C29   H21   S    
C4    C48   S    
C44   H58   S    
C15   C17   S    
C28   C29   S    
C11   N1    A    
C18   C22   S    
C24   C47   S    
C3    C5    A    
C20   O2    S    
C12   H1    S    
C35   H35   S    
C33   H31   S    
C6    C7    A    
N2    Zn1   S    
C44   H57   S    
C14   N2    A    
C38   H41   S    
C19   O13   S    
C37   H40   S    
C32   C33   S    
C2    C3    A    
C26   H13   S    
C27   H17   S    
C8    H60   S    
C32   H30   S    
O1    Zn1   S    
C35   H36   S    
O10   Zn2   S    
C5    C6    A    
C26   H11   S    
C19   H12   S    
C12   C19   S    
C33   C35   S    
C4    O8    A    
C19   C24   S    
C3    H45   S    
C32   O2    S    
C43   H54   S    
N1    Zn2   S    
C11   H2    S    
C6    C16   S    
C20   C21   S    
C34   H34   S    
C27   C28   S    
C34   H9    S    
C41   H49   S    
C4    O7    A    
C33   H32   S    
C13   N2    A    
C18   O11   A    
C29   H22   S    
