data_mof_unit_13064.cif
_audit_creation_date              2012-12-11T14:42:07-0500
_audit_creation_method            fapswitch 2.2
_symmetry_space_group_name_H-M    P1
_symmetry_Int_Tables_number       1
_space_group_crystal_system       triclinic
_cell_length_a                    18.865693
_cell_length_b                    11.047647
_cell_length_c                    18.769752
_cell_angle_alpha                 90.028678
_cell_angle_beta                  90.3495
_cell_angle_gamma                 90.118674
_cell_volume                      3911.93849192

loop_
_atom_site_label
_atom_site_type_symbol
_atom_type_description
_atom_site_fract_x
_atom_site_fract_y
_atom_site_fract_z
_atom_type_partial_charge
C1    C     C_R   0.727691 0.956739 0.853949 0.571845
C2    C     C_R   0.272730 0.958102 0.145306 0.571513
C3    C     C_R   0.213497 0.491548 0.861706 0.587787
C4    C     C_R   0.772058 0.456469 0.146353 0.571848
C5    C     C_R   0.697317 0.482059 0.035741 0.230915
C6    C     C_R   0.290454 0.512922 0.971932 0.213206
C7    C     C_R   0.199026 0.987860 0.033457 0.224899
C8    C     C_R   0.802779 0.981109 0.964604 0.223631
C9    C     C_R   0.751947 0.421649 0.074338 -0.020331
C10   C     C_R   0.231677 0.461332 0.934818 -0.020779
C11   C     C_R   0.255327 0.929870 0.071185 -0.025460
C12   C     C_R   0.746362 0.923954 0.926776 -0.022800
C13   C     C_R   0.799303 0.346967 0.038996 -0.154208
C14   C     C_R   0.183356 0.388998 0.970668 -0.158668
C15   C     C_R   0.307237 0.867719 0.033617 -0.139792
C16   C     C_R   0.696208 0.855948 0.963289 -0.146046
C17   C     C_R   0.798235 0.340936 0.966577 -0.190988
C18   C     C_R   0.188838 0.373872 0.042229 -0.197362
C19   C     C_R   0.307665 0.870204 0.960958 -0.178807
C20   C     C_R   0.696941 0.852956 0.035812 -0.184437
C21   C     C_R   0.746992 0.402727 0.926586 -0.021192
C22   C     C_R   0.246795 0.420959 0.079952 -0.018016
C23   C     C_R   0.250363 0.916941 0.922836 -0.021139
C24   C     C_R   0.751528 0.908135 0.074774 -0.020122
C25   C     C_R   0.494149 0.273137 0.536034 -0.147743
C26   C     C_R   0.505111 0.273475 0.464261 -0.147584
C27   C     C_R   0.994100 0.773141 0.536058 -0.147787
C28   C     C_R   0.005065 0.773469 0.464285 -0.147656
C29   C     C_R   0.500417 0.165690 0.426171 -0.050512
C30   C     C_R   0.499542 0.165235 0.573831 -0.050265
C31   C     C_R   0.000368 0.665683 0.426197 -0.050558
C32   C     C_R   0.999489 0.665242 0.573857 -0.050772
C33   C     C_R   0.501189 0.053775 0.462663 0.271756
C34   C     C_R   0.499432 0.053526 0.537034 0.271379
C35   C     C_R   0.001106 0.553771 0.462695 0.271842
C36   C     C_R   0.999344 0.553528 0.537067 0.271119
C37   C     C_R   0.773917 0.271956 0.518548 -0.157560
C38   C     C_R   0.225943 0.271854 0.481394 -0.156621
C39   C     C_R   0.273914 0.771946 0.518547 -0.157729
C40   C     C_R   0.725949 0.771843 0.481404 -0.156799
C41   C     C_R   0.779085 0.294145 0.445563 0.271445
C42   C     C_R   0.220749 0.294058 0.554378 0.270570
C43   C     C_R   0.279084 0.794137 0.445562 0.271100
C44   C     C_R   0.720761 0.794040 0.554392 0.271768
C45   C     C_R   0.530059 0.176768 0.850973 0.561433
C46   C     C_R   0.470089 0.176803 0.149150 0.563175
C47   C     C_R   0.029212 0.676801 0.850416 0.556603
C48   C     C_R   0.969396 0.676797 0.148627 0.561569
C49   C     C_R   0.743698 0.394511 0.416297 -0.041596
C50   C     C_R   0.256236 0.394561 0.583693 -0.043503
C51   C     C_R   0.243697 0.894505 0.416296 -0.041948
C52   C     C_R   0.756245 0.894550 0.583701 -0.041636
C53   C     C_R   0.688855 0.447563 0.454466 -0.161688
C54   C     C_R   0.311121 0.447910 0.545559 -0.162384
C55   C     C_R   0.188851 0.947552 0.454464 -0.161795
C56   C     C_R   0.811126 0.947903 0.545564 -0.161892
C57   C     C_R   0.678548 0.418209 0.525799 0.209593
C58   C     C_R   0.321409 0.418630 0.474212 0.209404
C59   C     C_R   0.178541 0.918190 0.525796 0.209472
C60   C     C_R   0.821410 0.918627 0.474216 0.209216
C61   C     C_R   0.726254 0.337414 0.560687 -0.049397
C62   C     C_R   0.273697 0.337498 0.439311 -0.049184
C63   C     C_R   0.226249 0.837401 0.560685 -0.049395
C64   C     C_R   0.773699 0.837493 0.439317 -0.049561
C65   C     C_R   0.738476 0.363848 0.852987 0.559337
C66   C     C_R   0.260399 0.367370 0.149054 0.564139
C67   C     C_R   0.239268 0.867047 0.851658 0.554794
C68   C     C_R   0.761195 0.865205 0.147526 0.559176
C69   C     C_R   0.729364 0.952350 0.648650 0.537302
C70   C     C_R   0.270624 0.952391 0.351345 0.536241
C71   C     C_R   0.229365 0.452345 0.648652 0.543598
C72   C     C_R   0.770624 0.452392 0.351345 0.535669
C73   C     C_R   0.528537 0.175544 0.645241 0.536488
C74   C     C_R   0.471477 0.175728 0.354743 0.535929
C75   C     C_R   0.028525 0.675546 0.645251 0.537397
C76   C     C_R   0.971466 0.675726 0.354753 0.536483
C77   C     C_R   0.724782 0.312510 0.638387 0.558337
C78   C     C_R   0.275200 0.312475 0.361636 0.557422
C79   C     C_R   0.224780 0.812505 0.638388 0.558370
C80   C     C_R   0.775199 0.812475 0.361638 0.558090
C81   C     C_2   0.493538 0.161331 0.919474 0.258747
C82   C     C_2   0.506871 0.161168 0.080897 0.267803
C83   C     C_2   0.990343 0.661719 0.917611 0.269954
C84   C     C_2   0.003808 0.660988 0.078987 0.258937
C85   C     C_2   0.491479 0.063939 0.038416 0.267410
C86   C     C_2   0.508971 0.064126 0.961891 0.269630
C87   C     C_2   0.986133 0.564470 0.036563 0.270044
C88   C     C_2   0.002922 0.563398 0.959746 0.265240
C89   C     C_R   0.695970 0.474683 0.960846 0.263066
C90   C     C_R   0.297343 0.493822 0.045597 0.258707
C91   C     C_R   0.196757 0.981198 0.958382 0.262835
C92   C     C_R   0.804328 0.975393 0.039649 0.261650
Cr1   Cr    Cr6+3 0.769270 0.163730 0.750710 1.045589
Cr2   Cr    Cr6+3 0.230730 0.163730 0.249290 1.048388
Cr3   Cr    Cr6+3 0.269270 0.663730 0.750710 1.045451
Cr4   Cr    Cr6+3 0.730730 0.663730 0.249290 1.047679
Cr5   Cr    Cr6+3 0.612620 0.009790 0.748780 1.065489
Cr6   Cr    Cr6+3 0.387380 0.009790 0.251220 1.068964
Cr7   Cr    Cr6+3 0.112620 0.509790 0.748780 1.066365
Cr8   Cr    Cr6+3 0.887380 0.509790 0.251220 1.067254
Cr9   Cr    Cr6+3 0.614160 0.322500 0.747710 1.061154
Cr10  Cr    Cr6+3 0.385840 0.322500 0.252290 1.064653
Cr11  Cr    Cr6+3 0.114160 0.822500 0.747710 1.060429
Cr12  Cr    Cr6+3 0.885840 0.822500 0.252290 1.062618
H1    H     H_    0.655441 0.515049 0.429538 0.169625
H2    H     H_    0.344545 0.515640 0.570508 0.169143
H3    H     H_    0.155438 0.015039 0.429537 0.169463
H4    H     H_    0.844547 0.015640 0.570510 0.169505
H5    H     H_    0.840246 0.297164 0.067014 0.214093
H6    H     H_    0.140788 0.342047 0.943504 0.229660
H7    H     H_    0.350406 0.821466 0.060228 0.226370
H8    H     H_    0.653595 0.808763 0.936049 0.215765
H9    H     H_    0.836978 0.283220 0.942136 0.209867
H10   H     H_    0.149121 0.317697 0.067046 0.201572
H11   H     H_    0.351354 0.827511 0.934368 0.200185
H12   H     H_    0.655600 0.801589 0.061229 0.204336
H13   H     H_    0.488518 0.359221 0.562730 0.231940
H14   H     H_    0.510384 0.359802 0.437802 0.232947
H15   H     H_    0.988484 0.859230 0.562752 0.232064
H16   H     H_    0.010356 0.859791 0.437824 0.232869
H17   H     H_    0.807333 0.203759 0.542282 0.159439
H18   H     H_    0.192465 0.203521 0.457611 0.159817
H19   H     H_    0.307331 0.703753 0.542281 0.159252
H20   H     H_    0.692467 0.703516 0.457621 0.159817
O1    O     O_R   0.784320 0.290430 0.830510 -0.510102
O2    O     O_R   0.215680 0.290430 0.169490 -0.500826
O3    O     O_R   0.284320 0.790430 0.830510 -0.497891
O4    O     O_R   0.715680 0.790430 0.169490 -0.503852
O5    O     O_R   0.554640 0.080370 0.673500 -0.464272
O6    O     O_R   0.445360 0.080370 0.326500 -0.464046
O7    O     O_R   0.054640 0.580370 0.673500 -0.463732
O8    O     O_R   0.945360 0.580370 0.326500 -0.463525
O9    O     O_R   0.543920 0.282180 0.666790 -0.492197
O10   O     O_R   0.456080 0.282180 0.333210 -0.492528
O11   O     O_R   0.043920 0.782180 0.666790 -0.490465
O12   O     O_R   0.956080 0.782180 0.333210 -0.492696
O13   O     O_R   0.679040 0.374160 0.674430 -0.457015
O14   O     O_R   0.320960 0.374160 0.325570 -0.457575
O15   O     O_R   0.179040 0.874160 0.674430 -0.456100
O16   O     O_R   0.820960 0.874160 0.325570 -0.457262
O17   O     O_3   0.665350 0.165340 0.749070 -0.291223
O18   O     O_3   0.334650 0.165340 0.250930 -0.292159
O19   O     O_3   0.165350 0.665340 0.749070 -0.306121
O20   O     O_3   0.834650 0.665340 0.250930 -0.291434
O21   O     O_R   0.762640 0.040960 0.825200 -0.438406
O22   O     O_R   0.237360 0.040960 0.174800 -0.436229
O23   O     O_R   0.262640 0.540960 0.825200 -0.435803
O24   O     O_R   0.737360 0.540960 0.174800 -0.438184
O25   O     O_R   0.667400 0.923970 0.829950 -0.509668
O26   O     O_R   0.332600 0.923970 0.170050 -0.506887
O27   O     O_R   0.167400 0.423970 0.829950 -0.508063
O28   O     O_R   0.832600 0.423970 0.170050 -0.506613
O29   O     O_R   0.553960 0.081340 0.821780 -0.493700
O30   O     O_R   0.446040 0.081340 0.178220 -0.494471
O31   O     O_R   0.053960 0.581340 0.821780 -0.502807
O32   O     O_R   0.946040 0.581340 0.178220 -0.493702
O33   O     O_R   0.543180 0.283240 0.826740 -0.514167
O34   O     O_R   0.456820 0.283240 0.173260 -0.512474
O35   O     O_R   0.043180 0.783240 0.826740 -0.511425
O36   O     O_R   0.956820 0.783240 0.173260 -0.514277
O37   O     O_R   0.678360 0.375140 0.822710 -0.477481
O38   O     O_R   0.321640 0.375140 0.177290 -0.480516
O39   O     O_R   0.178360 0.875140 0.822710 -0.481378
O40   O     O_R   0.821640 0.875140 0.177290 -0.478289
O41   O     O_R   0.785050 0.289380 0.670560 -0.549593
O42   O     O_R   0.214950 0.289380 0.329440 -0.551393
O43   O     O_R   0.285050 0.789380 0.670560 -0.550493
O44   O     O_R   0.714950 0.789380 0.329440 -0.550360
O45   O     O_R   0.763320 0.039990 0.676930 -0.533311
O46   O     O_R   0.236680 0.039990 0.323070 -0.534343
O47   O     O_R   0.263320 0.539990 0.676930 -0.530525
O48   O     O_R   0.736680 0.539990 0.323070 -0.534224
O49   O     O_R   0.668130 0.922920 0.670000 -0.440463
O50   O     O_R   0.331870 0.922920 0.330000 -0.439524
O51   O     O_R   0.168130 0.422920 0.670000 -0.436094
O52   O     O_R   0.831870 0.422920 0.330000 -0.440621
O53   O     O_3   0.455575 0.963964 0.064316 -0.597851
C93   C     C_3   0.504881 0.882941 0.095143 -0.084572
H21   H     H_    0.542307 0.928387 0.132765 0.104730
H22   H     H_    0.535051 0.834669 0.053508 0.148789
H23   H     H_    0.475291 0.813716 0.125810 0.159672
O54   O     O_3   0.547215 0.966351 0.936575 -0.591446
C94   C     C_3   0.499894 0.881172 0.906173 -0.085558
H24   H     H_    0.530854 0.816145 0.873895 0.155494
H25   H     H_    0.459987 0.923529 0.870012 0.102793
H26   H     H_    0.472763 0.828400 0.948133 0.150593
O55   O     O_3   0.948345 0.466613 0.062788 -0.584411
C95   C     C_3   0.996486 0.380527 0.090551 -0.083631
H27   H     H_    0.036211 0.421628 0.127525 0.104022
H28   H     H_    0.024009 0.331697 0.047197 0.150105
H29   H     H_    0.966241 0.312251 0.121290 0.155937
O56   O     O_3   0.035493 0.461212 0.933020 -0.611646
C96   C     C_3   0.983779 0.384856 0.901920 -0.088547
H30   H     H_    0.011193 0.314318 0.870351 0.159406
H31   H     H_    0.947345 0.433991 0.865054 0.106520
H32   H     H_    0.953057 0.337866 0.943680 0.154703
O57   O     O_3   0.822895 0.222805 0.404552 -0.472881
C97   C     C_3   0.780891 0.159506 0.353949 -0.023411
H33   H     H_    0.748940 0.220205 0.319253 0.074496
H34   H     H_    0.745297 0.093615 0.380833 0.110765
H35   H     H_    0.816537 0.108994 0.317933 0.198776
O58   O     O_3   0.176804 0.222618 0.595331 -0.473334
C98   C     C_3   0.218669 0.159573 0.645994 -0.021360
H36   H     H_    0.250661 0.220436 0.680722 0.081355
H37   H     H_    0.254220 0.093761 0.619163 0.109751
H38   H     H_    0.182916 0.109019 0.681976 0.200844
O59   O     O_3   0.322898 0.722800 0.404552 -0.472969
C99   C     C_3   0.280897 0.659495 0.353949 -0.022406
H39   H     H_    0.248940 0.720190 0.319255 0.075644
H40   H     H_    0.245309 0.593595 0.380831 0.110136
H41   H     H_    0.316546 0.608993 0.317929 0.200081
O60   O     O_3   0.676807 0.722614 0.595345 -0.473156
C100  C     C_3   0.718652 0.659631 0.646055 -0.023211
H42   H     H_    0.750597 0.720538 0.680800 0.075284
H43   H     H_    0.754241 0.593830 0.619265 0.111292
H44   H     H_    0.682884 0.609068 0.682018 0.198847
Cl1   Cl    Cl    0.606320 0.490032 0.566689 -0.566112
Cl2   Cl    Cl    0.393543 0.491103 0.433279 -0.565290
Cl3   Cl    Cl    0.106306 0.990000 0.566683 -0.565179
Cl4   Cl    Cl    0.893535 0.991119 0.433279 -0.565647
O61   O     O_3   0.551549 0.252085 0.057531 -0.573560
C101  C     C_3   0.622298 0.210008 0.061121 -0.118322
H45   H     H_    0.628672 0.109604 0.059489 0.095743
H46   H     H_    0.647757 0.244519 0.110581 0.146508
H47   H     H_    0.651297 0.245200 0.014440 0.143210
O62   O     O_3   0.450412 0.253728 0.943530 -0.583718
C102  C     C_3   0.379379 0.217381 0.933063 -0.121921
H48   H     H_    0.366953 0.131608 0.961542 0.115566
H49   H     H_    0.366765 0.208322 0.875296 0.126093
H50   H     H_    0.344273 0.287448 0.955388 0.163554
O63   O     O_3   0.047877 0.751667 0.054117 -0.581411
C103  C     C_3   0.118830 0.711827 0.060048 -0.124905
H51   H     H_    0.125985 0.612616 0.052129 0.097016
H52   H     H_    0.140881 0.738345 0.112800 0.145937
H53   H     H_    0.150361 0.755875 0.017861 0.139450
O64   O     O_3   0.946406 0.753892 0.940312 -0.572032
C104  C     C_3   0.875215 0.713175 0.936853 -0.111871
H54   H     H_    0.867762 0.612896 0.935667 0.091386
H55   H     H_    0.849413 0.751621 0.888691 0.152365
H56   H     H_    0.847173 0.745336 0.984875 0.141937
O65   O     O_3   0.651285 0.547386 0.920395 -0.580942
C105  C     C_3   0.580311 0.506621 0.923951 -0.014186
H57   H     H_    0.573909 0.413203 0.945441 0.191878
H58   H     H_    0.557352 0.508330 0.869452 0.166872
H59   H     H_    0.548756 0.570848 0.956153 0.163509
O66   O     O_3   0.348231 0.555043 0.085511 -0.576357
C106  C     C_3   0.416017 0.503142 0.076306 -0.003683
H60   H     H_    0.414992 0.408073 0.056353 0.178284
H61   H     H_    0.443771 0.503704 0.128523 0.176414
H62   H     H_    0.448232 0.560346 0.040389 0.172516
O67   O     O_3   0.149206 0.049780 0.918707 -0.568847
C107  C     C_3   0.079451 0.004073 0.924202 -0.001535
H63   H     H_    0.076004 0.909936 0.945199 0.185234
H64   H     H_    0.054828 0.005223 0.870437 0.176776
H65   H     H_    0.047393 0.065568 0.957625 0.171196
O68   O     O_3   0.850601 0.046478 0.079535 -0.587087
C108  C     C_3   0.920922 0.003509 0.075251 -0.010718
H66   H     H_    0.925816 0.909789 0.053865 0.193861
H67   H     H_    0.944512 0.005037 0.129475 0.172805
H68   H     H_    0.952864 0.066692 0.042685 0.166626
Cl5   Cl    Cl    0.628242 0.560315 0.079406 -0.652337
Cl6   Cl    Cl    0.360184 0.588356 0.927761 -0.656171
Cl7   Cl    Cl    0.129803 0.064289 0.078016 -0.650275
Cl8   Cl    Cl    0.874142 0.050851 0.919415 -0.659586
O69   O     O_3   0.499114 0.944409 0.426847 -0.497449
C109  C     C_3   0.567983 0.918496 0.402510 -0.041485
H69   H     H_    0.607036 0.917632 0.447212 0.136760
H70   H     H_    0.584879 0.984011 0.360897 0.085508
H71   H     H_    0.567753 0.826984 0.378166 0.173486
O70   O     O_3   0.502251 0.944012 0.572559 -0.497340
C110  C     C_3   0.433488 0.915820 0.596488 -0.040843
H72   H     H_    0.394729 0.913669 0.551548 0.138392
H73   H     H_    0.415763 0.980772 0.638029 0.085897
H74   H     H_    0.434381 0.824327 0.620789 0.172580
O71   O     O_3   0.999013 0.444406 0.426881 -0.497363
C111  C     C_3   0.067906 0.418354 0.402665 -0.041512
H75   H     H_    0.106872 0.417356 0.447442 0.136928
H76   H     H_    0.084934 0.483871 0.361108 0.085607
H77   H     H_    0.067650 0.326865 0.378291 0.173337
O72   O     O_3   0.002136 0.444009 0.572592 -0.497316
C112  C     C_3   0.933406 0.416019 0.596697 -0.040404
H78   H     H_    0.894519 0.414067 0.551864 0.137852
H79   H     H_    0.915872 0.480968 0.638322 0.086195
H80   H     H_    0.934259 0.324487 0.620949 0.173052

loop_
_geom_bond_atom_site_label_1
_geom_bond_atom_site_label_2
_ccdc_geom_bond_type
C2    O26   A    
C110  H74   S    
C79   O15   A    
C98   H36   S    
Cr6   O30   S    
Cr2   O22   S    
C37   C41   A    
C23   C91   A    
C55   C59   A    
C28   H16   S    
C48   C84   S    
C87   O55   S    
C14   C18   A    
C1    O21   A    
C35   C36   A    
C84   C87   D    
O56   C96   S    
C93   H23   S    
C87   C88   S    
Cr11  O35   S    
Cr10  O34   S    
C32   C75   S    
Cr9   O9    S    
C93   H21   S    
C76   O12   A    
C17   H9    S    
O67   C107  S    
C82   O61   S    
C21   C89   A    
C100  H42   S    
Cr8   O28   S    
C112  H80   S    
C15   C19   A    
C48   O36   A    
C15   H7    S    
Cr1   O45   S    
C50   C54   A    
C47   O31   A    
C95   H29   S    
C32   C36   A    
Cr7   O19   S    
C56   C60   A    
C77   O13   A    
C38   C42   A    
C90   O66   S    
Cr11  O15   S    
C94   H25   S    
C85   C86   S    
Cr6   O50   S    
C75   O11   A    
C100  H44   S    
O57   C97   S    
C77   O41   A    
C110  H72   S    
C4    O24   A    
C29   C33   A    
Cr3   O3    S    
C39   H19   S    
O64   C104  S    
C66   O38   A    
C14   H6    S    
O65   C105  S    
Cr10  O14   S    
C23   C67   S    
C57   C61   A    
C84   O63   S    
C9    C13   A    
O54   C94   S    
C22   C66   S    
Cr11  O39   S    
C13   H5    S    
C52   C69   S    
C46   C82   S    
C11   C15   A    
C6    C10   A    
Cr9   O13   S    
C56   H4    S    
C20   C24   A    
C95   H28   S    
C61   C77   S    
C99   H39   S    
C96   H31   S    
C49   C72   S    
Cr7   O31   S    
Cr8   O52   S    
C105  H58   S    
Cr4   O44   S    
Cr1   O21   S    
C97   H33   S    
C8    C92   A    
C51   C70   S    
Cr5   O29   S    
C8    C12   A    
C8    Cl8   S    
O69   C109  S    
C68   O4    A    
C51   C55   A    
C81   C86   D    
Cr10  O38   S    
Cr8   O32   S    
Cr2   O2    S    
C83   C88   D    
C48   O32   A    
Cr1   O41   S    
C35   O71   S    
C104  H54   S    
Cr6   O18   S    
C5    Cl5   S    
C64   C80   S    
C18   H10   S    
C76   O8    A    
C1    C12   S    
C69   O49   A    
Cr12  O36   S    
Cr4   O24   S    
C2    C11   S    
C24   C92   A    
C41   C49   A    
C75   O7    A    
C105  H57   S    
Cr1   O1    S    
C68   O40   A    
C5    C89   A    
C46   O30   A    
C98   H38   S    
C73   O5    A    
C78   O42   A    
C105  H59   S    
Cr5   O49   S    
C81   O62   S    
C30   C34   A    
C43   O59   S    
O59   C99   S    
Cr2   O18   S    
C12   C16   A    
C80   O44   A    
C45   O33   A    
O72   C112  S    
C41   O57   S    
O58   C98   S    
C94   H26   S    
C20   H12   S    
C30   C73   S    
C54   H2    S    
C19   C23   A    
C47   O35   A    
C29   C74   S    
C101  H47   S    
C25   C26   A    
C80   O16   A    
Cr7   O27   S    
C103  H53   S    
C17   C21   A    
Cr3   O43   S    
C66   O2    A    
C55   H3    S    
C95   H27   S    
C44   O60   S    
C10   C14   A    
C65   O1    A    
C7    C11   A    
C50   C71   S    
Cr10  O10   S    
C94   H24   S    
C5    C9    A    
O61   C101  S    
C67   O3    A    
Cr4   O20   S    
Cr4   O4    S    
C98   H37   S    
C93   H22   S    
C102  H48   S    
O63   C103  S    
C111  H77   S    
C19   H11   S    
C16   C20   A    
C96   H32   S    
C7    C91   A    
O68   C108  S    
Cr6   O6    S    
C97   H35   S    
C103  H52   S    
C33   C34   A    
C22   C90   A    
C106  H61   S    
Cr3   O23   S    
C6    Cl6   S    
C69   O45   A    
C83   O64   S    
C4    O28   A    
C7    Cl7   S    
C70   O50   A    
Cr5   O17   S    
C38   H18   S    
C109  H70   S    
C58   C62   A    
C42   C50   A    
C107  H65   S    
C37   H17   S    
C91   O67   S    
C85   O53   S    
C102  H49   S    
O71   C111  S    
C73   O9    A    
O62   C102  S    
Cr6   O26   S    
C47   C83   S    
C104  H55   S    
Cr8   O20   S    
C89   O65   S    
C59   C63   A    
C42   O58   S    
C45   O29   A    
C110  H73   S    
C65   O37   A    
C74   O6    A    
C92   O68   S    
C108  H66   S    
Cr1   O17   S    
C37   C61   A    
C16   H8    S    
C107  H64   S    
C54   C58   A    
C106  H62   S    
C25   C30   A    
C88   O56   S    
O66   C106  S    
C101  H46   S    
C53   C57   A    
Cr12  O12   S    
C21   C65   S    
C27   C32   A    
C18   C22   A    
Cr9   O17   S    
O53   C93   S    
C62   C78   S    
C28   C31   A    
C36   O72   S    
Cr3   O19   S    
C26   H14   S    
C111  H76   S    
C1    O25   A    
C109  H71   S    
C25   H13   S    
C44   C52   A    
Cr12  O40   S    
C39   C43   A    
C106  H60   S    
Cr8   O8    S    
C45   C81   S    
C63   C79   S    
C27   H15   S    
C2    O22   A    
C82   C85   D    
C39   C63   A    
C3    O27   A    
C40   C64   A    
Cr7   O7    S    
C60   C64   A    
C108  H68   S    
C112  H79   S    
C60   Cl4   S    
C112  H78   S    
C100  H43   S    
Cr5   O5    S    
O55   C95   S    
C3    C10   S    
C6    C90   A    
C3    O23   A    
C78   O14   A    
Cr11  O19   S    
C58   Cl2   S    
C43   C51   A    
C31   C76   S    
O60   C100  S    
C57   Cl1   S    
C99   H41   S    
C59   Cl3   S    
C74   O10   A    
C31   C35   A    
Cr9   O37   S    
C103  H51   S    
C71   O51   A    
C71   O47   A    
C72   O52   A    
C70   O46   A    
C101  H45   S    
Cr11  O11   S    
Cr2   O42   S    
C49   C53   A    
C109  H69   S    
C24   C68   S    
Cr9   O33   S    
C13   C17   A    
C67   O39   A    
C53   H1    S    
C40   C44   A    
C102  H50   S    
Cr7   O51   S    
C111  H75   S    
C26   C29   A    
C99   H40   S    
C96   H30   S    
Cr4   O48   S    
C104  H56   S    
C33   O69   S    
C27   C28   A    
C86   O54   S    
Cr5   O25   S    
O70   C110  S    
C34   O70   S    
C97   H34   S    
Cr10  O18   S    
C79   O43   A    
C4    C9    S    
C108  H67   S    
Cr12  O20   S    
Cr3   O47   S    
C72   O48   A    
Cr2   O46   S    
C40   H20   S    
C52   C56   A    
Cr12  O16   S    
C107  H63   S    
C38   C62   A    
C46   O34   A    
