data_mof_unit_65870.cif
_audit_creation_date              2012-12-10T17:59:50-0500
_audit_creation_method            fapswitch 2.2
_symmetry_space_group_name_H-M    P1
_symmetry_Int_Tables_number       1
_space_group_crystal_system       triclinic
_cell_length_a                    18.6105
_cell_length_b                    18.612296
_cell_length_c                    18.7264
_cell_angle_alpha                 109.117246
_cell_angle_beta                  109.852791
_cell_angle_gamma                 109.083625
_cell_volume                      5015.17629579

loop_
_atom_site_label
_atom_site_type_symbol
_atom_type_description
_atom_site_fract_x
_atom_site_fract_y
_atom_site_fract_z
_atom_type_partial_charge
C1    C     C_R   0.620145 0.620126 0.499914 0.850881
C2    C     C_3   0.179822 0.419991 0.203492 -0.167676
C3    C     C_3   0.220943 0.479352 0.302529 -0.159606
C4    C     C_3   0.311464 0.499601 0.312459 0.028447
C5    C     C_R   0.759064 0.755887 0.579394 -0.193015
C6    C     C_R   0.823741 0.819085 0.579325 -0.184442
C7    C     C_R   0.813775 0.813149 0.499850 -0.010765
C8    C     C_R   0.740638 0.743652 0.420399 -0.188318
C9    C     C_R   0.677288 0.679059 0.420407 -0.195548
C10   C     C_R   0.686407 0.686038 0.499922 -0.012810
C11   C     C_R   0.666192 0.463938 0.734565 -0.225785
C12   C     C_R   0.378879 0.499726 0.379324 0.861800
C13   C     C_R   0.729630 0.462684 0.798311 -0.191165
C14   C     C_R   0.815866 0.499587 0.814418 -0.057383
C15   C     C_R   0.838642 0.537448 0.766433 -0.216648
C16   C     C_R   0.775368 0.539283 0.702156 0.095975
C17   C     C_R   0.688873 0.501568 0.686798 -0.017101
C18   C     C_R   0.236377 0.312366 0.482965 -0.219457
C19   C     C_R   0.171168 0.248102 0.481158 -0.195020
C20   C     C_R   0.187127 0.186816 0.500743 -0.036923
C21   C     C_R   0.267514 0.188774 0.521326 -0.220029
C22   C     C_R   0.333205 0.252113 0.521964 0.087012
C23   C     C_R   0.380636 0.379971 0.500694 0.854876
C24   C     C_R   0.316489 0.314008 0.502564 -0.030156
C25   C     C_R   0.004599 0.620081 0.124598 0.873309
C26   C     C_R   0.124584 0.500019 0.124652 0.847053
C27   C     C_R   0.005899 0.380104 0.885547 0.855926
C28   C     C_R   0.882538 0.499820 0.882099 0.868913
C29   C     C_R   0.003139 0.881963 0.380644 0.875778
C30   C     C_R   0.879783 0.879536 0.499848 0.865532
C31   C     C_R   0.999220 0.120396 0.619384 0.888487
C32   C     C_R   0.120336 0.120685 0.500403 0.870120
C33   C     C_R   0.005778 0.757192 0.180841 -0.242738
C34   C     C_R   0.620807 0.499901 0.620746 0.847147
C35   C     C_R   0.007139 0.824358 0.242881 0.104240
C36   C     C_R   0.005653 0.817335 0.315276 -0.069874
C37   C     C_R   0.007812 0.747479 0.326991 -0.249047
C38   C     C_R   0.009594 0.681998 0.266354 0.096322
C39   C     C_R   0.006071 0.686597 0.191749 -0.073308
C40   C     C_R   0.080648 0.305986 0.835327 0.065496
C41   C     C_R   0.076519 0.240685 0.768215 -0.187788
C42   C     C_R   0.000958 0.188146 0.686116 -0.091268
C43   C     C_R   0.928189 0.200163 0.668318 -0.223042
C44   C     C_R   0.929230 0.263988 0.733525 0.080060
C45   C     C_3   0.322909 0.579598 0.301048 -0.152051
C46   C     C_R   0.004901 0.315148 0.817462 -0.078239
C47   C     C_3   0.231057 0.559335 0.289706 -0.155153
C48   C     C_3   0.191323 0.499992 0.191960 0.029895
C49   C     C_3   0.281875 0.520261 0.202068 -0.175269
C50   C     C_3   0.271460 0.440209 0.214623 -0.178437
H1    H     H_    0.212589 0.607890 0.318294 0.118234
H2    H     H_    0.620696 0.624715 0.358940 0.141887
H3    H     H_    0.599337 0.435361 0.722187 0.130782
H4    H     H_    0.711462 0.433665 0.835383 0.157402
H5    H     H_    0.905610 0.565876 0.779094 0.155242
H6    H     H_    0.224073 0.360075 0.467793 0.139452
H7    H     H_    0.278700 0.140275 0.535799 0.149604
H8    H     H_    0.005608 0.760183 0.123884 0.150441
H9    H     H_    0.131946 0.229974 0.778461 0.153023
H10   H     H_    0.870361 0.159569 0.603801 0.157750
H11   H     H_    0.304964 0.537932 0.159749 0.147831
H12   H     H_    0.289184 0.390909 0.186209 0.145223
H13   H     H_    0.198049 0.462625 0.345410 0.127067
H14   H     H_    0.766101 0.760577 0.640875 0.137799
H15   H     H_    0.880482 0.873166 0.640834 0.142349
H16   H     H_    0.733433 0.738944 0.358871 0.143399
O1    O     O_R   0.592040 0.539900 0.448690 -0.623235
O2    O     O_R   0.054890 0.643310 0.094620 -0.622484
O3    O     O_R   0.044450 0.448260 0.096050 -0.631786
O4    O     O_R   0.147910 0.551670 0.096030 -0.627496
O5    O     O_R   0.952840 0.356630 0.912840 -0.619587
O6    O     O_R   0.056290 0.460040 0.912820 -0.632767
O7    O     O_R   0.859820 0.448260 0.911420 -0.627929
O8    O     O_R   0.963280 0.551670 0.911400 -0.626805
O9    O     O_R   0.052810 0.908290 0.461080 -0.627189
O10   O     O_R   0.948580 0.908330 0.356880 -0.629171
O11   O     O_R   0.960490 0.908280 0.552000 -0.623953
O12   O     O_R   0.591220 0.643330 0.551330 -0.621047
O13   O     O_R   0.856260 0.908310 0.447800 -0.622146
O14   O     O_R   0.051420 0.091500 0.642940 -0.630939
O15   O     O_R   0.947190 0.091540 0.538750 -0.626111
O16   O     O_R   0.143740 0.091510 0.552020 -0.630993
O17   O     O_R   0.039510 0.091550 0.447830 -0.627213
O18   O     O_R   0.408100 0.448290 0.356370 -0.628417
O19   O     O_R   0.407270 0.551710 0.459000 -0.624097
O20   O     O_R   0.408780 0.356670 0.448670 -0.625271
O21   O     O_R   0.407960 0.460100 0.551310 -0.621138
O22   O     O_R   0.592730 0.448290 0.541000 -0.626014
O23   O     O_R   0.591900 0.551710 0.643630 -0.620392
O24   O     O_R   0.951430 0.539890 0.094630 -0.622513
Zn1   Zn    Zn3+2 0.500550 0.430940 0.431470 0.931999
Zn2   Zn    Zn3+2 0.499450 0.569060 0.568530 0.947593
Zn3   Zn    Zn3+2 0.934780 0.430920 0.003740 0.929879
Zn4   Zn    Zn3+2 0.072940 0.569020 0.003710 0.933482
Zn5   Zn    Zn3+2 0.069600 0.999890 0.569480 0.933932
Zn6   Zn    Zn3+2 0.930400 0.999940 0.430340 0.934075
C51   C     C_3   0.802438 0.583841 0.653668 -0.433415
C52   C     C_3   0.807546 0.522815 0.579704 -0.326427
C53   C     C_3   0.831823 0.566307 0.528739 -0.861089
H17   H     H_    0.780942 0.581992 0.498054 0.275724
H18   H     H_    0.896319 0.627362 0.572704 0.259456
H19   H     H_    0.836300 0.521185 0.476476 0.243054
H20   H     H_    0.857798 0.505032 0.607193 0.213441
H21   H     H_    0.743048 0.461867 0.534153 0.238872
H22   H     H_    0.756017 0.605613 0.626718 0.193791
H23   H     H_    0.867525 0.644030 0.700067 0.196044
H24   H     H_    0.108940 0.246781 0.465559 0.153179
C54   C     C_3   0.419543 0.252300 0.544856 -0.424960
C55   C     C_3   0.411654 0.182851 0.466046 -0.309374
C56   C     C_3   0.497623 0.181023 0.488854 -0.894633
H25   H     H_    0.551851 0.246007 0.511621 0.270851
H26   H     H_    0.513918 0.162917 0.540794 0.261846
H27   H     H_    0.490768 0.131691 0.430227 0.246776
H28   H     H_    0.358834 0.117232 0.443946 0.211535
H29   H     H_    0.394275 0.197048 0.411257 0.237569
H30   H     H_    0.473522 0.317381 0.567805 0.199114
H31   H     H_    0.438394 0.238886 0.600159 0.194650
H32   H     H_    0.383247 0.644639 0.342777 0.131547
C57   C     C_3   0.016117 0.903764 0.232231 -0.421543
C58   C     C_3   0.110101 0.980687 0.294768 -0.340610
C59   C     C_3   0.120744 0.059689 0.282046 -0.865245
H33   H     H_    0.105168 0.042620 0.213971 0.253628
H34   H     H_    0.076568 0.082599 0.296361 0.271535
H35   H     H_    0.189655 0.113640 0.326964 0.257614
H36   H     H_    0.127104 0.999677 0.363433 0.211213
H37   H     H_    0.156941 0.960873 0.282685 0.220768
H38   H     H_    0.000573 0.888109 0.164323 0.192730
H39   H     H_    0.967901 0.922430 0.241561 0.226043
H40   H     H_    0.008768 0.744333 0.384134 0.154880
C60   C     C_3   0.020576 0.612288 0.286100 -0.417517
C61   C     C_3   0.933049 0.541980 0.264823 -0.304034
C62   C     C_3   0.943293 0.469706 0.280825 -0.893775
H41   H     H_    0.965637 0.437473 0.238562 0.268689
H42   H     H_    0.991700 0.497067 0.350318 0.258155
H43   H     H_    0.879128 0.419893 0.265240 0.245137
H44   H     H_    0.908816 0.571856 0.306348 0.211414
H45   H     H_    0.883267 0.512698 0.195337 0.238166
H46   H     H_    0.048467 0.581777 0.249844 0.201936
H47   H     H_    0.069144 0.643238 0.356443 0.189387
C63   C     C_3   0.163744 0.365527 0.925399 -0.409967
C64   C     C_3   0.243299 0.352585 0.933919 -0.359517
C65   C     C_3   0.324357 0.418554 0.023671 -0.896326
H48   H     H_    0.341039 0.486386 0.037358 0.259147
H49   H     H_    0.312579 0.408264 0.074516 0.259504
H50   H     H_    0.380990 0.409438 0.025916 0.251804
H51   H     H_    0.227772 0.285825 0.923709 0.222591
H52   H     H_    0.259529 0.361202 0.884309 0.226275
H53   H     H_    0.184241 0.434464 0.941310 0.225440
H54   H     H_    0.147674 0.355804 0.974722 0.190724
C66   C     C_3   0.850390 0.277991 0.710221 -0.412585
C67   C     C_3   0.775421 0.209377 0.708212 -0.314416
C68   C     C_3   0.697842 0.226116 0.689141 -0.887297
H55   H     H_    0.717066 0.289548 0.742674 0.275737
H56   H     H_    0.675219 0.227354 0.626758 0.264648
H57   H     H_    0.642830 0.173344 0.683855 0.243277
H58   H     H_    0.753162 0.143150 0.656785 0.213641
H59   H     H_    0.798623 0.211108 0.772147 0.238947
H60   H     H_    0.867821 0.344471 0.756430 0.200522
H61   H     H_    0.827579 0.273802 0.645100 0.191661
H62   H     H_    0.119675 0.354801 0.161798 0.141114

loop_
_geom_bond_atom_site_label_1
_geom_bond_atom_site_label_2
_ccdc_geom_bond_type
C45   H32   S    
C8    C9    A    
C8    H16   S    
C33   H8    S    
C31   C42   S    
C41   C42   A    
O8    Zn4   S    
C35   C57   S    
C35   C36   A    
O7    Zn3   S    
C28   O8    A    
C63   H53   S    
C51   C52   S    
O9    Zn5   S    
C7    C8    A    
C29   O10   A    
C40   C46   A    
C9    H2    S    
C29   C36   S    
C25   O24   A    
C33   C39   A    
C12   O19   A    
C18   C24   A    
C38   C60   S    
C36   C37   A    
O4    Zn4   S    
O3    Zn3   S    
O20   Zn1   S    
C5    C6    A    
C58   H37   S    
C16   C51   S    
C28   O7    A    
C15   C16   A    
C54   C55   S    
C12   O18   A    
C18   C19   A    
C56   H25   S    
C59   H35   S    
C2    C50   S    
C1    O1    A    
C30   O11   A    
C6    H15   S    
C19   C20   A    
C62   H41   S    
C23   O20   A    
C67   C68   S    
O22   Zn1   S    
O18   Zn1   S    
C4    C12   S    
C9    C10   A    
C11   H3    S    
C18   H6    S    
O6    Zn4   S    
C57   H39   S    
C7    C30   S    
C23   O21   A    
C13   C14   A    
C1    O12   A    
C65   H50   S    
C25   O2    A    
C60   H47   S    
O19   Zn2   S    
C44   C46   A    
C56   H26   S    
C4    C45   S    
C45   C47   S    
C49   H11   S    
C66   H61   S    
C31   O14   A    
C63   C64   S    
C41   H9    S    
C61   H44   S    
O21   Zn2   S    
O15   Zn6   S    
C64   H52   S    
C58   H36   S    
C16   C17   A    
C47   H1    S    
O12   Zn2   S    
O11   Zn5   S    
C44   C66   S    
C3    C4    S    
C5    H14   S    
C4    C50   S    
O23   Zn2   S    
C15   H5    S    
C43   C44   A    
C21   H7    S    
C37   C38   A    
C61   H45   S    
C47   C48   S    
C68   H57   S    
C45   C49   S    
C23   C24   S    
O1    Zn1   S    
C34   O22   A    
C67   H58   S    
C68   H55   S    
O14   Zn5   S    
C56   H27   S    
C59   H33   S    
C43   H10   S    
C29   O9    A    
C30   O13   A    
C64   H51   S    
C27   C46   S    
C2    H62   S    
C48   C49   S    
C53   H18   S    
C68   H56   S    
C49   C50   S    
C3    H13   S    
C26   O4    A    
C65   H49   S    
C50   H12   S    
C42   C43   A    
C51   H23   S    
C61   C62   S    
C60   H46   S    
C67   H59   S    
C27   O5    A    
C58   C59   S    
O24   Zn3   S    
C13   H4    S    
C20   C32   S    
C32   O17   A    
C11   C17   A    
O16   Zn5   S    
C66   H60   S    
C65   H48   S    
C54   H31   S    
C1    C10   S    
C55   H28   S    
C57   C58   S    
C6    C7    A    
O5    Zn3   S    
C26   C48   S    
C32   O16   A    
C31   O15   A    
C53   H17   S    
C2    C48   S    
C54   H30   S    
C60   C61   S    
C34   O23   A    
C51   H22   S    
C5    C10   A    
C64   C65   S    
C25   C39   S    
C11   C13   A    
C38   C39   A    
C62   H43   S    
C22   C54   S    
O17   Zn6   S    
C40   C63   S    
C3    C47   S    
C33   C35   A    
C37   H40   S    
C2    C3    S    
C22   C24   A    
O2    Zn4   S    
C59   H34   S    
C55   H29   S    
O13   Zn6   S    
C53   H19   S    
C20   C21   A    
C62   H42   S    
C52   C53   S    
C17   C34   S    
C55   C56   S    
C26   O3    A    
C14   C15   A    
C40   C41   A    
C14   C28   S    
C21   C22   A    
C63   H54   S    
C52   H21   S    
O10   Zn6   S    
C27   O6    A    
C52   H20   S    
C57   H38   S    
C66   C67   S    
C19   H24   S    
