data_mof_unit_7368.cif
_audit_creation_date              2012-12-10T22:11:06-0500
_audit_creation_method            fapswitch 2.2
_symmetry_space_group_name_H-M    P1
_symmetry_Int_Tables_number       1
_space_group_crystal_system       triclinic
_cell_length_a                    12.084823
_cell_length_b                    12.289239
_cell_length_c                    23.070203
_cell_angle_alpha                 91.252367
_cell_angle_beta                  90.225754
_cell_angle_gamma                 91.978122
_cell_volume                      3423.33397521

loop_
_atom_site_label
_atom_site_type_symbol
_atom_type_description
_atom_site_fract_x
_atom_site_fract_y
_atom_site_fract_z
_atom_type_partial_charge
C1    C     C_R   0.654243 0.999409 0.580859 0.905451
C2    C     C_R   0.345757 0.000585 0.419140 0.900641
C3    C     C_R   0.896739 0.771278 0.148878 -0.236063
C4    C     C_R   0.103324 0.228550 0.851218 -0.234201
C5    C     C_R   0.086294 0.902499 0.168538 -0.245145
C6    C     C_R   0.913590 0.097689 0.831343 -0.242135
C7    C     C_R   0.089128 0.819082 0.127225 0.477428
C8    C     C_R   0.910761 0.181093 0.872664 0.485865
C9    C     C_R   0.900203 0.123213 0.176543 -0.221678
C10   C     C_R   0.099851 0.876695 0.823384 -0.223766
C11   C     C_R   0.897428 0.198920 0.133163 0.449242
C12   C     C_R   0.102665 0.800941 0.866741 0.449792
C13   C     C_R   0.158390 0.913126 0.294584 -0.284560
C14   C     C_R   0.841916 0.087033 0.705251 -0.271025
C15   C     C_R   0.244899 0.909871 0.334184 0.421463
C16   C     C_R   0.755319 0.090197 0.665710 0.459694
C17   C     C_R   0.843967 0.102365 0.305292 -0.175406
C18   C     C_R   0.155875 0.897588 0.694626 -0.175387
C19   C     C_R   0.763594 0.100163 0.347576 -0.170897
C20   C     C_R   0.236251 0.899782 0.652344 -0.172490
C21   C     C_3   0.996742 0.009880 0.248139 -0.028366
C22   C     C_3   0.003277 0.990148 0.751853 -0.026799
C23   C     C_R   0.654963 0.002083 0.420762 0.867972
C24   C     C_R   0.345041 0.997916 0.579239 0.869022
C25   C     C_R   0.097391 0.007751 0.288107 0.067202
C26   C     C_R   0.902669 0.992289 0.711867 0.047499
C27   C     C_R   0.263521 0.999881 0.372835 -0.161076
C28   C     C_R   0.736478 0.000087 0.627164 -0.176418
C29   C     C_R   0.899717 0.007035 0.289961 0.113978
C30   C     C_R   0.100303 0.992977 0.710039 0.115419
C31   C     C_R   0.739048 0.003658 0.376396 -0.019298
C32   C     C_R   0.260959 0.996341 0.623605 -0.018723
C33   C     C_R   0.995863 0.109115 0.209837 0.032083
C34   C     C_R   0.004124 0.890930 0.790167 0.033807
C35   C     C_R   0.993171 0.266730 0.124027 -0.176522
C36   C     C_R   0.006838 0.733285 0.875968 -0.176244
C37   C     C_R   0.993162 0.915587 0.203951 0.045162
C38   C     C_R   0.006833 0.084439 0.796033 0.043961
C39   C     C_R   0.992984 0.753233 0.117054 -0.135644
C40   C     C_R   0.006996 0.246764 0.882943 -0.132886
C41   C     C_R   0.993471 0.663752 0.074765 0.902899
C42   C     C_R   0.006525 0.336243 0.925235 0.903845
C43   C     C_R   0.997463 0.350368 0.080136 0.900101
C44   C     C_R   0.002541 0.649631 0.919859 0.901825
C45   C     C_R   0.119367 0.097077 0.325784 -0.161404
C46   C     C_R   0.880506 0.902840 0.674297 -0.158041
C47   C     C_R   0.200694 0.092945 0.367667 -0.239643
C48   C     C_R   0.799150 0.906936 0.632421 -0.242530
C49   C     C_R   0.877167 0.911541 0.321030 -0.164984
C50   C     C_R   0.123007 0.088531 0.679049 -0.165191
C51   C     C_R   0.796082 0.909285 0.363116 -0.160136
C52   C     C_R   0.204086 0.090777 0.636963 -0.163087
C53   C     C_R   0.090855 0.174470 0.199283 -0.172366
C54   C     C_R   0.909058 0.825747 0.800818 -0.171826
C55   C     C_R   0.088543 0.253701 0.157688 -0.234050
C56   C     C_R   0.911373 0.746505 0.842408 -0.232155
C57   C     C_R   0.896426 0.851958 0.191724 -0.165911
C58   C     C_R   0.103643 0.147880 0.808367 -0.163813
H1    H     H_    0.212984 0.162717 0.396789 0.185020
H2    H     H_    0.786716 0.837066 0.603380 0.186251
H3    H     H_    0.923195 0.838777 0.312766 0.145938
H4    H     H_    0.077104 0.161353 0.687371 0.150408
H5    H     H_    0.168533 0.162579 0.221207 0.165795
H6    H     H_    0.831333 0.837784 0.778969 0.164906
H7    H     H_    0.819366 0.865452 0.213914 0.173789
H8    H     H_    0.180754 0.134242 0.786253 0.170797
H9    H     H_    0.158305 0.956783 0.173901 0.161534
H10   H     H_    0.841506 0.043525 0.825906 0.159463
H11   H     H_    0.828255 0.070293 0.183328 0.205458
H12   H     H_    0.171850 0.929513 0.816541 0.205015
H13   H     H_    0.137979 0.839848 0.269711 0.161309
H14   H     H_    0.862514 0.160504 0.729974 0.193599
H15   H     H_    0.864048 0.180102 0.286217 0.148703
H16   H     H_    0.135654 0.819828 0.713642 0.148832
H17   H     H_    0.779672 0.834413 0.385968 0.167061
H18   H     H_    0.220617 0.165697 0.614174 0.166956
H19   H     H_    0.162964 0.303501 0.151081 0.186928
H20   H     H_    0.836885 0.696844 0.849086 0.185856
H21   H     H_    0.821692 0.722315 0.141038 0.190700
H22   H     H_    0.178436 0.277368 0.859139 0.188035
H23   H     H_    0.721475 0.174437 0.358019 0.167937
H24   H     H_    0.278238 0.825461 0.641838 0.166992
H25   H     H_    0.071043 0.169479 0.323665 0.153943
H26   H     H_    0.928694 0.830360 0.676493 0.155683
O1    O     O_R   0.621380 0.090460 0.561410 -0.538450
O2    O     O_R   0.378620 0.909540 0.438590 -0.539357
O3    O     O_R   0.617150 0.909540 0.438590 -0.602524
O4    O     O_R   0.382850 0.090460 0.561410 -0.602918
O5    O     O_R   0.619720 0.093230 0.440890 -0.634269
O6    O     O_R   0.380280 0.906770 0.559110 -0.634910
O7    O     O_R   0.618800 0.906770 0.559110 -0.643722
O8    O     O_R   0.381200 0.093230 0.440890 -0.643117
O9    O     O_R   0.087590 0.627480 0.058790 -0.579555
O10   O     O_R   0.912410 0.372520 0.941210 -0.578674
O11   O     O_R   0.905660 0.383870 0.059980 -0.541899
O12   O     O_R   0.094340 0.616130 0.940020 -0.541735
O13   O     O_R   0.092570 0.390420 0.063230 -0.642569
O14   O     O_R   0.907430 0.609580 0.936770 -0.642890
O15   O     O_R   0.900680 0.620930 0.055550 -0.631832
O16   O     O_R   0.099320 0.379070 0.944450 -0.632579
Zn1   Zn    Zn3+2 0.501730 0.123520 0.501540 1.060765
Zn2   Zn    Zn3+2 0.498270 0.876480 0.498460 1.062168
Zn3   Zn    Zn3+2 0.125690 0.504390 0.002180 1.043596
Zn4   Zn    Zn3+2 0.874310 0.495610 0.997820 1.043980
O17   O     O_3   0.182230 0.808553 0.093104 -0.558018
C59   C     C_3   0.269328 0.769100 0.126901 0.129381
H27   H     H_    0.242363 0.694353 0.150315 0.147587
H28   H     H_    0.300390 0.832366 0.158749 0.165942
C60   C     C_3   0.364512 0.739897 0.087211 -0.671690
H29   H     H_    0.394388 0.812962 0.063605 0.259176
H30   H     H_    0.433816 0.709130 0.113252 0.201543
H31   H     H_    0.336589 0.675660 0.055278 0.260405
O18   O     O_3   0.817552 0.191763 0.906694 -0.557757
C61   C     C_3   0.730638 0.231351 0.872816 0.125415
H32   H     H_    0.699559 0.168119 0.840958 0.164245
H33   H     H_    0.757806 0.306041 0.849414 0.154663
C62   C     C_3   0.635389 0.260747 0.912416 -0.688739
H34   H     H_    0.663335 0.324922 0.944373 0.263492
H35   H     H_    0.566249 0.291661 0.886313 0.193767
H36   H     H_    0.605280 0.187741 0.935993 0.262803
S1    S     S_3+6 0.775398 0.196740 0.089756 0.028395
O19   O     O_2   0.712790 0.298359 0.101720 -0.299681
O20   O     O_2   0.806502 0.190790 0.026861 -0.244213
O21   O     O_3   0.692785 0.087920 0.104555 -0.570066
H37   H     H_    0.629120 0.092240 0.077621 0.385486
S2    S     S_3+6 0.224912 0.802829 0.909975 0.026956
O22   O     O_2   0.194172 0.808933 0.972916 -0.243370
O23   O     O_2   0.287154 0.701008 0.897938 -0.303206
O24   O     O_3   0.307753 0.911409 0.895035 -0.571544
H38   H     H_    0.372101 0.906291 0.921449 0.385108
S3    S     S_3+6 0.328358 0.793583 0.331231 0.025416
O25   O     O_2   0.448755 0.828571 0.333404 -0.260356
O26   O     O_2   0.302517 0.722547 0.382020 -0.296500
O27   O     O_3   0.304937 0.720836 0.269469 -0.585732
H39   H     H_    0.241416 0.670636 0.277897 0.350779
S4    S     S_3+6 0.672227 0.206660 0.668618 0.009702
O28   O     O_2   0.699121 0.277530 0.617931 -0.282133
O29   O     O_2   0.551732 0.171860 0.666557 -0.303232
O30   O     O_3   0.697238 0.279018 0.730300 -0.620531
H40   H     H_    0.645816 0.339986 0.729152 0.385605

loop_
_geom_bond_atom_site_label_1
_geom_bond_atom_site_label_2
_ccdc_geom_bond_type
C16   C28   A    
C17   H15   S    
S2    O22   D    
C5    C37   A    
C17   C29   A    
C5    H9    S    
S3    O27   S    
C3    H21   S    
O9    Zn3   S    
C61   H32   S    
C39   C41   S    
C29   C49   A    
C54   H6    S    
C36   C56   A    
C7    C39   A    
C9    H11   S    
O24   H38   S    
C20   H24   S    
C62   H35   S    
C55   H19   S    
C15   S3    S    
C21   C33   S    
C59   H27   S    
C25   C45   A    
C22   C38   S    
C56   H20   S    
C32   C52   A    
S1    O21   S    
C38   C58   A    
C15   C27   A    
C11   C35   A    
C58   H8    S    
O6    Zn2   S    
C4    C40   A    
C49   C51   A    
C1    C28   S    
C50   C52   A    
C7    O17   S    
C48   H2    S    
C2    C27   S    
C18   C30   A    
C12   C36   A    
C35   C43   S    
C45   C47   A    
O15   Zn4   S    
C30   C50   A    
C19   C31   A    
C1    O7    A    
C23   O3    A    
C9    C33   A    
C13   C25   A    
C11   S1    S    
C44   O14   A    
S4    O30   S    
O4    Zn1   S    
C46   C48   A    
C53   C55   A    
C33   C53   A    
C22   C34   S    
C54   C56   A    
C47   H1    S    
C49   H3    S    
C35   C55   A    
C45   H25   S    
S4    O29   D    
C60   H31   S    
C57   H7    S    
C5    C7    A    
C6    C8    A    
C13   H13   S    
S2    O24   S    
C52   H18   S    
C21   C29   S    
O16   Zn3   S    
C23   C31   S    
C24   C32   S    
C44   O12   A    
C42   O16   A    
O3    Zn2   S    
C9    C11   A    
C43   O11   A    
C23   O5    A    
C21   C37   S    
C10   C34   A    
C14   C26   A    
C2    O8    A    
C24   O4    A    
S1    O19   D    
O13   Zn3   S    
C10   C12   A    
O8    Zn1   S    
C46   H26   S    
C8    O18   S    
C34   C54   A    
C13   C15   A    
C50   H4    S    
C14   C16   A    
C62   H36   S    
C1    O1    A    
O7    Zn2   S    
S3    O25   D    
O2    Zn2   S    
C10   H12   S    
C51   H17   S    
O1    Zn1   S    
O11   Zn4   S    
O18   C61   S    
C20   C32   A    
C27   C47   A    
C21   C25   S    
C28   C48   A    
S2    O23   D    
C22   C30   S    
O5    Zn1   S    
C42   O10   A    
C14   H14   S    
C43   O13   A    
C31   C51   A    
S4    O28   D    
S3    O26   D    
C24   O6    A    
C41   O15   A    
C61   H33   S    
O30   H40   S    
C4    H22   S    
O27   H39   S    
O17   C59   S    
C41   O9    A    
C60   H30   S    
C19   H23   S    
C62   H34   S    
C53   H5    S    
C59   H28   S    
O14   Zn4   S    
C6    H10   S    
C17   C19   A    
C3    C57   A    
C2    O2    A    
C18   C20   A    
S1    O20   D    
C61   C62   S    
C36   C44   S    
C26   C46   A    
O10   Zn4   S    
C12   S2    S    
C18   H16   S    
C22   C26   S    
O12   Zn3   S    
C4    C58   A    
C40   C42   S    
C8    C40   A    
C6    C38   A    
C60   H29   S    
C37   C57   A    
C3    C39   A    
O21   H37   S    
C59   C60   S    
C16   S4    S    
