data_mof_unit_14967.cif
_audit_creation_date              2013-03-05T15:43:30-0500
_audit_creation_method            fapswitch 2.2
_symmetry_space_group_name_H-M    P1
_symmetry_Int_Tables_number       1
_space_group_crystal_system       triclinic
_cell_length_a                    14.545393
_cell_length_b                    16.054063
_cell_length_c                    7.12205
_cell_angle_alpha                 90.001104
_cell_angle_beta                  80.757832
_cell_angle_gamma                 90.000073
_cell_volume                      1641.49913814

loop_
_atom_site_label
_atom_site_type_symbol
_atom_site_description
_atom_site_fract_x
_atom_site_fract_y
_atom_site_fract_z
_atom_type_partial_charge
O1    O     O_R   0.337460 0.413110 0.524760 -0.560250
O2    O     O_R   0.662540 0.913110 0.475240 -0.560257
O3    O     O_R   0.348690 0.587910 0.191230 -0.570288
O4    O     O_R   0.651310 0.087910 0.808770 -0.570311
O5    O     O_R   0.166530 0.586890 0.082470 -0.522207
O6    O     O_R   0.833470 0.086890 0.917530 -0.522213
C1    C     C_R   0.370990 0.615662 0.353679 0.897569
C2    C     C_R   0.629011 0.115664 0.646323 0.897521
O7    O     O_R   0.348700 0.413830 0.191250 -0.546676
O8    O     O_R   0.651300 0.913830 0.808750 -0.546652
O9    O     O_R   0.166530 0.411570 0.082490 -0.528748
O10   O     O_R   0.833470 0.911570 0.917510 -0.528718
C3    C     C_R   0.371089 0.386059 0.353577 0.886399
C4    C     C_R   0.628911 0.886059 0.646421 0.886400
O11   O     O_R   0.337460 0.588430 0.524740 -0.553678
O12   O     O_R   0.662540 0.088430 0.475260 -0.553667
O13   O     O_3   0.192230 0.499460 0.407330 -0.218411
O14   O     O_3   0.807770 0.999460 0.592670 -0.218400
V1    V     V_3+5 0.263080 0.500100 0.108540 1.256385
V2    V     V_3+5 0.736920 0.000100 0.891460 1.256391
O15   O     O_R   0.155290 0.412090 0.756570 -0.494710
O16   O     O_R   0.844710 0.912090 0.243430 -0.494744
C5    C     C_R   0.134210 0.382503 0.932463 0.917411
C6    C     C_R   0.865794 0.882507 0.067533 0.917440
O17   O     O_R   0.155290 0.586170 0.756550 -0.524352
O18   O     O_R   0.844710 0.086170 0.243450 -0.524374
C7    C     C_R   0.139292 0.618983 0.930352 0.855244
C8    C     C_R   0.860713 0.118979 0.069646 0.855212
V3    V     V_3+5 0.240910 0.499900 0.616030 1.310312
V4    V     V_3+5 0.759090 0.999900 0.383970 1.310292
O19   O     O_3   0.311760 0.500540 0.867100 -0.314791
O20   O     O_3   0.688240 0.000540 0.132900 -0.314773
C9    C     C_3   0.108295 0.767428 0.088415 0.278746
C10   C     C_3   0.891726 0.267399 0.911508 0.278761
C11   C     C_3   0.034246 0.844238 0.104558 0.180821
C12   C     C_3   0.965761 0.344222 0.895416 0.180797
H1    H     H_    0.983030 0.614244 0.182037 0.173226
H2    H     H_    0.017006 0.114209 0.818035 0.173199
H3    H     H_    0.899240 0.733186 0.287745 0.194738
H4    H     H_    0.100764 0.233164 0.712270 0.194813
C13   C     C_3   0.976394 0.657874 0.064096 -0.265739
C14   C     C_3   0.023627 0.157860 0.935951 -0.265791
C15   C     C_3   0.053525 0.731643 0.775088 0.169838
C16   C     C_3   0.946466 0.231660 0.224894 0.169830
C17   C     C_3   0.072817 0.694017 0.964799 -0.279676
C18   C     C_3   0.927192 0.194009 0.035189 -0.279656
H5    H     H_    0.038727 0.677198 0.692297 0.193061
H6    H     H_    0.961240 0.177221 0.307715 0.193121
C19   C     C_3   0.939621 0.812699 0.032091 -0.329339
C20   C     C_3   0.060385 0.312694 0.967902 -0.329346
C21   C     C_3   0.904113 0.728219 0.133240 0.269698
C22   C     C_3   0.095899 0.228210 0.866775 0.269675
C23   C     C_3   0.964042 0.789525 0.811978 0.155504
C24   C     C_3   0.035959 0.289528 0.188014 0.155515
H7    H     H_    0.978614 0.848599 0.735511 0.160544
H8    H     H_    0.021392 0.348607 0.264472 0.160530
H9    H     H_    0.950198 0.616413 0.960217 0.159727
H10   H     H_    0.049819 0.116421 0.039871 0.159739
H11   H     H_    0.562176 0.810530 0.357495 0.144469
H12   H     H_    0.437836 0.310542 0.642501 0.144462
H13   H     H_    0.434249 0.693731 0.643628 0.115643
H14   H     H_    0.565753 0.193729 0.356373 0.115652
C25   C     C_2   0.439622 0.684478 0.345096 -0.156139
C26   C     C_2   0.560382 0.184482 0.654905 -0.156183
C27   C     C_2   0.464461 0.717489 0.504447 -0.041350
C28   C     C_2   0.535543 0.217491 0.495554 -0.041325
H15   H     H_    0.529524 0.793351 0.794097 0.074377
H16   H     H_    0.470473 0.293345 0.205900 0.074363
C29   C     C_2   0.559206 0.818075 0.655515 -0.170291
C30   C     C_2   0.440795 0.318075 0.344483 -0.170262
C31   C     C_2   0.532855 0.786141 0.496563 -0.045989
C32   C     C_2   0.467152 0.286147 0.503433 -0.045944
H17   H     H_    0.469989 0.708741 0.206496 0.073510
H18   H     H_    0.530017 0.208750 0.793505 0.073505
N1    N     N_R   0.115030 0.730869 0.275376 0.148822
O21   O     O_R   0.041392 0.704220 0.384474 -0.359673
O22   O     O_R   0.194937 0.703922 0.310387 -0.309523
N2    N     N_R   0.885033 0.230819 0.724541 0.148797
O23   O     O_R   0.958687 0.204162 0.615508 -0.359670
O24   O     O_R   0.805142 0.203866 0.689460 -0.309480
N3    N     N_R   0.883843 0.749862 0.738330 0.140226
O25   O     O_R   0.884212 0.671643 0.689781 -0.304531
O26   O     O_R   0.814174 0.794438 0.702359 -0.283315
N4    N     N_R   0.116150 0.249854 0.261674 0.140292
O27   O     O_R   0.115733 0.171653 0.310385 -0.304434
O28   O     O_R   0.185862 0.294411 0.297506 -0.283315
N5    N     N_R   0.808386 0.705621 0.107526 0.117486
O29   O     O_R   0.788344 0.630324 0.059277 -0.305958
O30   O     O_R   0.739544 0.754321 0.175600 -0.360875
N6    N     N_R   0.191637 0.205641 0.892463 0.117413
O31   O     O_R   0.211675 0.130415 0.941179 -0.305841
O32   O     O_R   0.260476 0.254281 0.824067 -0.360886
C33   C     C_3   0.209668 0.799431 0.012162 -0.292177
H19   H     H_    0.234697 0.837798 0.123795 0.158769
H20   H     H_    0.259164 0.746725 0.979897 0.132925
H21   H     H_    0.218047 0.840267 0.886403 0.141470
C34   C     C_3   0.790338 0.299392 0.987666 -0.292151
H22   H     H_    0.765335 0.337752 0.876001 0.158779
H23   H     H_    0.740846 0.246684 0.019888 0.132913
H24   H     H_    0.781913 0.340232 0.113413 0.141393
C35   C     C_3   0.070600 0.923343 0.984178 -0.373883
H25   H     H_    0.016800 0.972893 0.002590 0.093629
H26   H     H_    0.133300 0.950749 0.030878 0.192352
H27   H     H_    0.089543 0.913995 0.832091 0.156987
C36   C     C_3   0.929375 0.423310 0.015832 -0.373827
H28   H     H_    0.983174 0.472856 0.997558 0.093664
H29   H     H_    0.866703 0.450729 0.969053 0.192383
H30   H     H_    0.910384 0.413936 0.167888 0.156979
N7    N     N_R   0.016629 0.875852 0.303176 0.145253
O33   O     O_R   0.952446 0.843770 0.428315 -0.315940
O34   O     O_R   0.056961 0.943254 0.352349 -0.300578
N8    N     N_R   0.983399 0.375847 0.696810 0.145277
O35   O     O_R   0.047552 0.343726 0.571663 -0.315912
O36   O     O_R   0.943200 0.443322 0.647704 -0.300690
N9    N     N_R   0.137488 0.771085 0.666224 0.091809
O37   O     O_R   0.217561 0.733182 0.647249 -0.361481
O38   O     O_R   0.132713 0.838052 0.566341 -0.296420
N10   N     N_R   0.862508 0.271131 0.333707 0.091680
O39   O     O_R   0.782429 0.233234 0.352669 -0.361533
O40   O     O_R   0.867319 0.338028 0.433783 -0.296395

loop_
_geom_bond_atom_site_label_1
_geom_bond_atom_site_label_2
_geom_bond_distance
_ccdc_geom_bond_type
H3    C21   1.094163 S    
N5    O29   1.302486 A    
C25   C27   1.353171 D    
C33   H19   1.112202 S    
C9    C17   1.605076 S    
C22   N6    1.478446 S    
O4    C2    1.327717 A    
V1    O19   1.751330 S    
C14   H10   1.107292 S    
C24   N4    1.495990 S    
C34   H22   1.112163 S    
C28   C32   1.479741 S    
C36   H29   1.110554 S    
C8    C18   1.539451 S    
C35   H25   1.108781 S    
C33   H21   1.100822 S    
N4    O28   1.299255 A    
H2    C14   1.109772 S    
O3    C1    1.327707 A    
N7    O34   1.305239 A    
C9    C11   1.629148 S    
N2    O24   1.301255 A    
C3    C30   1.484007 S    
H12   C32   1.086520 S    
O12   V4    2.030177 S    
N9    O37   1.301712 A    
C10   C34   1.573493 S    
O13   V3    1.746076 S    
C23   N3    1.495959 S    
C14   C18   1.576511 S    
C29   C31   1.353020 D    
O7    C3    1.327539 A    
N10   O39   1.301760 A    
C15   N9    1.479692 S    
O5    C7    1.316835 A    
O7    V1    2.012913 S    
O6    C8    1.316817 A    
O8    V2    2.012896 S    
C19   C21   1.582919 S    
C11   C19   1.626435 S    
C20   C22   1.582902 S    
O3    V1    2.029835 S    
C10   C18   1.605067 S    
C10   C12   1.629172 S    
C11   N7    1.485868 S    
C7    C17   1.539467 S    
C2    O12   1.312408 A    
C1    O11   1.312412 A    
C35   H26   1.110569 S    
N8    O36   1.305111 A    
N8    O35   1.289922 A    
N3    O26   1.299243 A    
C16   C18   1.546296 S    
O11   V3    2.030190 S    
C23   H7    1.097219 S    
O17   V3    2.017506 S    
C36   H30   1.084275 S    
C24   H8    1.097232 S    
H14   C28   1.086861 S    
N4    O27   1.302264 A    
C34   H23   1.110781 S    
C21   N5    1.478457 S    
N2    O23   1.290987 A    
C5    C20   1.544595 S    
C25   H17   1.086829 S    
N9    O38   1.297145 A    
C27   C31   1.479731 S    
O15   V3    2.034636 S    
N3    O25   1.302253 A    
H15   C29   1.086851 S    
C26   C28   1.353181 D    
N1    O21   1.291010 A    
C12   N8    1.485870 S    
H13   C27   1.086862 S    
N1    O22   1.301270 A    
N6    O32   1.301148 A    
C16   N10   1.479681 S    
O9    V1    2.027390 S    
O10   V2    2.027397 S    
O1    V3    2.010689 S    
C20   C24   1.594734 S    
C15   C17   1.546286 S    
C1    C25   1.483651 S    
C2    C26   1.483662 S    
O14   V4    1.746075 S    
O18   V4    2.017528 S    
C35   H27   1.084357 S    
O15   C5    1.328749 A    
O8    C4    1.327530 A    
C4    C29   1.483995 S    
O16   C6    1.328740 A    
O1    C3    1.312507 A    
C34   H24   1.100763 S    
C12   C20   1.626425 S    
V2    O20   1.751330 S    
C6    C19   1.544583 S    
C26   H18   1.086828 S    
O16   V4    2.034613 S    
C12   C36   1.575389 S    
C11   C35   1.575386 S    
C9    C33   1.573481 S    
O5    V1    2.007944 S    
O17   C7    1.330907 A    
O6    V2    2.007937 S    
C36   H28   1.108721 S    
O10   C6    1.319759 A    
O18   C8    1.330914 A    
O2    V4    2.010705 S    
N5    O30   1.301168 A    
C13   H9    1.107301 S    
V3    O19   2.202601 S    
H4    C22   1.094159 S    
N7    O33   1.289923 A    
C10   N2    1.472785 S    
V4    O20   2.202603 S    
N6    O31   1.302419 A    
C33   H20   1.110822 S    
C19   C23   1.594755 S    
O9    C5    1.319758 A    
O13   V1    2.210447 S    
C15   C23   1.586413 S    
O14   V2    2.210445 S    
H1    C13   1.109764 S    
O2    C4    1.312511 A    
N10   O40   1.297033 A    
O4    V2    2.029853 S    
C16   C24   1.586407 S    
H16   C30   1.086850 S    
C14   C22   1.567476 S    
C13   C17   1.576472 S    
C9    N1    1.472753 S    
C30   C32   1.353031 D    
C15   H5    1.094871 S    
C13   C21   1.567445 S    
C16   H6    1.094826 S    
H11   C31   1.086521 S    
