data_mof_unit_45912.cif
_audit_creation_date              2012-10-26T20:42:31-0400
_audit_creation_method            fapswitch 2.2
_symmetry_space_group_name_H-M    P1
_symmetry_Int_Tables_number       1
_space_group_crystal_system       triclinic
_cell_length_a                    10.832531
_cell_length_b                    9.520519
_cell_length_c                    10.966297
_cell_angle_alpha                 90.000018
_cell_angle_beta                  90.142168
_cell_angle_gamma                 90.0
_cell_volume                      1130.96517286

loop_
_atom_site_label
_atom_site_type_symbol
_atom_type_description
_atom_site_fract_x
_atom_site_fract_y
_atom_site_fract_z
_atom_type_partial_charge
C1    C     C_R   0.262068 0.499946 0.499845 0.559575
C2    C     C_R   0.936141 0.372256 0.500153 -0.104979
C3    C     C_R   0.871778 0.499915 0.500205 0.034338
C4    C     C_R   0.128222 0.499915 0.499795 0.034336
C5    C     C_R   0.936147 0.627557 0.500112 -0.127180
C6    C     C_R   0.063853 0.627557 0.499888 -0.127180
C7    C     C_R   0.406587 0.074315 0.445560 0.064786
C8    C     C_R   0.593413 0.074315 0.554440 0.064787
C9    C     C_R   0.407004 0.925632 0.444809 0.037647
C10   C     C_R   0.592996 0.925632 0.555191 0.037649
C11   C     C_R   0.737932 0.499946 0.500155 0.559580
C12   C     C_R   0.498349 0.499650 0.265244 0.588556
C13   C     C_R   0.501652 0.499650 0.734756 0.588561
C14   C     C_2   0.520363 0.388916 0.936759 0.253434
C15   C     C_2   0.479645 0.388914 0.063240 0.253434
C16   C     C_2   0.488429 0.498652 0.866069 -0.128801
C17   C     C_2   0.511572 0.498652 0.133931 -0.128805
C18   C     C_R   0.063859 0.372256 0.499847 -0.104981
Cu1   Cu    Cu3+1 0.500000 0.640660 0.500000 0.981865
Cu2   Cu    Cu3+1 0.500000 0.359340 0.500000 1.082380
H1    H     H_    0.331697 0.129971 0.401721 0.157040
H2    H     H_    0.111876 0.727363 0.499815 0.130536
H3    H     H_    0.332723 0.869895 0.399931 0.118624
H4    H     H_    0.667277 0.869895 0.600069 0.118625
H5    H     H_    0.668303 0.129972 0.598278 0.157040
H6    H     H_    0.729643 0.092833 0.979574 0.365372
H7    H     H_    0.270440 0.092766 0.020414 0.365371
H8    H     H_    0.439661 0.587465 0.905624 0.069791
H9    H     H_    0.560335 0.587469 0.094376 0.069797
H10   H     H_    0.111896 0.272458 0.499706 0.135969
H11   H     H_    0.888104 0.272458 0.500295 0.135970
H12   H     H_    0.888124 0.727363 0.500184 0.130536
N1    N     N_R   0.500000 0.852070 0.500000 -0.234444
N2    N     N_R   0.500000 0.147940 0.500000 -0.229497
O1    O     O_R   0.319640 0.618740 0.499990 -0.524270
O2    O     O_2   0.713725 0.299631 0.803029 -0.315597
O3    O     O_3   0.684482 0.175337 0.011680 -0.478260
O4    O     O_2   0.461992 0.138556 0.173189 -0.250202
O5    O     O_2   0.286286 0.299611 0.196967 -0.315577
O6    O     O_3   0.315543 0.175318 0.988318 -0.478256
O7    O     O_R   0.680360 0.618740 0.500010 -0.524269
O8    O     O_R   0.319620 0.381170 0.499990 -0.511487
O9    O     O_R   0.680380 0.381170 0.500010 -0.511484
O10   O     O_R   0.500000 0.618750 0.321940 -0.504279
O11   O     O_R   0.500000 0.618750 0.678060 -0.504279
O12   O     O_R   0.499970 0.381180 0.321940 -0.427497
O13   O     O_R   0.500030 0.381180 0.678060 -0.427500
O14   O     O_2   0.538033 0.138558 0.826812 -0.250194
S1    S     S_3+6 0.615980 0.247772 0.889106 0.056705
S2    S     S_3+6 0.384037 0.247761 0.110893 0.056713

loop_
_geom_bond_atom_site_label_1
_geom_bond_atom_site_label_2
_ccdc_geom_bond_type
C12   C17   S    
C16   H8    S    
Cu2   O8    S    
Cu1   O11   S    
H6    O3    S    
C11   O9    A    
C18   H10   S    
C13   O11   A    
C2    C18   A    
O3    S1    S    
Cu1   Cu2   S    
H7    O6    S    
C5    H12   S    
Cu2   N2    S    
O5    S2    D    
C2    C3    A    
C4    C18   A    
C12   O10   A    
Cu1   O1    S    
C9    N1    A    
C8    H5    S    
O6    S2    S    
C4    C6    A    
O14   S1    D    
C11   O7    A    
C10   N1    A    
C5    C6    A    
C7    N2    A    
C14   C16   D    
C13   C16   S    
C14   S1    S    
C3    C11   S    
O4    S2    D    
Cu2   O13   S    
C7    C9    A    
C1    O8    A    
Cu2   O9    S    
C17   H9    S    
Cu1   O10   S    
C1    O1    A    
C12   O12   A    
Cu1   N1    S    
C15   S2    S    
C1    C4    S    
C15   C17   D    
C14   C15   S    
C9    H3    S    
C8    N2    A    
C10   H4    S    
C7    H1    S    
C13   O13   A    
C8    C10   A    
Cu2   O12   S    
O2    S1    D    
Cu1   O7    S    
C2    H11   S    
C3    C5    A    
C6    H2    S    
