data_mof_unit_48352.cif
_audit_creation_date              2012-12-11T15:50:32-0500
_audit_creation_method            fapswitch 2.2
_symmetry_space_group_name_H-M    P1
_symmetry_Int_Tables_number       1
_space_group_crystal_system       triclinic
_cell_length_a                    18.97338
_cell_length_b                    11.135448
_cell_length_c                    18.751248
_cell_angle_alpha                 90.173263
_cell_angle_beta                  90.949154
_cell_angle_gamma                 89.778368
_cell_volume                      3961.11846156

loop_
_atom_site_label
_atom_site_type_symbol
_atom_type_description
_atom_site_fract_x
_atom_site_fract_y
_atom_site_fract_z
_atom_type_partial_charge
C1    C     C_R   0.272548 0.042586 0.853717 0.583497
C2    C     C_R   0.780626 0.517470 0.938261 0.050731
C3    C     C_R   0.229686 0.546938 0.352870 0.560872
C4    C     C_R   0.471862 0.823301 0.648487 0.569709
C5    C     C_R   0.535323 0.824139 0.355852 0.624427
C6    C     C_R   0.972592 0.323133 0.649044 0.565118
C7    C     C_R   0.057881 0.320728 0.360672 0.579845
C8    C     C_R   0.259751 0.637657 0.643386 0.551315
C9    C     C_R   0.739205 0.639349 0.356886 0.554384
C10   C     C_R   0.759954 0.138215 0.643152 0.551077
C11   C     C_R   0.239545 0.138359 0.356573 0.549005
C12   C     C_3   0.500401 0.938609 0.022107 -0.128189
C13   C     C_R   0.725503 0.037251 0.064645 -0.022637
C14   C     C_3   0.551064 0.884741 0.966036 -0.140241
C15   C     C_3   0.951433 0.384130 0.033530 -0.157946
C16   C     C_3   0.001862 0.438686 0.977916 -0.129289
C17   C     C_3   0.438674 0.870636 0.986284 0.358513
C18   C     C_3   0.562790 0.775246 0.013765 0.369981
C19   C     C_3   0.940550 0.274957 0.985186 0.363162
C20   C     C_3   0.063950 0.370379 0.013247 0.360565
C21   C     C_3   0.489159 0.819965 0.931102 0.008568
C22   C     C_3   0.512249 0.827275 0.068801 -0.014065
C23   C     C_3   0.990581 0.327692 0.930382 -0.002282
C24   C     C_R   0.255869 0.086869 0.925241 -0.002262
C25   C     C_3   0.013576 0.319227 0.067986 -0.005072
C26   C     C_2   0.542927 0.047323 0.593596 0.596250
C27   C     C_2   0.506766 0.057554 0.430954 0.609460
C28   C     C_2   0.045695 0.547539 0.596277 0.591797
C29   C     C_2   0.009889 0.547736 0.435050 0.624550
C30   C     C_2   0.118046 0.640735 0.921521 0.592574
C31   C     C_2   0.893005 0.635148 0.091465 0.584812
C32   C     C_2   0.608818 0.129883 0.908665 0.547341
C33   C     C_2   0.382126 0.140110 0.078453 0.595344
C34   C     C_R   0.305865 0.557726 0.039489 0.020556
C35   C     C_R   0.727143 0.463560 0.976854 0.051721
C36   C     C_R   0.789643 0.017014 0.031945 0.109018
C37   C     C_R   0.194491 0.057008 0.960712 0.017898
C38   C     C_R   0.309662 0.565430 0.965680 -0.045863
C39   C     C_R   0.718571 0.484634 0.048921 -0.030709
C40   C     C_R   0.796974 0.033619 0.959478 0.053993
C41   C     C_R   0.712317 0.004634 0.138522 0.559828
C42   C     C_R   0.190780 0.064579 0.034508 -0.046896
C43   C     C_R   0.186921 0.625025 0.959602 0.050558
C44   C     C_R   0.828337 0.592701 0.052247 -0.017810
C45   C     C_R   0.675110 0.098831 0.949384 -0.014159
C46   C     C_R   0.313200 0.124598 0.040503 0.052468
C47   C     C_R   0.187821 0.634901 0.033828 -0.101930
C48   C     C_R   0.834007 0.574866 0.978157 -0.170071
C49   C     C_R   0.669572 0.084136 0.023281 -0.172755
C50   C     C_R   0.312024 0.134925 0.966354 -0.101057
C51   C     C_3   0.350277 0.448215 0.042943 0.293484
C52   C     C_R   0.789522 0.500011 0.861048 0.579598
C53   C     C_3   0.650583 0.446458 0.963561 0.277089
C54   C     C_3   0.835538 0.909210 0.032513 0.287009
C55   C     C_3   0.150662 0.947393 0.956867 0.296366
C56   C     C_3   0.354422 0.454842 0.962383 -0.191319
C57   C     C_3   0.640942 0.462145 0.043852 -0.164897
C58   C     C_3   0.843005 0.925321 0.952614 -0.197508
C59   C     C_3   0.146689 0.953811 0.037467 -0.189029
C60   C     C_R   0.249742 0.592850 0.924073 0.000828
C61   C     C_R   0.763374 0.563732 0.086283 0.027800
C62   C     C_R   0.741062 0.073635 0.916376 0.000186
C63   C     C_R   0.227501 0.542630 0.146314 0.586065
C64   C     C_R   0.250615 0.092163 0.076037 0.000669
C65   C     C_R   0.522669 0.834831 0.432563 0.004280
C66   C     C_R   0.510554 0.830863 0.581504 -0.029094
C67   C     C_R   0.042878 0.330578 0.437183 -0.017610
C68   C     C_R   0.014956 0.329494 0.584214 -0.034515
C69   C     C_R   0.468398 0.819882 0.856035 0.616262
C70   C     C_R   0.531956 0.821173 0.143870 0.603706
C71   C     C_R   0.969081 0.321332 0.855636 0.601930
C72   C     C_R   0.032814 0.319634 0.143377 0.615053
C73   C     C_R   0.526755 0.728018 0.469786 -0.079398
C74   C     C_3   0.501667 0.707406 0.977559 -0.085007
C75   C     C_R   0.517645 0.725180 0.542065 0.050576
C76   C     C_R   0.040261 0.223667 0.474594 -0.076542
C77   C     C_R   0.024110 0.222916 0.545833 0.060188
C78   C     C_R   0.524096 0.942061 0.547679 -0.026356
C79   C     C_R   0.521632 0.945381 0.471153 -0.012127
C80   C     C_R   0.031494 0.439610 0.550965 -0.026862
C81   C     C_R   0.035501 0.441263 0.474949 -0.007844
C82   C     C_3   0.479756 0.624354 0.455933 0.331202
C83   C     C_3   0.467227 0.622566 0.534743 0.337429
C84   C     C_3   0.990641 0.123163 0.458016 0.336219
C85   C     C_3   0.450698 0.759838 0.033527 -0.130106
C86   C     C_3   0.972517 0.122964 0.535451 0.340379
C87   C     C_R   0.250183 0.588772 0.422512 0.062152
C88   C     C_R   0.756055 0.582547 0.575562 0.016101
C89   C     C_R   0.750296 0.090902 0.422031 0.052311
C90   C     C_R   0.256405 0.080509 0.575090 0.020170
C91   C     C_R   0.199586 0.654474 0.457095 0.020837
C92   C     C_R   0.815445 0.606407 0.535743 -0.045992
C93   C     C_R   0.698499 0.153679 0.457121 0.012620
C94   C     C_R   0.315761 0.105770 0.535772 -0.045289
C95   C     C_R   0.197639 0.656875 0.530090 0.047292
C96   C     C_3   0.052438 0.259837 0.965169 -0.115452
C97   C     C_R   0.811243 0.614553 0.463127 0.034920
C98   C     C_R   0.697158 0.156216 0.530098 0.041056
C99   C     C_R   0.311996 0.113627 0.462947 0.021616
C100  C     C_R   0.299767 0.527942 0.536735 -0.179477
C101  C     C_R   0.686873 0.567711 0.467694 -0.154390
C102  C     C_R   0.801622 0.032304 0.535850 -0.175264
C103  C     C_R   0.188203 0.063354 0.466848 -0.158555
C104  C     C_R   0.302420 0.528769 0.462422 0.358122
C105  C     C_R   0.691003 0.563855 0.541778 0.323410
C106  C     C_R   0.804049 0.033875 0.461521 0.351679
C107  C     C_3   0.001749 0.206876 0.020887 -0.093299
C108  C     C_R   0.191744 0.060799 0.540972 0.318674
C109  C     C_3   0.189446 0.785785 0.449398 -0.265542
C110  C     C_3   0.858330 0.716761 0.544418 -0.236010
C111  C     C_3   0.684759 0.284268 0.449392 -0.261896
C112  C     C_3   0.355663 0.218756 0.545207 -0.234736
C113  C     C_3   0.185323 0.789374 0.529107 -0.175779
C114  C     C_3   0.850481 0.730760 0.465618 -0.172490
C115  C     C_3   0.682140 0.288138 0.529251 -0.177692
C116  C     C_3   0.348071 0.232547 0.466616 -0.174013
C117  C     C_R   0.260274 0.635985 0.851387 0.567886
C118  C     C_R   0.244161 0.586970 0.074919 -0.000427
C119  C     C_R   0.741500 0.632127 0.150265 0.583997
C120  C     C_R   0.758525 0.131977 0.849065 0.591132
C121  C     C_R   0.239841 0.135837 0.148685 0.570500
C122  C     C_R   0.248259 0.595629 0.571279 -0.051141
C123  C     C_R   0.747360 0.594571 0.428015 -0.044913
C124  C     C_R   0.749016 0.097097 0.570826 -0.044404
C125  C     C_R   0.248460 0.091674 0.427394 -0.042548
C126  C     C_R   0.270976 0.046310 0.646958 0.568824
C127  C     C_R   0.729782 0.047467 0.352662 0.577457
C128  C     C_R   0.770892 0.546750 0.647137 0.585762
Cr1   Cr    Cr6+3 0.229640 0.835880 0.747370 1.124409
Cr2   Cr    Cr6+3 0.614230 0.677220 0.250660 1.069233
Cr3   Cr    Cr6+3 0.885770 0.177220 0.749340 1.108683
Cr4   Cr    Cr6+3 0.114230 0.177220 0.250660 1.061888
Cr5   Cr    Cr6+3 0.770360 0.835880 0.252630 1.150332
Cr6   Cr    Cr6+3 0.729640 0.335880 0.747370 1.126005
Cr7   Cr    Cr6+3 0.270360 0.335880 0.252630 1.121175
Cr8   Cr    Cr6+3 0.387390 0.989720 0.750850 1.092250
Cr9   Cr    Cr6+3 0.612610 0.989720 0.249150 1.071907
Cr10  Cr    Cr6+3 0.887390 0.489720 0.750850 1.070789
Cr11  Cr    Cr6+3 0.112610 0.489720 0.249150 1.103398
Cr12  Cr    Cr6+3 0.385770 0.677220 0.749340 1.092179
F1    F     F_    0.372287 0.912153 0.969053 -0.656941
F2    F     F_    0.632916 0.539189 0.580099 -0.578271
F3    F     F_    0.859232 0.982380 0.427930 -0.599825
F4    F     F_    0.133644 0.035396 0.579052 -0.586640
F5    F     F_    0.414356 0.470727 0.076635 -0.617846
F6    F     F_    0.622042 0.539829 0.923975 -0.594291
F7    F     F_    0.897604 0.931225 0.070018 -0.585894
F8    F     F_    0.086397 0.969912 0.923427 -0.607840
F9    F     F_    0.630301 0.735161 0.028982 -0.640729
F10   F     F_    0.874531 0.232366 0.968343 -0.645127
F11   F     F_    0.130134 0.411448 0.031027 -0.658064
F12   F     F_    0.421503 0.661505 0.416198 -0.603518
F13   F     F_    0.492234 0.518889 0.566990 -0.566196
F14   F     F_    0.934967 0.162598 0.415296 -0.580210
F15   F     F_    0.993435 0.018603 0.569764 -0.570254
F16   F     F_    0.357042 0.475046 0.429119 -0.602236
H1    H     H_    0.016305 0.039599 0.438799 0.166868
H2    H     H_    0.912703 0.696500 0.562491 0.228417
H3    H     H_    0.633532 0.305099 0.422753 0.205697
H4    H     H_    0.410191 0.202687 0.563885 0.233267
H5    H     H_    0.237092 0.830700 0.428459 0.143541
H6    H     H_    0.831070 0.787120 0.575803 0.140137
H7    H     H_    0.730627 0.332721 0.427276 0.140050
H8    H     H_    0.326230 0.286411 0.576593 0.134590
H9    H     H_    0.230470 0.837819 0.553800 0.142232
H10   H     H_    0.813183 0.803170 0.451672 0.198048
H11   H     H_    0.726759 0.339145 0.553017 0.143530
H12   H     H_    0.917867 0.151956 0.546229 0.127984
H13   H     H_    0.308231 0.300974 0.452766 0.197798
H14   H     H_    0.132292 0.813895 0.548799 0.269324
H15   H     H_    0.900855 0.730706 0.436757 0.220661
H16   H     H_    0.629145 0.310320 0.549951 0.267695
H17   H     H_    0.398875 0.237891 0.438782 0.223742
H18   H     H_    0.502326 0.031790 0.041523 0.185303
H19   H     H_    0.595825 0.913687 0.934230 0.168954
H20   H     H_    0.908069 0.413828 0.067300 0.156954
H21   H     H_    0.999154 0.532153 0.959325 0.181738
H22   H     H_    0.502869 0.613031 0.958804 0.206988
H23   H     H_    0.507193 0.543994 0.434461 0.180153
H24   H     H_    0.409550 0.713394 0.063988 0.185621
H25   H     H_    0.093674 0.214241 0.933996 0.181399
H26   H     H_    0.998800 0.112563 0.039344 0.207756
H27   H     H_    0.138950 0.660443 0.058953 0.187776
H28   H     H_    0.881020 0.604611 0.951639 0.164845
H29   H     H_    0.619405 0.101253 0.048019 0.169613
H30   H     H_    0.360660 0.160783 0.941204 0.187135
H31   H     H_    0.807065 0.827374 0.048474 0.135506
H32   H     H_    0.179483 0.868266 0.936269 0.159828
H33   H     H_    0.321794 0.368994 0.063145 0.161851
H34   H     H_    0.413245 0.649089 0.549694 0.126696
H35   H     H_    0.638270 0.356606 0.942324 0.165843
H36   H     H_    0.408148 0.473789 0.942833 0.180303
H37   H     H_    0.607212 0.538575 0.059369 0.244152
H38   H     H_    0.897379 0.948906 0.936580 0.221865
H39   H     H_    0.092911 0.972430 0.057268 0.191388
H40   H     H_    0.327067 0.379866 0.934395 0.097209
H41   H     H_    0.626755 0.376544 0.070311 0.108624
H42   H     H_    0.817659 0.852471 0.920737 0.104022
H43   H     H_    0.174599 0.878973 0.065084 0.095667
H44   H     H_    0.585775 0.104630 0.686933 0.369587
H45   H     H_    0.341844 0.485353 0.566982 0.175084
H46   H     H_    0.452793 0.133109 0.348646 0.341207
H47   H     H_    0.080402 0.611217 0.691522 0.363911
H48   H     H_    0.024448 0.718768 0.404605 0.329425
H49   H     H_    0.024360 0.727240 0.916045 0.364299
H50   H     H_    0.987140 0.718514 0.086781 0.370785
H51   H     H_    0.510842 0.201420 0.910594 0.359651
H52   H     H_    0.475462 0.226558 0.084058 0.360373
H53   H     H_    0.636042 0.555415 0.441856 0.151532
H54   H     H_    0.844204 0.990530 0.565818 0.176793
H55   H     H_    0.138012 0.048319 0.440542 0.140984
H56   H     H_    0.139523 0.811068 0.421726 0.182905
O1    O     O_R   0.214300 0.709080 0.827500 -0.489663
O2    O     O_R   0.543340 0.717710 0.330180 -0.491603
O3    O     O_R   0.956660 0.217710 0.669820 -0.479297
O4    O     O_R   0.043340 0.217710 0.330180 -0.453996
O5    O     O_R   0.320590 0.625770 0.672930 -0.514664
O6    O     O_R   0.679410 0.625770 0.327070 -0.532436
O7    O     O_R   0.820590 0.125770 0.672930 -0.514517
O8    O     O_R   0.179410 0.125770 0.327070 -0.541850
O9    O     O_3   0.334270 0.834280 0.749190 -0.300458
O10   O     O_3   0.665730 0.834280 0.250810 -0.322704
O11   O     O_3   0.834270 0.334280 0.749190 -0.323086
O12   O     O_R   0.785700 0.709080 0.172500 -0.479293
O13   O     O_3   0.165730 0.334280 0.250810 -0.318935
O14   O     O_R   0.236190 0.958390 0.823150 -0.484198
O15   O     O_R   0.763810 0.958390 0.176850 -0.459312
O16   O     O_R   0.736190 0.458390 0.823150 -0.450001
O17   O     O_R   0.263810 0.458390 0.176850 -0.483267
O18   O     O_R   0.332090 0.075280 0.831290 -0.513459
O19   O     O_R   0.667910 0.075280 0.168710 -0.521855
O20   O     O_R   0.832090 0.575280 0.831290 -0.523738
O21   O     O_R   0.167910 0.575280 0.168710 -0.514302
O22   O     O_R   0.446280 0.918040 0.826620 -0.451413
O23   O     O_R   0.714300 0.209080 0.827500 -0.496598
O24   O     O_R   0.553720 0.918040 0.173380 -0.504237
O25   O     O_R   0.946280 0.418040 0.826620 -0.507255
O26   O     O_R   0.053720 0.418040 0.173380 -0.447431
O27   O     O_R   0.457080 0.716270 0.831760 -0.503818
O28   O     O_R   0.542920 0.716270 0.168240 -0.472116
O29   O     O_R   0.957080 0.216270 0.831760 -0.458128
O30   O     O_R   0.042920 0.216270 0.168240 -0.505184
O31   O     O_R   0.320980 0.624440 0.823040 -0.502954
O32   O     O_R   0.679020 0.624440 0.176960 -0.488555
O33   O     O_R   0.820980 0.124440 0.823040 -0.476649
O34   O     O_R   0.285700 0.209080 0.172500 -0.485116
O35   O     O_R   0.179020 0.124440 0.176960 -0.502488
O36   O     O_R   0.213880 0.710510 0.665560 -0.501499
O37   O     O_R   0.786120 0.710510 0.334440 -0.486496
O38   O     O_R   0.713880 0.210510 0.665560 -0.506424
O39   O     O_R   0.286120 0.210510 0.334440 -0.496885
O40   O     O_R   0.235800 0.959720 0.673040 -0.460247
O41   O     O_R   0.764200 0.959720 0.326960 -0.445597
O42   O     O_R   0.735800 0.459720 0.673040 -0.455824
O43   O     O_R   0.264200 0.459720 0.326960 -0.450387
O44   O     O_R   0.331670 0.076720 0.669350 -0.531747
O45   O     O_R   0.445900 0.919370 0.676500 -0.482109
O46   O     O_R   0.668330 0.076720 0.330650 -0.512740
O47   O     O_R   0.831670 0.576720 0.669350 -0.523772
O48   O     O_R   0.168330 0.576720 0.330650 -0.525406
O49   O     O_2   0.530863 0.150015 0.574664 -0.497875
O50   O     O_R   0.576296 0.027471 0.659659 -0.660728
O51   O     O_2   0.542529 0.147025 0.440072 -0.498963
O52   O     O_R   0.453518 0.057201 0.378377 -0.675039
O53   O     O_2   0.036362 0.648867 0.573513 -0.498613
O54   O     O_R   0.072762 0.532222 0.665552 -0.660297
O55   O     O_2   0.955973 0.539095 0.398774 -0.490098
O56   O     O_R   0.554100 0.919370 0.323500 -0.479083
O57   O     O_R   0.047266 0.654959 0.435869 -0.667803
O58   O     O_2   0.104483 0.581428 0.868013 -0.495383
O59   O     O_R   0.067884 0.720929 0.947953 -0.678835
O60   O     O_2   0.904085 0.604932 0.153345 -0.476380
O61   O     O_R   0.944520 0.699565 0.055462 -0.659554
O62   O     O_2   0.600049 0.094732 0.847263 -0.491601
O63   O     O_R   0.553778 0.189761 0.942780 -0.723754
O64   O     O_2   0.395985 0.080905 0.131783 -0.493623
O65   O     O_R   0.431981 0.220043 0.052122 -0.684334
O66   O     O_R   0.945900 0.419370 0.676500 -0.476340
O67   O     O_R   0.054100 0.419370 0.323500 -0.458615
O68   O     O_R   0.456660 0.717710 0.669820 -0.476066

loop_
_geom_bond_atom_site_label_1
_geom_bond_atom_site_label_2
_ccdc_geom_bond_type
C9    O6    A    
H49   O59   S    
C87   C91   A    
C35   C53   S    
C32   C45   S    
C17   C85   S    
C14   C21   S    
Cr11  O67   S    
C84   C86   S    
C10   C124  S    
C51   F5    S    
C100  C104  A    
C19   F10   S    
C37   C42   A    
C84   F14   S    
C6    O3    A    
C41   O19   A    
C89   C106  A    
C10   O7    A    
Cr4   O4    S    
C73   C75   A    
Cr7   O34   S    
H52   O65   S    
C7    O67   A    
C39   C61   A    
C40   C58   S    
Cr3   O3    S    
C47   H27   S    
Cr3   O29   S    
Cr5   O41   S    
C99   C116  S    
C48   H28   S    
C63   C118  S    
C59   H39   S    
Cr9   O10   S    
C17   C21   S    
C19   C23   S    
C14   H19   S    
C100  H45   S    
C74   H22   S    
C16   C20   S    
Cr11  O48   S    
Cr5   O10   S    
C90   C126  S    
C127  O46   A    
C60   C117  S    
C117  O1    A    
C69   O27   A    
Cr6   O42   S    
C2    C52   S    
C117  O31   A    
C95   C122  A    
C5    C65   S    
C121  O34   A    
C54   H31   S    
C4    O68   A    
C30   C43   S    
Cr6   O38   S    
C6    O66   A    
C42   C64   A    
C108  F4    S    
C25   C107  S    
C12   H18   S    
C89   C127  S    
C68   C77   A    
C112  H4    S    
C57   H41   S    
C52   O20   A    
Cr5   O15   S    
C115  H16   S    
Cr4   O35   S    
C113  H14   S    
C33   O64   D    
C20   F11   S    
C29   O57   S    
Cr10  O20   S    
C4    C66   S    
C27   O52   S    
C53   F6    S    
C9    C123  S    
Cr2   O2    S    
C57   H37   S    
C31   O60   D    
C126  O44   A    
C82   C83   S    
C43   C47   A    
C44   C48   A    
C1    O14   A    
C34   C118  A    
C65   C79   A    
C55   C59   S    
Cr12  O68   S    
C83   H34   S    
C96   H25   S    
C110  H6    S    
C98   C124  A    
C34   C51   S    
C26   C78   S    
C116  H17   S    
C126  O40   A    
C15   C25   S    
C66   C75   A    
C12   C22   S    
C45   C62   A    
Cr5   O12   S    
C22   C85   S    
Cr2   O6    S    
C8    O5    A    
Cr2   O32   S    
Cr8   O22   S    
Cr11  O21   S    
C128  O42   A    
C110  C114  S    
C7    O4    A    
C20   C96   S    
Cr10  O66   S    
C70   O28   A    
C92   C97   A    
C24   C50   A    
C114  H15   S    
C72   O30   A    
C86   H12   S    
C103  H55   S    
C105  F2    S    
C101  H53   S    
C28   O53   D    
C21   C69   S    
C10   O38   A    
Cr1   O14   S    
C24   C37   A    
C55   H32   S    
C38   C60   A    
C67   C81   A    
C16   C23   S    
C50   H30   S    
Cr5   O37   S    
C112  C116  S    
Cr7   O13   S    
H50   O61   S    
C127  O41   A    
Cr7   O39   S    
H47   O54   S    
C110  H2    S    
C42   C59   S    
C83   F13   S    
C44   C61   A    
C90   C108  A    
C97   C123  A    
C88   C105  A    
C8    C122  S    
C98   C115  S    
C85   H24   S    
C94   C112  S    
C74   C85   S    
C89   C93   A    
C103  C125  A    
C36   C54   S    
C7    C67   S    
C37   C55   S    
Cr12  O5    S    
C38   C56   S    
C1    C24   S    
Cr8   O45   S    
Cr3   O11   S    
C97   C114  S    
C22   C70   S    
C19   C107  S    
C2    C35   A    
C56   H36   S    
C4    O45   A    
C30   O58   D    
C76   C84   S    
C13   C41   S    
C106  F3    S    
C26   O49   D    
C15   C19   S    
C15   H20   S    
C11   C125  S    
C120  O23   A    
C113  H9    S    
Cr9   O56   S    
C20   C25   S    
C64   C121  S    
Cr10  O25   S    
C17   F1    S    
C111  H3    S    
C56   H40   S    
C1    O18   A    
C52   O16   A    
C47   C118  A    
C82   H23   S    
C119  O32   A    
C62   C120  S    
C51   H33   S    
C63   O17   A    
C18   C22   S    
Cr11  O26   S    
C33   C46   S    
C102  C124  A    
C90   C94   A    
C66   C78   A    
C107  H26   S    
C128  O47   A    
C23   C71   S    
Cr2   O10   S    
C53   C57   S    
H51   O63   S    
C2    C48   A    
Cr8   O18   S    
C58   H38   S    
Cr12  O27   S    
Cr6   O16   S    
C35   C39   A    
C86   F15   S    
C29   C81   S    
H44   O50   S    
C45   C49   A    
C27   O51   D    
C70   O24   A    
Cr9   O24   S    
C53   H35   S    
C93   C111  S    
C96   C107  S    
C29   O55   D    
C72   O26   A    
C31   O61   S    
C73   C82   S    
Cr10  O47   S    
Cr11  O13   S    
Cr12  O31   S    
C32   O63   S    
C75   C83   S    
Cr10  O11   S    
C5    O2    A    
C119  O12   A    
C87   C104  A    
C121  O35   A    
C8    O36   A    
C5    O56   A    
Cr6   O11   S    
Cr7   O17   S    
Cr7   O43   S    
C82   F12   S    
C3    O48   A    
Cr1   O36   S    
C68   C80   A    
C41   O15   A    
C61   C119  S    
C14   C18   S    
Cr9   O19   S    
C92   C110  S    
C55   F8    S    
C65   C73   A    
C99   C125  A    
C33   O65   S    
Cr9   O46   S    
Cr2   O28   S    
C101  C123  A    
C71   O25   A    
C27   C79   S    
Cr12  O9    S    
C15   C16   S    
C39   C57   S    
C112  H8    S    
C40   C62   A    
C23   C96   S    
Cr3   O7    S    
C51   C56   S    
Cr3   O33   S    
Cr8   O9    S    
C88   C92   A    
C59   H43   S    
Cr4   O8    S    
Cr6   O23   S    
C103  C108  A    
C18   F9    S    
C109  C113  S    
H48   O57   S    
C6    C68   S    
Cr1   O40   S    
C18   C74   S    
Cr1   O1    S    
C114  H10   S    
C101  C105  A    
C31   C44   S    
C3    C87   S    
C36   C40   A    
C111  H7    S    
C76   C77   A    
C71   O29   A    
C13   C36   A    
Cr1   O9    S    
C78   C79   A    
C102  H54   S    
C91   C95   A    
C21   C74   S    
C11   O39   A    
C46   C64   A    
C9    O37   A    
C69   O22   A    
C63   O21   A    
C49   H29   S    
C25   C72   S    
C104  F16   S    
C43   C60   A    
C13   C49   A    
C12   C14   S    
C77   C86   S    
C120  O33   A    
C115  H11   S    
C109  H56   S    
C16   H21   S    
C54   C58   S    
Cr4   O30   S    
C58   H42   S    
C34   C38   A    
Cr8   O44   S    
C30   O59   S    
C80   C81   A    
H46   O52   S    
C84   H1    S    
C26   O50   S    
C46   C50   A    
C91   C109  S    
C88   C128  S    
C109  H5    S    
Cr4   O13   S    
C12   C17   S    
C94   C99   A    
C95   C113  S    
C11   O8    A    
C116  H13   S    
C102  C106  A    
C100  C122  A    
C28   C80   S    
C3    O43   A    
C32   O62   D    
C28   O54   S    
C111  C115  S    
C67   C76   A    
C93   C98   A    
C54   F7    S    
