data_mof_unit_45322.cif
_audit_creation_date              2012-12-10T17:40:55-0500
_audit_creation_method            fapswitch 2.2
_symmetry_space_group_name_H-M    P1
_symmetry_Int_Tables_number       1
_space_group_crystal_system       triclinic
_cell_length_a                    15.122928
_cell_length_b                    15.250239
_cell_length_c                    9.932599
_cell_angle_alpha                 88.377554
_cell_angle_beta                  90.564643
_cell_angle_gamma                 89.30676
_cell_volume                      2289.53296509

loop_
_atom_site_label
_atom_site_type_symbol
_atom_type_description
_atom_site_fract_x
_atom_site_fract_y
_atom_site_fract_z
_atom_type_partial_charge
C1    C     C_R   0.384648 0.874971 0.503071 0.870119
C2    C     C_R   0.391437 0.128800 0.498442 0.896195
C3    C     C_R   0.886145 0.374115 0.503504 0.874557
C4    C     C_R   0.892068 0.629162 0.498606 0.897189
C5    C     C_R   0.301094 0.238377 0.376016 -0.196049
C6    C     C_R   0.306881 0.759503 0.389104 -0.191546
C7    C     C_R   0.803325 0.740423 0.376995 -0.199922
C8    C     C_R   0.816741 0.250041 0.397062 -0.190080
C9    C     C_R   0.733185 0.798288 0.381009 -0.192581
C10   C     C_R   0.751512 0.187789 0.393525 -0.203961
C11   C     C_R   0.230793 0.296034 0.379913 -0.183956
C12   C     C_R   0.242117 0.696861 0.383964 -0.183675
C13   C     C_R   0.694243 0.816944 0.504506 -0.107723
C14   C     C_R   0.708810 0.162489 0.511491 -0.105388
C15   C     C_R   0.192682 0.315615 0.503715 -0.108996
C16   C     C_R   0.209493 0.660404 0.503064 -0.111526
C17   C     C_R   0.339400 0.019169 0.136442 -0.150190
C18   C     C_R   0.840558 0.528611 0.135361 -0.131186
C19   C     C_R   0.260582 0.031749 0.064815 -0.161688
C20   C     C_R   0.762453 0.544891 0.063217 -0.170423
C21   C     C_R   0.260158 0.028740 0.925732 -0.181463
C22   C     C_R   0.761669 0.539197 0.924429 -0.183974
C23   C     C_R   0.338792 0.015004 0.857756 -0.157624
C24   C     C_R   0.839432 0.519821 0.857419 -0.151676
C25   C     C_R   0.420915 0.010435 0.926206 0.168393
C26   C     C_R   0.921425 0.513506 0.925937 0.161572
C27   C     C_R   0.421087 0.011244 0.070583 0.172984
C28   C     C_R   0.921822 0.515724 0.070165 0.172362
C29   C     C_R   0.574078 0.981598 0.073408 -0.061286
C30   C     C_R   0.073241 0.479285 0.073535 -0.076417
C31   C     C_R   0.627002 0.112453 0.501578 0.876964
C32   C     C_R   0.620163 0.878603 0.501911 0.855539
C33   C     C_R   0.127492 0.611236 0.500113 0.876359
C34   C     C_R   0.119673 0.378252 0.501766 0.852085
C35   C     C_R   0.574224 0.982498 0.930552 -0.108882
C36   C     C_R   0.073874 0.481341 0.930601 -0.086012
C37   C     C_R   0.371995 0.246647 0.736236 -0.035213
C38   C     C_R   0.326050 0.779364 0.769863 -0.059877
C39   C     C_R   0.873686 0.747093 0.737910 -0.038362
C40   C     C_R   0.826854 0.289273 0.773696 -0.047260
C41   C     C_R   0.331954 0.252118 0.863224 -0.029276
C42   C     C_R   0.278396 0.743848 0.877403 -0.035180
C43   C     C_R   0.833617 0.754193 0.864710 -0.023786
C44   C     C_R   0.769974 0.273682 0.882144 -0.045069
C45   C     C_R   0.741426 0.765759 0.870152 -0.007033
C46   C     C_R   0.715060 0.201972 0.878353 -0.005870
C47   C     C_R   0.239671 0.262492 0.868732 -0.004067
C48   C     C_R   0.252699 0.657163 0.869821 0.014457
C49   C     C_R   0.694001 0.784976 0.751678 -0.248280
C50   C     C_R   0.714414 0.152413 0.763798 -0.200292
C51   C     C_R   0.192378 0.282749 0.750374 -0.249433
C52   C     C_R   0.241101 0.622767 0.742807 -0.202688
C53   C     C_R   0.735200 0.785988 0.625979 0.061277
C54   C     C_R   0.742394 0.189509 0.638716 0.092151
C55   C     C_R   0.233621 0.284607 0.624894 0.057809
C56   C     C_R   0.251386 0.677778 0.626800 0.089943
C57   C     C_R   0.318408 0.248963 0.618421 0.039827
C58   C     C_R   0.305729 0.752157 0.636163 0.034436
C59   C     C_R   0.820094 0.749900 0.619688 0.040135
C60   C     C_R   0.803846 0.258312 0.642615 0.030516
C61   C     C_R   0.341942 0.210437 0.496273 -0.118061
C62   C     C_R   0.332326 0.794752 0.511966 -0.122903
C63   C     C_R   0.843500 0.711466 0.497194 -0.118864
C64   C     C_R   0.835985 0.292853 0.516149 -0.118677
H1    H     H_    0.320476 0.212940 0.280120 0.192233
H2    H     H_    0.333234 0.784684 0.295575 0.196099
H3    H     H_    0.822982 0.715469 0.280939 0.192684
H4    H     H_    0.849256 0.268140 0.304419 0.190525
H5    H     H_    0.198122 0.033428 0.870507 0.158450
H6    H     H_    0.699759 0.545286 0.869100 0.160329
H7    H     H_    0.332011 0.003761 0.752937 0.209435
H8    H     H_    0.831970 0.504934 0.753820 0.208970
H9    H     H_    0.634768 0.966928 0.879159 0.131648
H10   H     H_    0.134134 0.464913 0.879001 0.140940
H11   H     H_    0.623971 0.792066 0.757087 0.200630
H12   H     H_    0.690497 0.086660 0.774621 0.168591
H13   H     H_    0.122528 0.289643 0.754703 0.200592
H14   H     H_    0.222354 0.554844 0.734459 0.155709
H15   H     H_    0.707030 0.825147 0.287051 0.188834
H16   H     H_    0.732321 0.161890 0.297401 0.180267
H17   H     H_    0.203971 0.322039 0.285780 0.190317
H18   H     H_    0.215572 0.679357 0.286861 0.192831
H19   H     H_    0.635060 0.967880 0.128256 0.137852
H20   H     H_    0.132080 0.459483 0.129182 0.164658
H21   H     H_    0.332956 0.010802 0.242495 0.209427
H22   H     H_    0.832706 0.516528 0.240464 0.210793
H23   H     H_    0.198820 0.038528 0.117956 0.165705
H24   H     H_    0.700952 0.554416 0.116030 0.168371
N1    N     N_R   0.498810 0.000000 0.142780 -0.117432
N2    N     N_R   0.998810 0.500000 0.142780 -0.126812
N3    N     N_R   0.498740 0.000000 0.857170 -0.120351
N4    N     N_R   0.998740 0.500000 0.857170 -0.124117
O1    O     O_R   0.408390 0.908380 0.614690 -0.638846
O2    O     O_R   0.408390 0.091620 0.614690 -0.639449
O3    O     O_R   0.908390 0.408380 0.614690 -0.642067
O4    O     O_R   0.908390 0.591620 0.614690 -0.638495
O5    O     O_R   0.408370 0.908380 0.385360 -0.631298
O6    O     O_R   0.408370 0.091620 0.385360 -0.636834
O7    O     O_R   0.908370 0.408380 0.385360 -0.622120
O8    O     O_R   0.908370 0.591620 0.385360 -0.640386
O9    O     O_R   0.591620 0.091610 0.614640 -0.626621
O10   O     O_R   0.591620 0.908390 0.614640 -0.631620
O11   O     O_R   0.091620 0.591610 0.614640 -0.612991
O12   O     O_R   0.091620 0.408390 0.614640 -0.635933
O13   O     O_R   0.591610 0.091610 0.385310 -0.601929
O14   O     O_R   0.591610 0.908390 0.385310 -0.623112
O15   O     O_R   0.091610 0.591610 0.385310 -0.611762
O16   O     O_R   0.091610 0.408390 0.385310 -0.624039
Zn1   Zn    Zn3+2 0.500010 0.000000 0.653130 0.941574
Zn2   Zn    Zn3+2 0.000010 0.500000 0.653130 0.943823
Zn3   Zn    Zn3+2 0.499980 0.000000 0.346870 0.961267
Zn4   Zn    Zn3+2 0.999980 0.500000 0.346870 0.958803
C65   C     C_1   0.466812 0.253260 0.724318 0.204932
N5    N     N_1   0.542409 0.260857 0.714564 -0.191372
C66   C     C_1   0.414460 0.798413 0.813073 0.226897
N6    N     N_1   0.484384 0.811804 0.854195 -0.217338
C67   C     C_1   0.969113 0.749560 0.727984 0.203257
N7    N     N_1   0.045297 0.753406 0.721468 -0.187597
C68   C     C_1   0.917139 0.298842 0.816763 0.221123
N8    N     N_1   0.987799 0.305474 0.859276 -0.225873
C69   C     C_1   0.384939 0.246013 0.985276 0.159587
N9    N     N_1   0.427986 0.241466 0.082175 -0.187427
C70   C     C_1   0.265140 0.792442 0.998100 0.178916
N10   N     N_1   0.251916 0.832146 0.093238 -0.223511
C71   C     C_1   0.886762 0.747801 0.986729 0.152039
N11   N     N_1   0.930356 0.742860 0.083084 -0.205063
C72   C     C_1   0.780069 0.317846 0.007870 0.172067
N12   N     N_1   0.786247 0.351149 0.110240 -0.214529
C73   C     C_1   0.692661 0.755447 0.993360 0.148812
N13   N     N_1   0.651610 0.745823 0.090098 -0.225271
C74   C     C_1   0.660755 0.179003 0.992370 0.154245
N14   N     N_1   0.617366 0.164029 0.085135 -0.177466
C75   C     C_1   0.191127 0.250219 0.991820 0.156289
N15   N     N_1   0.150571 0.239018 0.088718 -0.228189
C76   C     C_1   0.254028 0.601582 0.989423 0.135877
N16   N     N_1   0.258495 0.558031 0.086479 -0.234004

loop_
_geom_bond_atom_site_label_1
_geom_bond_atom_site_label_2
_ccdc_geom_bond_type
C58   C62   A    
C44   C72   S    
C45   C73   S    
C40   C60   A    
C2    O2    A    
O15   Zn4   S    
C48   C76   S    
C33   O15   A    
N2    Zn4   S    
C14   C31   S    
C30   N2    A    
N4    Zn2   S    
C1    C62   S    
C43   C71   S    
C29   N1    A    
C53   C59   A    
C76   N16   T    
C54   C60   A    
C3    C64   S    
C11   H17   S    
C4    C63   S    
C18   H22   S    
O11   Zn2   S    
C17   H21   S    
C31   O9    A    
C19   C21   A    
C24   C26   A    
C5    C11   A    
C48   C52   A    
C19   H23   S    
C6    C12   A    
O5    Zn3   S    
C37   C65   S    
O9    Zn1   S    
C66   N6    T    
C9    H15   S    
C41   C69   S    
C9    C13   A    
C13   C32   S    
C4    O4    A    
C11   C15   A    
C12   C16   A    
C49   H11   S    
C15   C34   S    
C18   C20   A    
C2    C61   S    
C36   N4    A    
C46   C50   A    
O13   Zn3   S    
C32   O14   A    
C47   C75   S    
C37   C41   A    
C31   O13   A    
C16   C56   A    
C52   H14   S    
C44   C46   A    
C42   C70   S    
C13   C53   A    
O14   Zn3   S    
C25   N3    A    
C5    C61   A    
C17   C27   A    
C23   H7    S    
C70   N10   T    
C18   C28   A    
C5    H1    S    
C10   C14   A    
C1    O5    A    
C46   C74   S    
C10   H16   S    
C47   C51   A    
C39   C67   S    
O4    Zn2   S    
C34   O12   A    
O16   Zn4   S    
C21   H5    S    
C15   C55   A    
C42   C48   A    
C51   H13   S    
C50   H12   S    
C16   C33   S    
C45   C49   A    
C39   C59   A    
C41   C47   A    
C12   H18   S    
C38   C58   A    
C57   C61   A    
C43   C45   A    
C7    C63   A    
C69   N9    T    
C36   H10   S    
C8    C64   A    
C8    C10   A    
C14   C54   A    
C20   C22   A    
O8    Zn4   S    
C55   C57   A    
C75   N15   T    
C22   C24   A    
C40   C44   A    
C72   N12   T    
C24   H8    S    
C65   N5    T    
C7    C9    A    
C29   C35   A    
C35   H9    S    
O6    Zn3   S    
C33   O11   A    
C26   C28   A    
O3    Zn2   S    
C39   C43   A    
C68   N8    T    
C29   H19   S    
C32   O10   A    
C25   C27   A    
N1    Zn3   S    
O2    Zn1   S    
C59   C63   A    
C4    O8    A    
C30   C36   A    
C60   C64   A    
C34   O16   A    
N3    Zn1   S    
C8    H4    S    
C21   C23   A    
C73   N13   T    
C50   C54   A    
C67   N7    T    
O12   Zn2   S    
C38   C66   S    
C6    C62   A    
C71   N11   T    
C49   C53   A    
O7    Zn4   S    
C20   H24   S    
C17   C19   A    
C3    O3    A    
C56   C58   A    
C27   N1    A    
C51   C55   A    
C23   C25   A    
C30   H20   S    
C74   N14   T    
C7    H3    S    
C38   C42   A    
C3    O7    A    
C6    H2    S    
C40   C68   S    
C2    O6    A    
C1    O1    A    
O10   Zn1   S    
C28   N2    A    
C26   N4    A    
C22   H6    S    
C37   C57   A    
C52   C56   A    
O1    Zn1   S    
C35   N3    A    
