data_mof_unit_52943.cif
_audit_creation_date              2012-12-10T16:57:10-0500
_audit_creation_method            fapswitch 2.2
_symmetry_space_group_name_H-M    P1
_symmetry_Int_Tables_number       1
_space_group_crystal_system       triclinic
_cell_length_a                    7.823742
_cell_length_b                    8.568832
_cell_length_c                    16.81252
_cell_angle_alpha                 92.795229
_cell_angle_beta                  80.443853
_cell_angle_gamma                 93.701378
_cell_volume                      1108.32846004

loop_
_atom_site_label
_atom_site_type_symbol
_atom_type_description
_atom_site_fract_x
_atom_site_fract_y
_atom_site_fract_z
_atom_type_partial_charge
C1    C     C_R   0.545905 0.794540 0.498005 0.950042
C2    C     C_R   0.393013 0.539225 0.225103 -0.210267
C3    C     C_R   0.634305 0.667198 0.840904 -0.261940
C4    C     C_R   0.411148 0.574670 0.144721 -0.247118
C5    C     C_R   0.478673 0.680735 0.894742 0.081557
C6    C     C_R   0.576830 0.587731 0.097565 0.081837
C7    C     C_R   0.318767 0.646441 0.868077 0.553932
C8    C     C_R   0.724431 0.556024 0.130121 0.550099
C9    C     C_R   0.317818 0.583048 0.789965 -0.313881
C10   C     C_R   0.705420 0.525477 0.211936 -0.312870
C11   C     C_2   0.483990 0.699226 0.981055 -0.219720
C12   C     C_R   0.454113 0.205462 0.501923 0.952016
C13   C     C_2   0.595492 0.616737 0.011918 -0.194521
C14   C     C_3   0.098185 0.803208 0.911783 -0.329310
C15   C     C_3   0.960939 0.422319 0.074378 -0.311186
C16   C     C_3   0.975077 0.302388 0.367947 -0.165420
C17   C     C_3   0.034225 0.710033 0.627631 -0.182987
C18   C     C_2   0.570039 0.958079 0.496811 -0.380998
C19   C     C_2   0.430024 0.041908 0.502942 -0.387987
C20   C     C_R   0.478367 0.509536 0.654007 0.864485
C21   C     C_R   0.523160 0.499298 0.345973 0.868310
C22   C     C_R   0.475006 0.558281 0.738443 -0.090681
C23   C     C_R   0.540187 0.517249 0.259487 -0.090813
C24   C     C_R   0.632331 0.601604 0.764635 -0.200911
H1    H     H_    0.820396 0.512586 0.238365 0.158035
H2    H     H_    0.188839 0.901316 0.927222 0.154593
H3    H     H_    0.974270 0.812827 0.954231 0.221664
H4    H     H_    0.871717 0.330079 0.051939 0.149481
H5    H     H_    0.998654 0.388075 0.131702 0.141985
H6    H     H_    0.081071 0.430116 0.028967 0.231459
H7    H     H_    0.702361 0.008957 0.490952 0.196946
H8    H     H_    0.297721 0.991055 0.508714 0.194912
H9    H     H_    0.979555 0.409199 0.332545 0.131150
H10   H     H_    0.843229 0.244459 0.378579 0.180321
H11   H     H_    0.061210 0.219135 0.330898 0.135420
H12   H     H_    0.194706 0.551716 0.770442 0.159056
H13   H     H_    0.161752 0.773656 0.612977 0.183009
H14   H     H_    0.041045 0.608029 0.664975 0.138859
H15   H     H_    0.947754 0.792932 0.664743 0.131830
H16   H     H_    0.294899 0.589211 0.119494 0.184075
H17   H     H_    0.758422 0.698071 0.859558 0.162540
H18   H     H_    0.754650 0.584524 0.726237 0.174384
H19   H     H_    0.264069 0.532263 0.260539 0.168613
H20   H     H_    0.695924 0.555167 0.972556 0.197011
H21   H     H_    0.380757 0.758073 0.019910 0.189319
H22   H     H_    0.070075 0.814379 0.849578 0.140824
N1    N     N_2   0.953500 0.457650 0.478520 0.194716
N2    N     N_2   0.046500 0.542350 0.521480 0.195724
O1    O     O_R   0.388470 0.738640 0.505270 -0.633561
O2    O     O_3   0.887763 0.569751 0.083329 -0.602492
O3    O     O_3   0.037765 0.335942 0.440637 -0.521995
O4    O     O_3   0.962902 0.665596 0.558171 -0.521759
O5    O     O_R   0.611530 0.261360 0.494730 -0.629045
O6    O     O_R   0.679650 0.711510 0.491500 -0.571424
O7    O     O_R   0.320350 0.288490 0.508500 -0.571600
O8    O     O_R   0.337210 0.515200 0.623500 -0.657039
O9    O     O_R   0.662790 0.484800 0.376500 -0.660191
O10   O     O_R   0.628380 0.488060 0.609730 -0.593753
O11   O     O_R   0.371620 0.511940 0.390270 -0.592875
O12   O     O_3   0.164123 0.657051 0.920737 -0.607677
Zn1   Zn    Zn3+2 0.305580 0.518120 0.509190 1.022534
Zn2   Zn    Zn3+2 0.694420 0.481880 0.490810 1.023282

loop_
_geom_bond_atom_site_label_1
_geom_bond_atom_site_label_2
_ccdc_geom_bond_type
O10   Zn2   S    
C9    H12   S    
C2    C4    A    
C1    O6    A    
C15   H5    S    
C14   H3    S    
C14   O12   S    
O5    Zn2   S    
N1    N2    D    
C16   O3    S    
C2    H19   S    
C20   O8    A    
C4    H16   S    
N1    Zn2   S    
N2    Zn1   S    
O9    Zn2   S    
C14   H22   S    
C16   H9    S    
C17   H13   S    
C24   H18   S    
C14   H2    S    
C6    C13   S    
C21   O9    A    
C11   C13   D    
C15   H4    S    
C19   H8    S    
O7    Zn1   S    
C17   O4    S    
C4    C6    A    
C16   H11   S    
C20   C22   S    
C21   O11   A    
C7    C9    A    
C17   H14   S    
C21   C23   S    
C5    C11   S    
C10   C23   A    
C22   C24   A    
C9    C22   A    
O11   Zn1   S    
C12   O7    A    
C11   H21   S    
C20   O10   A    
C8    O2    S    
C7    O12   S    
N2    O4    S    
O1    Zn1   S    
C10   H1    S    
C15   H6    S    
C8    C10   A    
C18   C19   D    
C17   H15   S    
C15   O2    S    
C2    C23   A    
C5    C7    A    
C1    C18   S    
O8    Zn1   S    
C3    H17   S    
C6    C8    A    
C18   H7    S    
O6    Zn2   S    
C12   C19   S    
C16   H10   S    
C1    O1    A    
C13   H20   S    
N1    O3    S    
C12   O5    A    
C3    C24   A    
C3    C5    A    
