data_mof_unit_39614.cif
_audit_creation_date              2012-12-11T16:35:25-0500
_audit_creation_method            fapswitch 2.2
_symmetry_space_group_name_H-M    P1
_symmetry_Int_Tables_number       1
_space_group_crystal_system       triclinic
_cell_length_a                    6.929861
_cell_length_b                    17.667734
_cell_length_c                    19.514391
_cell_angle_alpha                 109.12036
_cell_angle_beta                  90.357828
_cell_angle_gamma                 90.669405
_cell_volume                      2257.15256138

loop_
_atom_site_label
_atom_site_type_symbol
_atom_type_description
_atom_site_fract_x
_atom_site_fract_y
_atom_site_fract_z
_atom_type_partial_charge
O1    O     O_R   0.505700 0.440210 0.561730 -0.546178
O2    O     O_R   0.169350 0.406300 0.412660 -0.541642
O3    O     O_R   0.005650 0.559790 0.438270 -0.507362
C1    C     C_R   0.337892 0.383261 0.384766 0.689544
O4    O     O_R   0.175560 0.430650 0.559600 -0.549360
O5    O     O_R   0.011900 0.584320 0.586250 -0.536524
C2    C     C_R   0.344600 0.415598 0.581157 0.669180
O6    O     O_R   0.499450 0.415680 0.413750 -0.538608
O7    O     O_3   0.341370 0.550390 0.508570 -0.342423
V1    V     V_3+5 0.063940 0.490650 0.498410 1.463423
O8    O     O_R   0.682570 0.593700 0.587340 -0.538983
C3    C     C_R   0.852681 0.616716 0.614891 0.684668
O9    O     O_R   0.676370 0.569350 0.440400 -0.536041
C4    C     C_R   0.845544 0.585006 0.419360 0.744400
V2    V     V_3+5 0.564750 0.509350 0.501590 1.476919
O10   O     O_3   0.837190 0.449610 0.491430 -0.379707
C5    C     C_R   0.035444 0.724059 0.320676 -0.217765
H1    H     H_    0.166299 0.758008 0.320250 0.180587
C6    C     C_R   0.026240 0.678330 0.367253 0.595179
C7    C     C_R   0.856846 0.634811 0.370954 -0.171725
C8    C     C_R   0.698395 0.638222 0.326757 -0.235748
H2    H     H_    0.566786 0.604935 0.327694 0.169562
C9    C     C_R   0.709226 0.682934 0.279386 -0.070198
H3    H     H_    0.586435 0.681764 0.244484 0.156535
C10   C     C_R   0.877388 0.727077 0.276072 0.039531
C11   C     C_R   0.730897 0.820348 0.215738 0.627991
C12   C     C_R   0.743766 0.864756 0.168190 -0.238634
H4    H     H_    0.619433 0.898443 0.161716 0.206030
C13   C     C_R   0.915313 0.867231 0.130743 -0.155763
C14   C     C_R   0.074303 0.823849 0.141936 -0.109112
H5    H     H_    0.208704 0.824369 0.114051 0.155140
C15   C     C_R   0.060961 0.778258 0.188566 -0.204676
H6    H     H_    0.185099 0.744241 0.194611 0.164493
C16   C     C_R   0.889207 0.775635 0.226097 -0.017519
H7    H     H_    0.601919 0.653771 0.928352 0.111045
C17   C     C_R   0.066438 0.895054 0.750137 -0.238268
C18   C     C_R   0.136259 0.902949 0.685980 0.664153
C19   C     C_R   0.117428 0.839688 0.621256 -0.165288
C20   C     C_R   0.028836 0.768125 0.620232 -0.219466
C21   C     C_R   0.958691 0.757906 0.684698 0.059051
C22   C     C_R   0.977837 0.822713 0.751021 -0.011040
C23   C     C_R   0.866902 0.685282 0.683577 -0.152970
C24   C     C_R   0.793954 0.677503 0.748748 0.066025
C25   C     C_R   0.813295 0.742267 0.815084 0.070089
C26   C     C_R   0.905032 0.814892 0.816203 -0.143771
C27   C     C_R   0.705076 0.605224 0.749620 -0.146966
C28   C     C_R   0.635564 0.597290 0.813772 -0.123834
C29   C     C_R   0.654719 0.660437 0.878516 -0.120719
C30   C     C_R   0.743366 0.731999 0.879566 -0.138301
H8    H     H_    0.081650 0.946555 0.798722 0.137915
H9    H     H_    0.170356 0.846200 0.571371 0.177222
H10   H     H_    0.014530 0.721435 0.568191 0.165261
H11   H     H_    0.689330 0.553794 0.701052 0.103061
H12   H     H_    0.567806 0.541575 0.813281 0.117492
H13   H     H_    0.757914 0.778632 0.931629 0.099835
H14   H     H_    0.557444 0.482921 0.191705 0.110766
C31   C     C_R   0.243936 0.219699 0.375342 -0.152128
C32   C     C_R   0.209710 0.141770 0.374711 -0.213580
C33   C     C_R   0.247510 0.077443 0.313020 -0.140835
C34   C     C_R   0.318867 0.090099 0.250973 0.587466
C35   C     C_R   0.351120 0.169183 0.249058 -0.046435
C36   C     C_R   0.314259 0.235210 0.313271 0.009893
C37   C     C_R   0.421887 0.183559 0.185812 -0.191193
C38   C     C_R   0.459158 0.263477 0.187950 0.052909
C39   C     C_R   0.424592 0.328902 0.252469 0.082893
C40   C     C_R   0.351843 0.314989 0.315228 -0.154615
C41   C     C_R   0.527876 0.280017 0.126069 -0.152291
C42   C     C_R   0.563746 0.358409 0.127877 -0.109933
C43   C     C_R   0.530473 0.422093 0.190740 -0.126479
C44   C     C_R   0.460838 0.407889 0.252276 -0.146423
H15   H     H_    0.214851 0.267480 0.425240 0.123204
H16   H     H_    0.155509 0.131198 0.422748 0.159179
H17   H     H_    0.223321 0.016941 0.313474 0.172262
H18   H     H_    0.554672 0.232808 0.075552 0.091881
H19   H     H_    0.616797 0.369793 0.080056 0.110464
H20   H     H_    0.433764 0.459628 0.299323 0.106540
C45   C     C_R   0.538482 0.319853 0.715527 -0.151088
H21   H     H_    0.671688 0.322172 0.745437 0.098882
C46   C     C_R   0.527170 0.365025 0.668653 -0.158494
H22   H     H_    0.652756 0.399637 0.663306 0.114295
C47   C     C_R   0.355639 0.366612 0.630228 -0.047212
C48   C     C_R   0.195928 0.321306 0.639554 -0.170687
H23   H     H_    0.061943 0.320717 0.610492 0.123350
C49   C     C_R   0.208072 0.275087 0.685671 -0.120363
H24   H     H_    0.083330 0.239511 0.689884 0.114503
C50   C     C_R   0.379460 0.273821 0.724637 0.090151
C51   C     C_R   0.229466 0.213268 0.812940 -0.115024
H25   H     H_    0.092715 0.240032 0.807891 0.089384
C52   C     C_R   0.241181 0.167703 0.859502 -0.128083
H26   H     H_    0.112533 0.159871 0.887841 0.111556
C53   C     C_R   0.416695 0.133662 0.870104 -0.038307
C54   C     C_R   0.580012 0.145908 0.832463 -0.132690
H27   H     H_    0.717020 0.119869 0.838698 0.120308
C55   C     C_R   0.567720 0.190535 0.785030 -0.110710
H28   H     H_    0.695681 0.196680 0.755671 0.105155
C56   C     C_R   0.392316 0.225220 0.774670 0.095215
O11   O     O_R   0.273230 0.084330 0.086440 -0.521300
O12   O     O_R   0.596660 0.069390 0.940470 -0.551465
O13   O     O_R   0.760270 0.915710 0.913690 -0.538191
C57   C     C_R   0.427567 0.084527 0.919041 0.667267
O14   O     O_R   0.603330 0.093680 0.087390 -0.540590
O15   O     O_R   0.766990 0.940160 0.061660 -0.537843
C58   C     C_R   0.434967 0.116341 0.115628 0.827095
O16   O     O_R   0.266510 0.059870 0.938470 -0.547322
O17   O     O_3   0.431050 0.949630 0.991510 -0.360913
V3    V     V_3+5 0.708490 0.009340 0.001580 1.449803
O18   O     O_R   0.096270 0.930570 0.059390 -0.518764
C59   C     C_R   0.927332 0.915693 0.081184 0.749942
O19   O     O_R   0.089600 0.906290 0.912460 -0.544389
C60   C     C_R   0.919431 0.883384 0.884923 0.680465
V4    V     V_3+5 0.207670 0.990600 0.998190 1.485777
O20   O     O_3   0.935250 0.050360 0.008480 -0.379693
F1    F     F_    0.221102 0.972741 0.686585 -0.677567
F2    F     F_    0.182164 0.678284 0.409714 -0.689739
F3    F     F_    0.361210 0.023864 0.194380 -0.710982
F4    F     F_    0.565352 0.823699 0.253369 -0.701017

loop_
_geom_bond_atom_site_label_1
_geom_bond_atom_site_label_2
_ccdc_geom_bond_type
C25   C30   A    
C1    C40   S    
C51   H25   S    
C12   C13   A    
V4    O20   S    
C1    O6    A    
C47   C48   A    
C31   C36   A    
V3    O20   S    
C45   H21   S    
C42   H19   S    
H14   C43   S    
C11   C12   A    
C13   C14   A    
C17   C18   A    
C49   C50   A    
O19   V4    S    
O5    C3    A    
C14   H5    S    
O11   V4    S    
C18   F1    S    
V2    O10   S    
C57   O16   A    
C35   C37   A    
C3    C23   S    
O8    V2    S    
C11   C16   A    
C6    C7    A    
C42   C43   A    
C9    H3    S    
C13   C59   S    
O15   C59   A    
O1    V2    S    
C53   C57   S    
C52   C53   A    
O7    V1    S    
C33   H17   S    
C10   C16   S    
C21   C23   A    
C20   H10   S    
O17   V4    S    
C33   C34   A    
O14   C58   A    
O9    C4    A    
C17   C22   A    
C43   C44   A    
H7    C29   S    
C45   C46   A    
C36   C40   A    
C41   C42   A    
C38   C41   A    
C4    C7    S    
C49   H24   S    
C37   C58   S    
C20   C21   A    
O4    C2    A    
C26   C60   S    
C19   H9    S    
C6    F2    S    
C32   C33   A    
C30   H13   S    
O13   C60   A    
C46   H22   S    
C34   C35   A    
C15   C16   A    
O2    C1    A    
C24   C25   A    
C18   C19   A    
C28   C29   A    
O18   C59   A    
C51   C56   A    
C54   C55   A    
C5    H1    S    
C55   H28   S    
C41   H18   S    
C31   H15   S    
C55   C56   A    
O11   C58   A    
O3    C4    A    
C50   C56   S    
C28   H12   S    
C21   C22   A    
C2    C47   S    
C45   C50   A    
C39   C40   A    
O6    V2    S    
O12   C57   A    
O9    V2    S    
C44   H20   S    
C23   C24   A    
O2    V1    S    
C53   C54   A    
C17   H8    S    
C25   C26   A    
C46   C47   A    
O14   V3    S    
O13   V3    S    
C27   C28   A    
C29   C30   A    
O1    C2    A    
O18   V4    S    
O5    V1    S    
O16   V4    S    
O8    C3    A    
O17   V3    S    
C48   C49   A    
O12   V3    S    
C5    C10   A    
C15   H6    S    
C8    C9    A    
O7    V2    S    
O4    V1    S    
O3    V1    S    
V1    O10   S    
O19   C60   A    
C38   C39   A    
C14   C15   A    
C32   H16   S    
C31   C32   A    
C19   C20   A    
C27   H11   S    
C54   H27   S    
C5    C6    A    
O15   V3    S    
C9    C10   A    
C35   C36   A    
C24   C27   A    
C11   F4    S    
C37   C38   A    
C7    C8    A    
C48   H23   S    
C12   H4    S    
C51   C52   A    
C22   C26   A    
C34   F3    S    
C52   H26   S    
C8    H2    S    
C39   C44   A    
