data_mof_unit_6648.cif
_audit_creation_date              2013-03-05T15:48:56-0500
_audit_creation_method            fapswitch 2.2
_symmetry_space_group_name_H-M    P1
_symmetry_Int_Tables_number       1
_space_group_crystal_system       triclinic
_cell_length_a                    6.979878
_cell_length_b                    13.898594
_cell_length_c                    20.004181
_cell_angle_alpha                 104.207564
_cell_angle_beta                  90.561165
_cell_angle_gamma                 91.113047
_cell_volume                      1880.69046873

loop_
_atom_site_label
_atom_site_type_symbol
_atom_site_description
_atom_site_fract_x
_atom_site_fract_y
_atom_site_fract_z
_atom_type_partial_charge
O1    O     O_R   0.506780 0.600060 0.449950 -0.577366
O2    O     O_R   0.179840 0.597110 0.589410 -0.554694
O3    O     O_R   0.004570 0.399940 0.550050 -0.608414
C1    C     C_R   0.349774 0.612166 0.618790 1.116730
O4    O     O_R   0.177380 0.612160 0.452890 -0.589232
O5    O     O_R   0.002100 0.415100 0.412560 -0.606510
C2    C     C_R   0.346238 0.634259 0.433207 1.024712
O6    O     O_R   0.509250 0.584900 0.587440 -0.564704
O7    O     O_3   0.337570 0.435330 0.486930 -0.304947
V1    V     V_3+5 0.064650 0.512000 0.502430 1.278363
O8    O     O_R   0.672090 0.402890 0.410590 -0.599560
C3    C     C_R   0.839701 0.380915 0.383094 0.935180
O9    O     O_R   0.674540 0.387840 0.547110 -0.609020
C4    C     C_R   0.841477 0.372518 0.570561 0.987580
V2    V     V_3+5 0.564040 0.488000 0.497570 1.259330
O10   O     O_3   0.840990 0.564670 0.513070 -0.230401
C5    C     C_R   0.737651 0.136266 0.614280 0.404506
H1    H     H_    0.737935 0.187922 0.522349 0.161983
C6    C     C_R   0.841426 0.299332 0.610181 -0.148772
C7    C     C_R   0.893775 0.317497 0.940050 -0.191562
C8    C     C_R   0.905270 0.395138 0.907544 -0.002054
C9    C     C_R   0.888482 0.376517 0.835961 -0.120563
C10   C     C_R   0.856892 0.279038 0.794965 0.090713
C11   C     C_R   0.847747 0.199652 0.828632 0.044504
C12   C     C_R   0.834946 0.257121 0.721626 0.060058
C13   C     C_R   0.786299 0.158645 0.685287 -0.166694
C14   C     C_R   0.811438 0.081527 0.717518 0.417701
C15   C     C_R   0.835401 0.101402 0.788578 -0.244745
C16   C     C_R   0.864621 0.327537 0.682158 -0.202146
C17   C     C_R   0.774133 0.205346 0.576962 -0.228963
C18   C     C_R   0.865751 0.219721 0.901308 -0.127766
H2    H     H_    0.905674 0.403780 0.705375 0.131939
H3    H     H_    0.909736 0.333518 0.995664 0.121086
H4    H     H_    0.900379 0.439679 0.814093 0.174359
H5    H     H_    0.928729 0.470455 0.938042 0.176535
H6    H     H_    0.855111 0.039222 0.811471 0.173631
C19   C     C_3   0.684552 0.205439 0.232693 -0.073458
C20   C     C_3   0.807284 0.197846 0.296076 -0.063866
H7    H     H_    0.768989 0.155672 0.334649 0.178707
H8    H     H_    0.542070 0.169085 0.217973 0.153543
C21   C     C_3   0.848064 0.310495 0.312401 -0.142082
C22   C     C_3   0.725545 0.318821 0.249782 -0.097743
C23   C     C_3   0.905978 0.301447 0.204081 -0.106084
C24   C     C_3   0.028743 0.293709 0.267448 -0.073319
C25   C     C_3   0.987449 0.180293 0.250319 -0.114613
C26   C     C_3   0.865044 0.188815 0.187742 -0.151454
H9    H     H_    0.614644 0.375004 0.250731 0.181031
H10   H     H_    0.946672 0.343965 0.165903 0.140727
H11   H     H_    0.171378 0.330055 0.281915 0.134725
H12   H     H_    0.094640 0.122190 0.249051 0.174385
C27   C     C_3   0.527656 0.738647 0.731339 0.236515
C28   C     C_3   0.400196 0.828909 0.752732 0.309847
C29   C     C_3   0.347392 0.797566 0.818937 -0.513374
C30   C     C_3   0.474402 0.706754 0.796545 0.335429
C31   C     C_3   0.304869 0.642738 0.758006 -0.276389
C32   C     C_3   0.173980 0.734812 0.780516 -0.106849
C33   C     C_3   0.231822 0.766289 0.713759 0.566982
C34   C     C_3   0.361378 0.675850 0.691862 -0.495151
H13   H     H_    0.268200 0.565832 0.760992 0.189374
H14   H     H_    0.033360 0.729333 0.804579 0.240283
C35   C     C_R   0.372248 0.884020 0.392045 -0.131960
H15   H     H_    0.368481 0.960914 0.420516 0.225991
C36   C     C_R   0.359394 0.711466 0.394767 -0.304075
C37   C     C_R   0.350474 0.683631 0.064127 0.431750
C38   C     C_R   0.388975 0.609535 0.097650 -0.248198
C39   C     C_R   0.423016 0.632269 0.168726 0.411403
C40   C     C_R   0.393406 0.730314 0.209626 -0.017358
C41   C     C_R   0.374730 0.807249 0.174176 -0.048709
C42   C     C_R   0.384945 0.755985 0.283515 0.116176
C43   C     C_R   0.383631 0.857988 0.319780 -0.038397
C44   C     C_R   0.385297 0.932460 0.283349 0.455891
C45   C     C_R   0.376125 0.906985 0.211890 -0.258790
C46   C     C_R   0.362655 0.684233 0.322589 -0.179346
C47   C     C_R   0.361930 0.811821 0.429448 0.338723
C48   C     C_R   0.357779 0.783296 0.101214 -0.268152
H16   H     H_    0.334903 0.607083 0.298365 0.174377
H17   H     H_    0.403461 0.533913 0.067405 0.198219
H18   H     H_    0.368694 0.966842 0.186107 0.137580
O11   O     O_R   0.203580 0.914920 0.912610 -0.590082
O12   O     O_R   0.535710 0.887810 0.047120 -0.585545
O13   O     O_R   0.710730 0.084950 0.087430 -0.607814
C49   C     C_R   0.366143 0.861267 0.063104 1.025255
O14   O     O_R   0.533010 0.902850 0.910600 -0.561213
O15   O     O_R   0.708010 0.100090 0.949930 -0.585913
C50   C     C_R   0.361090 0.874046 0.886729 1.166401
O16   O     O_R   0.206300 0.899780 0.050100 -0.600987
O17   O     O_3   0.375170 0.064580 0.013100 -0.299806
V3    V     V_3+5 0.648200 0.988020 0.997570 1.261539
O18   O     O_R   0.038030 0.112330 0.952840 -0.591900
C51   C     C_R   0.869990 0.139594 0.937521 0.928263
O19   O     O_R   0.040730 0.097300 0.089360 -0.608568
C52   C     C_R   0.873189 0.118820 0.116975 0.913484
V4    V     V_3+5 0.148780 0.012220 0.002360 1.226963
O20   O     O_3   0.871930 0.935430 0.986900 -0.244342
Cl1   Cl    Cl    0.437004 0.955433 0.751460 -0.524667
N1    N     N_R   0.724710 0.745977 0.713222 0.290181
O21   O     O_R   0.822595 0.820993 0.750388 -0.385709
O22   O     O_R   0.812048 0.665474 0.682999 -0.363208
N2    N     N_R   0.614433 0.668871 0.837655 0.267649
O23   O     O_R   0.704037 0.588141 0.809873 -0.418292
O24   O     O_R   0.657390 0.716722 0.900521 -0.336939
N3    N     N_R   0.877583 0.990297 0.676536 0.269982
O25   O     O_R   0.034052 0.995257 0.642728 -0.251153
O26   O     O_R   0.756866 0.917032 0.653497 -0.209093
Cl2   Cl    Cl    0.105104 0.801254 0.646877 -0.345660
N4    N     N_R   0.337017 0.841837 0.502289 0.267318
O27   O     O_R   0.441992 0.805501 0.543888 -0.307013
O28   O     O_R   0.210299 0.907844 0.527079 -0.241944
Cl3   Cl    Cl    0.388639 0.060051 0.325238 -0.748586
Cl4   Cl    Cl    0.306715 0.649369 0.974434 -0.629208
Cl5   Cl    Cl    0.544619 0.540228 0.198156 -0.744088
N5    N     N_R   0.631296 0.048059 0.581551 0.260713
O29   O     O_R   0.476891 0.025193 0.610629 -0.242696
O30   O     O_R   0.667624 0.001290 0.518351 -0.356413

loop_
_geom_bond_atom_site_label_1
_geom_bond_atom_site_label_2
_geom_bond_distance
_ccdc_geom_bond_type
C24   H11   1.110476 S    
C35   C43   1.404862 A    
C33   Cl2   1.766683 S    
C31   C32   1.563858 S    
V4    O20   2.171394 S    
C31   H13   1.110238 S    
C21   C22   1.538768 S    
C1    O6    1.299754 A    
N5    O30   1.301713 A    
C25   C26   1.538423 S    
C28   C29   1.538212 S    
C41   C48   1.418317 A    
C13   C14   1.392709 A    
C19   C20   1.549370 S    
C5    C13   1.413962 A    
O11   V4    2.010030 S    
C16   H2    1.079224 S    
C42   C43   1.425486 A    
O5    C3    1.298680 A    
C20   H7    1.109237 S    
C47   N4    1.427178 S    
N4    O27   1.301200 A    
V2    O10   2.171286 S    
C44   Cl3   1.765228 S    
C32   C33   1.558284 S    
C28   Cl1   1.778638 S    
C19   C22   1.548602 S    
C20   C25   1.550344 S    
C45   H18   1.082862 S    
O13   C52   1.298580 A    
O8    V2    2.011363 S    
N1    O22   1.300269 A    
C10   C11   1.427540 A    
C42   C46   1.417269 A    
C43   C44   1.404480 A    
H1    C17   1.085522 S    
C39   Cl5   1.762257 S    
C23   H10   1.110142 S    
C27   N1    1.433855 S    
O14   V3    1.999790 S    
C8    C9    1.394582 A    
C5    C17   1.374769 A    
N3    O25   1.299735 A    
O15   C51   1.299856 A    
N5    O29   1.300219 A    
C12   C16   1.413757 A    
C9    H4    1.074841 S    
V3    O20   1.729949 S    
C38   H17   1.083583 S    
C40   C41   1.427977 A    
C11   C15   1.403959 A    
C20   C21   1.539105 S    
O12   C49   1.299035 A    
O18   C51   1.296312 A    
O19   C52   1.306633 A    
O4    C2    1.301105 A    
C36   C46   1.400441 A    
C12   C13   1.416238 A    
C49   O16   1.298004 A    
C27   C28   1.528301 S    
C40   C42   1.434998 A    
O2    C1    1.308599 A    
C23   C24   1.549795 S    
C3    C21   1.511832 S    
O16   V4    2.065159 S    
O19   V4    2.011491 S    
C37   Cl4   1.761682 S    
N2    O23   1.298826 A    
C41   C45   1.405979 A    
C18   C51   1.470614 S    
N1    O21   1.299408 A    
C27   C34   1.528642 S    
N3    O26   1.299207 A    
C2    C36   1.467581 S    
O3    C4    1.295589 A    
O1    V2    2.058621 S    
C7    H3    1.083826 S    
O14   C50   1.305567 A    
O6    V2    2.009234 S    
O9    V2    2.053969 S    
C21   C24   1.544059 S    
C30   N2    1.457940 S    
C22   C23   1.551186 S    
C6    C16   1.403186 A    
C5    N5    1.429623 S    
O11   C50   1.300187 A    
C24   C25   1.549367 S    
O7    V1    2.188317 S    
C29   C32   1.558261 S    
C30   C31   1.546206 S    
N2    O24   1.299251 A    
O1    C2    1.298173 A    
C4    C6    1.434758 S    
O15   V3    2.054223 S    
O5    V1    2.002424 S    
O8    C3    1.307103 A    
C48   C49   1.470690 S    
C29   C30   1.534060 S    
C8    H5    1.082902 S    
C36   C47   1.396751 A    
C35   C47   1.392383 A    
C19   H8    1.110297 S    
C14   N3    1.418770 S    
C27   C30   1.524147 S    
C37   C38   1.388773 A    
O7    V2    1.718101 S    
C11   C18   1.415351 A    
C44   C45   1.386281 A    
O12   V3    2.046760 S    
O3    V1    2.054208 S    
V1    O10   1.729942 S    
C33   C34   1.539874 S    
N4    O28   1.298705 A    
C25   H12   1.107407 S    
O17   V4    1.715993 S    
C46   H16   1.075700 S    
C37   C48   1.401381 A    
C39   C40   1.426879 A    
C22   H9    1.107155 S    
C10   C12   1.429352 A    
O18   V4    2.053824 S    
C35   H15   1.081586 S    
C23   C26   1.539051 S    
O13   V3    2.002436 S    
C28   C33   1.534822 S    
C32   H14   1.106885 S    
O4    V1    2.046709 S    
C26   C52   1.510423 S    
C7    C8    1.391329 A    
C15   H6    1.083145 S    
O17   V3    2.188295 S    
C38   C39   1.395646 A    
C31   C34   1.555686 S    
C1    C34   1.512111 S    
C14   C15   1.387702 A    
C9    C10   1.412862 A    
C29   C50   1.504681 S    
C19   C26   1.542915 S    
O9    C4    1.292699 A    
C6    C17   1.382935 A    
C7    C18   1.398340 A    
O2    V1    1.999627 S    
