data_mof_unit_35501.cif
_audit_creation_date              2012-10-26T19:07:15-0400
_audit_creation_method            fapswitch 2.2
_symmetry_space_group_name_H-M    P1
_symmetry_Int_Tables_number       1
_space_group_crystal_system       triclinic
_cell_length_a                    14.980682
_cell_length_b                    13.92194
_cell_length_c                    10.603644
_cell_angle_alpha                 90.275564
_cell_angle_beta                  87.559055
_cell_angle_gamma                 89.81054
_cell_volume                      2209.4518416

loop_
_atom_site_label
_atom_site_type_symbol
_atom_type_description
_atom_site_fract_x
_atom_site_fract_y
_atom_site_fract_z
_atom_type_partial_charge
C1    C     C_R   0.329387 0.500227 0.501068 0.527066
C2    C     C_R   0.966544 0.479767 0.263162 0.034641
C3    C     C_R   0.434995 0.795656 0.569125 0.227693
C4    C     C_R   0.564680 0.204082 0.430767 0.213240
C5    C     C_R   0.564967 0.794781 0.430961 0.228550
C6    C     C_R   0.435021 0.205235 0.569217 0.225220
C7    C     C_R   0.564704 0.896867 0.428486 0.023697
C8    C     C_R   0.435119 0.103064 0.571663 0.025203
C9    C     C_R   0.435089 0.897799 0.571585 0.024187
C10   C     C_R   0.564577 0.101998 0.428451 0.024239
C11   C     C_R   0.499874 0.948540 0.500050 0.000086
C12   C     C_R   0.670795 0.500046 0.497300 0.526003
C13   C     C_R   0.499863 0.051313 0.500087 0.002325
C14   C     C_R   0.629407 0.948746 0.356718 -0.129065
C15   C     C_R   0.370355 0.051161 0.643365 -0.126988
C16   C     C_R   0.370334 0.950667 0.643314 -0.129415
C17   C     C_R   0.629327 0.049177 0.356663 -0.124676
C18   C     C_R   0.500220 0.499735 0.259588 0.536041
C19   C     C_R   0.499924 0.500252 0.740417 0.537812
C20   C     C_3   0.425462 0.543010 0.047079 -0.114754
C21   C     C_3   0.574839 0.456899 0.952945 -0.114805
C22   C     C_3   0.497431 0.591398 0.960301 -0.110819
C23   C     C_R   0.953608 0.511719 0.490841 0.028903
C24   C     C_3   0.502887 0.408524 0.039748 -0.107621
C25   C     C_3   0.428071 0.452455 0.961980 -0.127091
C26   C     C_3   0.572253 0.547446 0.038076 -0.129039
C27   C     C_3   0.500020 0.500759 0.877471 0.032739
C28   C     C_3   0.500273 0.499168 0.122555 0.037818
C29   C     C_R   0.817419 0.475436 0.380676 -0.021427
C30   C     C_R   0.182704 0.518588 0.616909 -0.021067
C31   C     C_R   0.767620 0.501607 0.491481 -0.021987
C32   C     C_R   0.232917 0.501823 0.503672 -0.022590
C33   C     C_R   0.809257 0.533689 0.598289 -0.132496
C34   C     C_R   0.047358 0.511825 0.496303 0.027538
C35   C     C_R   0.191965 0.488889 0.389850 -0.131248
C36   C     C_R   0.901681 0.535939 0.600315 -0.013191
C37   C     C_R   0.099536 0.490683 0.385995 -0.013099
C38   C     C_2   0.769556 0.428575 0.277162 0.183709
C39   C     C_2   0.228270 0.507174 0.738101 0.187547
C40   C     C_2   0.073043 0.626476 0.819696 0.296621
C41   C     C_2   0.930895 0.487146 0.134914 0.327041
C42   C     C_R   0.911852 0.488133 0.376246 0.001652
C43   C     C_R   0.088983 0.533479 0.611529 0.005718
C44   C     C_R   0.942201 0.566871 0.709371 -0.082952
C45   C     C_R   0.059438 0.476837 0.271064 -0.089524
C46   C     C_R   0.035233 0.570741 0.714604 0.057038
Cu1   Cu    Cu3+1 0.500000 0.597420 0.500000 0.919447
Cu2   Cu    Cu3+1 0.500000 0.402580 0.500000 0.934746
H1    H     H_    0.369198 0.413532 0.927691 0.148215
H2    H     H_    0.101361 0.468095 0.185739 0.177266
H3    H     H_    0.680829 0.912231 0.299723 0.156035
H4    H     H_    0.318952 0.087709 0.700353 0.160447
H5    H     H_    0.318914 0.914879 0.700249 0.153517
H6    H     H_    0.680708 0.084947 0.299631 0.169660
H7    H     H_    0.705101 0.455816 0.250529 0.089017
H8    H     H_    0.296476 0.531440 0.746788 0.090562
H9    H     H_    0.138886 0.658224 0.808715 0.100293
H10   H     H_    0.869384 0.526081 0.120459 0.096068
H11   H     H_    0.385302 0.692968 0.692466 0.267494
H12   H     H_    0.631237 0.586103 0.072553 0.104131
H13   H     H_    0.314364 0.728236 0.575901 0.249623
H14   H     H_    0.613440 0.305840 0.306520 0.279325
H15   H     H_    0.684704 0.271828 0.423667 0.275862
H16   H     H_    0.615632 0.690665 0.308293 0.271739
H17   H     H_    0.686047 0.727398 0.425012 0.252544
H18   H     H_    0.384516 0.309328 0.692116 0.278791
H19   H     H_    0.313982 0.272755 0.575478 0.262642
H20   H     H_    0.364332 0.578044 0.088804 0.128012
H21   H     H_    0.635952 0.421829 0.911233 0.134661
H22   H     H_    0.495112 0.666303 0.925088 0.131576
H23   H     H_    0.505215 0.333625 0.074979 0.137835
H24   H     H_    0.768993 0.554508 0.681623 0.114141
H25   H     H_    0.232668 0.476058 0.304176 0.115905
H26   H     H_    0.900657 0.592263 0.789068 0.158044
N1    N     N_R   0.500000 0.743810 0.500000 -0.212540
N2    N     N_R   0.500000 0.256190 0.500000 -0.218160
N3    N     N_3   0.363111 0.749084 0.637759 -0.652861
N4    N     N_3   0.636265 0.250369 0.361720 -0.604803
N5    N     N_3   0.637223 0.747400 0.362852 -0.646410
N6    N     N_3   0.362863 0.252664 0.637493 -0.627508
O1    O     O_R   0.370260 0.582280 0.500030 -0.514830
O2    O     O_2   0.191462 0.465898 0.827275 -0.477209
O3    O     O_2   0.030107 0.639957 0.918739 -0.490282
O4    O     O_2   0.970792 0.451274 0.043400 -0.434736
O5    O     O_R   0.629740 0.417720 0.499970 -0.505513
O6    O     O_R   0.629740 0.582280 0.499970 -0.513610
O7    O     O_R   0.370260 0.417720 0.500030 -0.504828
O8    O     O_R   0.499980 0.582260 0.316850 -0.509651
O9    O     O_R   0.500020 0.417740 0.683150 -0.508224
O10   O     O_R   0.500020 0.582260 0.683150 -0.517262
O11   O     O_R   0.499980 0.417740 0.316850 -0.517843
O12   O     O_2   0.799728 0.356274 0.225218 -0.479802

loop_
_geom_bond_atom_site_label_1
_geom_bond_atom_site_label_2
_ccdc_geom_bond_type
C1    O7    A    
C21   C26   S    
C8    C13   A    
H17   N5    S    
C29   C42   A    
C34   C37   A    
Cu2   N2    S    
C40   O3    D    
H11   N3    S    
C7    C11   A    
C23   C42   A    
C12   O5    A    
C19   O9    A    
C18   O11   A    
C35   C37   A    
C9    C16   A    
C41   H10   S    
C20   C25   S    
C10   C17   A    
C1    O1    A    
C15   C16   A    
C38   O12   D    
C33   C36   A    
C16   H5    S    
C33   H24   S    
C7    C14   A    
C38   H7    S    
C14   H3    S    
H13   N3    S    
Cu2   O11   S    
C29   C38   S    
C31   C33   A    
C5    N5    S    
C19   C27   S    
C21   C27   S    
C14   C17   A    
C44   C46   A    
C2    C45   A    
H14   N4    S    
C34   C43   A    
C32   C35   A    
C18   C28   S    
C24   C25   S    
C5    C7    A    
C6    C8    A    
C20   C28   S    
C41   O4    D    
C1    C32   S    
C18   O8    A    
C21   H21   S    
C5    N1    A    
C40   C46   S    
Cu1   O6    S    
C4    N4    S    
C3    C9    A    
C6    N6    S    
Cu1   Cu2   S    
C23   C34   A    
Cu2   O7    S    
C39   H8    S    
C15   H4    S    
C44   H26   S    
C9    C11   A    
C20   C22   S    
C8    C15   A    
Cu2   O9    S    
C12   C31   S    
H16   N5    S    
C30   C43   A    
C36   C44   A    
C37   C45   A    
C3    N3    S    
C3    N1    A    
C35   H25   S    
C40   H9    S    
C20   H20   S    
H19   N6    S    
C24   C28   S    
C39   O2    D    
C10   C13   A    
C6    N2    A    
C25   C27   S    
H18   N6    S    
C26   C28   S    
C12   O6    A    
C22   C27   S    
Cu1   O8    S    
Cu1   N1    S    
C29   C31   A    
C19   O10   A    
C30   C32   A    
C11   C13   A    
C26   H12   S    
C45   H2    S    
C2    C42   A    
Cu1   O10   S    
C30   C39   S    
Cu1   O1    S    
C43   C46   A    
C25   H1    S    
C4    N2    A    
C23   C36   A    
C22   C26   S    
C21   C24   S    
Cu2   O5    S    
C2    C41   S    
C4    C10   A    
C17   H6    S    
C22   H22   S    
C24   H23   S    
H15   N4    S    
