data_mof_unit_37813.cif
_audit_creation_date              2012-12-10T16:46:50-0500
_audit_creation_method            fapswitch 2.2
_symmetry_space_group_name_H-M    P1
_symmetry_Int_Tables_number       1
_space_group_crystal_system       triclinic
_cell_length_a                    15.851696
_cell_length_b                    8.689415
_cell_length_c                    7.472428
_cell_angle_alpha                 103.145135
_cell_angle_beta                  94.430197
_cell_angle_gamma                 92.490846
_cell_volume                      997.32642872

loop_
_atom_site_label
_atom_site_type_symbol
_atom_type_description
_atom_site_fract_x
_atom_site_fract_y
_atom_site_fract_z
_atom_type_partial_charge
C1    C     C_R   0.497488 0.199716 0.453141 0.863068
C2    C     C_2   0.503806 0.968342 0.572982 -0.371535
C3    C     C_R   0.340362 0.499761 0.501945 0.810915
C4    C     C_R   0.502581 0.800281 0.546855 0.876527
C5    C     C_R   0.659637 0.500249 0.498022 0.818289
C6    C     C_3   0.052384 0.444036 0.668128 -0.431912
C7    C     C_3   0.040001 0.384693 0.314236 0.772598
C8    C     C_3   0.941392 0.384836 0.315990 -0.367713
C9    C     C_1   0.749120 0.499434 0.494006 -0.157837
C10   C     C_3   0.082661 0.497255 0.497518 0.193394
C11   C     C_3   0.954543 0.440079 0.662856 -0.383957
C12   C     C_3   0.916816 0.497700 0.493808 0.198080
C13   C     C_3   0.955539 0.666645 0.503459 -0.376990
C14   C     C_3   0.053396 0.667012 0.507665 -0.410202
C15   C     C_1   0.824657 0.498702 0.493058 -0.075166
C16   C     C_1   0.175166 0.498844 0.503603 -0.060720
C17   C     C_1   0.250829 0.499610 0.505257 -0.151705
C18   C     C_2   0.496362 0.031652 0.426995 -0.347569
Cu1   Cu    Cu3+1 0.509300 0.517380 0.684380 0.980352
Cu2   Cu    Cu3+1 0.490700 0.482620 0.315620 1.017624
H1    H     H_    0.929105 0.317255 0.656072 0.171693
H2    H     H_    0.913011 0.422911 0.193177 0.182599
H3    H     H_    0.082291 0.749100 0.636775 0.180158
H4    H     H_    0.075006 0.713329 0.390659 0.203405
H5    H     H_    0.937684 0.750209 0.629231 0.178370
H6    H     H_    0.608891 0.702921 0.994394 0.334376
H7    H     H_    0.121959 0.417707 0.141355 0.340522
H8    H     H_    0.041389 0.180002 0.386152 0.297451
H9    H     H_    0.080111 0.528132 0.796897 0.214095
H10   H     H_    0.935784 0.516687 0.792596 0.200058
H11   H     H_    0.929891 0.709493 0.381885 0.178398
H12   H     H_    0.489391 0.959693 0.286487 0.194228
H13   H     H_    0.510794 0.040301 0.713488 0.179222
H14   H     H_    0.434226 0.376923 0.948747 0.181879
H15   H     H_    0.074910 0.326028 0.675193 0.181376
H16   H     H_    0.913054 0.263352 0.305937 0.136691
N1    N     N_2   0.476670 0.456430 0.038530 -0.125659
N2    N     N_2   0.523330 0.543570 0.961470 0.069869
O1    O     O_R   0.506050 0.286130 0.619770 -0.597338
O2    O     O_3   0.062241 0.441691 0.160890 -0.754370
O3    O     O_3   0.066895 0.229099 0.293884 -0.747852
O4    O     O_R   0.490330 0.256780 0.308370 -0.593202
O5    O     O_R   0.387300 0.514690 0.655770 -0.597115
O6    O     O_R   0.371580 0.485340 0.344370 -0.583025
O7    O     O_R   0.509670 0.743220 0.691630 -0.602468
O8    O     O_R   0.493950 0.713870 0.380230 -0.524137
O9    O     O_R   0.628420 0.514660 0.655630 -0.592374
O10   O     O_R   0.612700 0.485310 0.344230 -0.522741
O11   O     O_3   0.579360 0.647182 0.075582 -0.579648

loop_
_geom_bond_atom_site_label_1
_geom_bond_atom_site_label_2
_ccdc_geom_bond_type
C14   H3    S    
C6    C10   S    
C7    C10   S    
C2    C4    S    
C11   C12   S    
Cu1   O7    S    
C5    C9    S    
N1    N2    D    
Cu1   N2    S    
C2    C18   D    
H14   N1    S    
H8    O3    S    
Cu2   O4    S    
Cu1   Cu2   S    
C12   C15   S    
C8    C12   S    
H7    O2    S    
C7    O2    S    
C3    O5    A    
C9    C15   T    
C7    C8    S    
N2    O11   S    
C4    O8    A    
C13   C14   S    
C6    H15   S    
Cu2   N1    S    
C5    O9    A    
C13   H5    S    
C1    C18   S    
Cu2   O10   S    
Cu1   O1    S    
C2    H13   S    
Cu2   O6    S    
C11   H1    S    
C3    C17   S    
C4    O7    A    
C7    O3    S    
C10   C14   S    
C5    O10   A    
Cu1   O9    S    
C3    O6    A    
C18   H12   S    
C1    O1    A    
C1    O4    A    
C6    H9    S    
C12   C13   S    
C8    H16   S    
H6    O11   S    
C14   H4    S    
C6    C11   S    
C10   C16   S    
C8    H2    S    
C13   H11   S    
Cu2   O8    S    
C11   H10   S    
Cu1   O5    S    
C16   C17   T    
