data_mof_unit_53243.cif
_audit_creation_date              2012-12-11T14:15:35-0500
_audit_creation_method            fapswitch 2.2
_symmetry_space_group_name_H-M    P1
_symmetry_Int_Tables_number       1
_space_group_crystal_system       triclinic
_cell_length_a                    11.07622
_cell_length_b                    12.699807
_cell_length_c                    23.460169
_cell_angle_alpha                 90.317488
_cell_angle_beta                  96.056211
_cell_angle_gamma                 69.080106
_cell_volume                      3063.46933725

loop_
_atom_site_label
_atom_site_type_symbol
_atom_type_description
_atom_site_fract_x
_atom_site_fract_y
_atom_site_fract_z
_atom_type_partial_charge
C1    C     C_R   0.149904 0.616736 0.428868 0.543363
C2    C     C_R   0.662191 0.556302 0.308734 -0.007691
C3    C     C_R   0.687164 0.739046 0.318116 -0.028931
C4    C     C_R   0.695925 0.742921 0.258111 0.022951
C5    C     C_R   0.701385 0.646575 0.225392 0.011245
C6    C     C_R   0.712374 0.648975 0.166049 0.017074
C7    C     C_R   0.682327 0.846794 0.169439 -0.082495
C8    C     C_R   0.698279 0.839670 0.229068 0.397864
C9    C     C_1   0.231069 0.167405 0.121311 -0.002269
C10   C     C_2   0.165109 0.240957 0.223617 0.012608
C11   C     C_2   0.161297 0.164873 0.263376 0.034035
C12   C     C_R   0.747281 0.604730 0.403934 0.542788
C13   C     C_1   0.135447 0.198286 0.321210 -0.019037
C14   C     C_1   0.201075 0.204794 0.167187 -0.021368
C15   C     C_1   0.117620 0.231290 0.368913 -0.002491
C16   C     C_1   0.163104 0.748636 0.122656 -0.027028
C17   C     C_2   0.143096 0.683389 0.227308 0.400127
C18   C     C_2   0.232611 0.684037 0.271104 0.010206
C19   C     C_1   0.216742 0.655773 0.328816 0.025277
C20   C     C_1   0.150803 0.717767 0.169520 -0.002618
C21   C     C_1   0.194512 0.635566 0.375960 0.008745
C22   C     C_1   0.632751 0.754766 0.865641 -0.000988
C23   C     C_R   0.101631 0.281605 0.423647 0.539072
C24   C     C_2   0.709613 0.697083 0.763230 0.001025
C25   C     C_2   0.616798 0.712209 0.718488 0.392101
C26   C     C_1   0.650066 0.673440 0.662251 0.015627
C27   C     C_1   0.670994 0.730865 0.819384 0.030377
C28   C     C_1   0.687694 0.640671 0.616753 0.002409
C29   C     C_R   0.262933 0.081581 0.837895 0.006945
C30   C     C_R   0.108762 0.199928 0.632056 -0.031022
C31   C     C_R   0.009898 0.159909 0.712711 0.426060
C32   C     C_R   0.997052 0.204627 0.657407 0.381926
C33   C     C_R   0.230876 0.137375 0.659493 -0.063658
C34   C     C_R   0.151760 0.617564 0.590082 0.583456
C35   C     C_R   0.242316 0.122586 0.719094 -0.043833
C36   C     C_R   0.132334 0.124127 0.745402 -0.014468
C37   C     C_R   0.145066 0.098109 0.804045 0.381649
C38   C     C_R   0.370822 0.091693 0.811503 -0.030398
C39   C     C_R   0.355308 0.120775 0.752868 0.016767
C40   C     C_R   0.129731 0.750597 0.850494 0.011795
C41   C     C_R   0.200120 0.640613 0.647454 0.037005
C42   C     C_R   0.314383 0.563711 0.740597 0.020284
C43   C     C_R   0.300109 0.556711 0.680813 0.324853
C44   C     C_R   0.124694 0.738168 0.672825 0.329456
C45   C     C_R   0.748502 0.602483 0.565741 0.543493
C46   C     C_R   0.120213 0.738553 0.731909 -0.011443
C47   C     C_R   0.218377 0.651498 0.766861 -0.033426
C48   C     C_R   0.219062 0.657730 0.826709 0.364802
C49   C     C_R   0.023663 0.825102 0.816017 -0.154737
C50   C     C_R   0.017333 0.820976 0.756817 -0.006612
C51   C     C_R   0.264647 0.111387 0.068950 0.557096
C52   C     C_R   0.602492 0.774497 0.080691 0.534313
C53   C     C_R   0.188225 0.787551 0.069396 0.538260
C54   C     C_R   0.272990 0.057526 0.900543 0.583506
C55   C     C_R   0.575005 0.776321 0.918341 0.530570
C56   C     C_R   0.099435 0.274674 0.583393 0.560799
C57   C     C_R   0.164033 0.786604 0.907048 0.564082
C58   C     C_R   0.678047 0.754394 0.137753 -0.053316
C59   C     C_R   0.687616 0.638495 0.344002 -0.042418
C60   C     C_R   0.680260 0.555822 0.251022 0.354405
Cr1   Cr    Cr6+3 0.189770 0.415650 0.511620 1.082908
Cr2   Cr    Cr6+3 0.930400 0.667320 0.496770 1.063552
Cr3   Cr    Cr6+3 0.879870 0.417010 0.491650 1.094115
Cr4   Cr    Cr6+3 0.149500 0.973980 0.985330 1.082856
Cr5   Cr    Cr6+3 0.457000 0.976510 0.994660 1.019602
Cr6   Cr    Cr6+3 0.411170 0.724270 0.995270 1.086281
H1    H     H_    0.664838 0.927254 0.148210 0.166826
H2    H     H_    0.950153 0.892625 0.835208 0.183988
O1    O     O_R   0.196340 0.303200 0.448500 -0.510704
O2    O     O_R   0.811960 0.658090 0.547150 -0.507215
O3    O     O_R   0.757930 0.506140 0.547110 -0.453934
O4    O     O_R   0.988670 0.321620 0.556040 -0.433368
O5    O     O_3   0.000020 0.499990 0.500010 -0.277678
O6    O     O_R   0.113660 0.883270 0.047820 -0.507500
O7    O     O_R   0.186930 0.068530 0.043990 -0.492652
O8    O     O_R   0.377770 0.089040 0.054220 -0.494717
O9    O     O_R   0.562800 0.872960 0.056970 -0.502189
O10   O     O_R   0.555390 0.700940 0.062700 -0.509917
O11   O     O_R   0.295020 0.731920 0.049950 -0.488589
O12   O     O_R   0.199310 0.519670 0.454880 -0.497584
O13   O     O_R   0.094290 0.884230 0.921550 -0.510126
O14   O     O_R   0.168980 0.069410 0.926940 -0.412747
O15   O     O_R   0.358400 0.089990 0.927950 -0.530796
O16   O     O_R   0.544850 0.873850 0.939920 -0.541297
O17   O     O_R   0.536020 0.701900 0.936430 -0.469342
O18   O     O_R   0.277070 0.732810 0.932890 -0.426129
O19   O     O_3   0.339220 0.891590 0.991750 -0.291183
O20   O     O_R   0.045660 0.691380 0.441680 -0.494656
O21   O     O_R   0.811930 0.659460 0.430950 -0.496771
O22   O     O_R   0.757900 0.507620 0.421760 -0.522471
O23   O     O_R   0.988630 0.322990 0.439840 -0.495228
O24   O     O_R   0.196380 0.301720 0.573850 -0.507628
O25   O     O_R   0.199350 0.518300 0.571080 -0.443353
O26   O     O_R   0.045700 0.689900 0.567030 -0.448926
C61   C     C_3   0.759015 0.542208 0.132574 -0.276890
H3    H     H_    0.840750 0.476270 0.158303 0.168746
H4    H     H_    0.678576 0.510807 0.120569 0.212417
H5    H     H_    0.796964 0.557665 0.092692 0.115781
F1    F     F_    0.040357 0.653679 0.237098 -0.643306
F2    F     F_    0.488951 0.765614 0.725433 -0.632598
C62   C     C_3   0.851451 0.631741 0.758303 -0.434889
H6    H     H_    0.913147 0.640099 0.797298 0.145824
H7    H     H_    0.866851 0.541037 0.753192 0.164762
H8    H     H_    0.883259 0.663213 0.720726 0.121219
F3    F     F_    0.041845 0.091368 0.828370 -0.569488
C63   C     C_3   0.503445 0.073488 0.843995 -0.345439
H9    H     H_    0.581590 0.061131 0.815983 0.122748
H10   H     H_    0.499448 0.145801 0.871505 0.171205
H11   H     H_    0.538462 0.994420 0.868891 0.170879
F4    F     F_    0.900507 0.166976 0.736284 -0.557509
C64   C     C_3   0.445814 0.172298 0.729189 -0.356872
H12   H     H_    0.479427 0.221995 0.761981 0.139999
H13   H     H_    0.531435 0.105272 0.714477 0.146360
H14   H     H_    0.395142 0.234990 0.693744 0.191062
F5    F     F_    0.875553 0.256594 0.630143 -0.564446
C65   C     C_3   0.343039 0.078499 0.624968 -0.347911
H15   H     H_    0.307649 0.041295 0.586763 0.145567
H16   H     H_    0.388052 0.137271 0.610350 0.166145
H17   H     H_    0.419051 0.007769 0.650494 0.169408
F6    F     F_    0.308920 0.577731 0.862628 -0.641489
C66   C     C_3   0.429357 0.475386 0.774529 -0.266602
H18   H     H_    0.497905 0.418461 0.746760 0.191312
H19   H     H_    0.485987 0.516959 0.801935 0.198662
H20   H     H_    0.395269 0.421822 0.801116 0.169210
C67   C     C_3   0.898549 0.903994 0.722371 -0.268006
H21   H     H_    0.822827 0.951262 0.750010 0.129705
H22   H     H_    0.925531 0.966921 0.699414 0.252047
H23   H     H_    0.853589 0.858785 0.691282 0.152356
F7    F     F_    0.380909 0.466420 0.655206 -0.620270
F8    F     F_    0.050955 0.829879 0.639013 -0.629388
F9    F     F_    0.664646 0.470733 0.219349 -0.663371
F10   F     F_    0.706439 0.931168 0.256908 -0.643429
C68   C     C_3   0.610771 0.470370 0.330632 -0.306576
H24   H     H_    0.561107 0.499165 0.369645 0.126632
H25   H     H_    0.535756 0.459149 0.298359 0.173677
H26   H     H_    0.691286 0.387819 0.339458 0.181368
C69   C     C_3   0.665241 0.842863 0.353683 -0.298834
H27   H     H_    0.635454 0.832173 0.396308 0.110909
H28   H     H_    0.755091 0.863318 0.359830 0.212672
H29   H     H_    0.583045 0.915131 0.332424 0.172220
C70   C     C_3   0.193056 0.042047 0.250421 -0.377840
H30   H     H_    0.179503 0.994423 0.287308 0.142643
H31   H     H_    0.128325 0.033328 0.212632 0.151232
H32   H     H_    0.295954 0.004180 0.241375 0.130448
C71   C     C_3   0.134844 0.363707 0.236673 -0.344439
H33   H     H_    0.139250 0.412714 0.198355 0.163181
H34   H     H_    0.035386 0.400800 0.250030 0.166760
H35   H     H_    0.206434 0.371901 0.271648 0.150129
C72   C     C_3   0.346315 0.718070 0.261930 -0.450981
H36   H     H_    0.404552 0.719182 0.303291 0.135638
H37   H     H_    0.409086 0.657783 0.233403 0.164101
H38   H     H_    0.311548 0.803689 0.241522 0.121949

loop_
_geom_bond_atom_site_label_1
_geom_bond_atom_site_label_2
_ccdc_geom_bond_type
C1    C21   S    
C62   H6    S    
C49   H2    S    
C45   O3    A    
C61   H3    S    
C6    C58   A    
C35   C36   A    
C9    C51   S    
C24   C27   S    
C4    C8    A    
Cr6   O17   S    
C71   H33   S    
C61   H5    S    
C7    C8    A    
C48   F6    S    
C65   H15   S    
Cr6   O11   S    
C69   H28   S    
Cr5   O8    S    
C63   H10   S    
C12   O22   A    
C36   C37   A    
C53   O11   A    
C51   O7    A    
C18   C19   S    
C70   H31   S    
C5    C6    A    
C2    C60   A    
Cr5   O15   S    
C29   C54   S    
Cr1   O12   S    
C44   F8    S    
C40   C49   A    
Cr2   O21   S    
C17   C20   S    
C57   O18   A    
Cr2   O2    S    
C24   C62   S    
C23   O1    A    
C16   C53   S    
C66   H20   S    
C12   C59   S    
Cr4   O7    S    
C53   O6    A    
C56   O4    A    
C29   C38   A    
C8    F10   S    
C67   H23   S    
C34   O25   A    
Cr2   O5    S    
C3    C69   S    
C18   C72   S    
Cr4   O19   S    
C30   C33   A    
Cr1   O24   S    
C1    O20   A    
C39   C64   S    
C62   H7    S    
C41   C43   A    
C34   C41   S    
C52   O10   A    
C60   F9    S    
C54   O15   A    
C71   H34   S    
C44   C46   A    
Cr5   O19   S    
C38   C39   A    
Cr6   O10   S    
C69   H29   S    
C28   C45   S    
C2    C68   S    
Cr5   O9    S    
C64   H12   S    
C12   O21   A    
C43   F7    S    
C51   O8    A    
C10   C14   S    
C72   H38   S    
Cr6   O19   S    
C2    C59   A    
Cr5   O16   S    
Cr3   O5    S    
Cr1   O5    S    
C25   C26   S    
C30   C56   S    
C55   O17   A    
C35   C39   A    
C9    C14   T    
Cr2   O26   S    
C37   F3    S    
C68   H26   S    
C11   C70   S    
C25   F2    S    
C47   C48   A    
C16   C20   T    
C38   C63   S    
C17   C18   D    
C64   H13   S    
C50   C67   S    
C24   C25   D    
C17   F1    S    
Cr4   O14   S    
C66   H18   S    
C52   C58   S    
Cr3   O3    S    
C49   C50   A    
C62   H8    S    
C22   C27   T    
C13   C15   T    
C67   H21   S    
C41   C44   A    
C23   O23   A    
C70   H32   S    
C42   C43   A    
C29   C37   A    
C52   O9    A    
C54   O14   A    
C71   H35   S    
C67   H22   S    
Cr1   O1    S    
C40   C48   A    
C46   C47   A    
C33   C65   S    
C40   C57   S    
C7    C58   A    
C5    C60   A    
C19   C21   T    
C45   O2    A    
C31   C32   A    
C34   O26   A    
C4    C5    A    
Cr6   O18   S    
C61   H4    S    
C22   C55   S    
C69   H27   S    
C46   C50   A    
C26   C28   T    
C65   H17   S    
C72   H37   S    
C70   H30   S    
C30   C32   A    
C11   C13   S    
C68   H24   S    
Cr2   O20   S    
Cr3   O22   S    
C15   C23   S    
C33   C35   A    
C31   F4    S    
C65   H16   S    
C64   H14   S    
C57   O13   A    
C42   C47   A    
C32   F5    S    
Cr4   O13   S    
C66   H19   S    
C10   C11   D    
C10   C71   S    
C7    H1    S    
C56   O24   A    
Cr3   O4    S    
C6    C61   S    
C63   H9    S    
Cr3   O23   S    
C68   H25   S    
C1    O12   A    
Cr4   O6    S    
C31   C36   A    
C55   O16   A    
C72   H36   S    
Cr1   O25   S    
C3    C4    A    
C42   C66   S    
C63   H11   S    
C3    C59   A    
