data_mof_unit_46513.cif
_audit_creation_date              2012-12-10T18:53:00-0500
_audit_creation_method            fapswitch 2.2
_symmetry_space_group_name_H-M    P1
_symmetry_Int_Tables_number       1
_space_group_crystal_system       triclinic
_cell_length_a                    9.956079
_cell_length_b                    10.638509
_cell_length_c                    17.064833
_cell_angle_alpha                 94.324984
_cell_angle_beta                  85.095534
_cell_angle_gamma                 90.534668
_cell_volume                      1795.71660149

loop_
_atom_site_label
_atom_site_type_symbol
_atom_type_description
_atom_site_fract_x
_atom_site_fract_y
_atom_site_fract_z
_atom_type_partial_charge
C1    C     C_R   0.501955 0.739356 0.491583 0.876351
C2    C     C_R   0.497644 0.262275 0.511145 0.903487
C3    C     C_R   0.625527 0.941944 0.493494 0.147621
C4    C     C_R   0.373125 0.062000 0.519173 0.152457
C5    C     C_R   0.617187 0.065776 0.525845 0.142328
C6    C     C_R   0.380425 0.938699 0.486163 0.147386
C7    C     C_R   0.494075 0.129625 0.526327 -0.171385
C8    C     C_R   0.504481 0.874514 0.483238 -0.156909
C9    C     C_R   0.934866 0.419055 0.448269 0.190935
C10   C     C_R   0.064970 0.578672 0.553029 0.195603
C11   C     C_R   0.078475 0.418660 0.448488 0.199811
C12   C     C_R   0.921300 0.578146 0.553248 0.204810
C13   C     C_R   0.481138 0.503026 0.651804 0.916071
C14   C     C_R   0.518910 0.509257 0.347831 0.899813
C15   C     C_R   0.470007 0.515759 0.736759 -0.154042
C16   C     C_R   0.530106 0.515679 0.261526 -0.200241
C17   C     C_R   0.511612 0.629446 0.776103 0.121314
C18   C     C_R   0.411878 0.503425 0.221118 0.164666
C19   C     C_R   0.528444 0.632117 0.857243 0.126666
C20   C     C_R   0.420736 0.445691 0.144547 0.095158
C21   C     C_R   0.490359 0.525013 0.898081 -0.107148
C22   C     C_R   0.548144 0.437572 0.101574 -0.124336
C23   C     C_R   0.436618 0.417612 0.859242 0.638265
C24   C     C_R   0.665060 0.472290 0.137589 0.621019
C25   C     C_R   0.429210 0.410801 0.778191 0.009599
C26   C     C_R   0.657413 0.514144 0.217341 0.009394
C27   C     C_2   0.495353 0.526787 0.982998 0.450062
C28   C     C_2   0.555596 0.434176 0.015951 0.624626
N1    N     N_R   0.142790 0.500030 0.500020 -0.117135
N2    N     N_R   0.857210 0.499970 0.499980 -0.115865
O1    O     O_R   0.385380 0.683250 0.500010 -0.624069
O2    O     O_R   0.614620 0.316750 0.499990 -0.615973
O3    O     O_R   0.614710 0.683220 0.500000 -0.628827
O4    O     O_R   0.385290 0.316780 0.500000 -0.618627
O5    O     O_R   0.371780 0.500040 0.615800 -0.627964
O6    O     O_R   0.628220 0.499960 0.384200 -0.622974
O7    O     O_R   0.601110 0.500010 0.615800 -0.617499
O8    O     O_R   0.398890 0.499990 0.384200 -0.620644
Zn1   Zn    Zn3+2 0.346870 0.500020 0.500000 0.920211
Zn2   Zn    Zn3+2 0.653130 0.499980 0.500000 0.921537
C29   C     C_3   0.535260 0.748604 0.732990 -0.869402
H1    H     H_    0.472092 0.825984 0.763409 0.254153
H2    H     H_    0.642707 0.777157 0.732190 0.243193
H3    H     H_    0.507527 0.738744 0.671311 0.222345
C30   C     C_3   0.282314 0.570432 0.252298 -0.779064
H4    H     H_    0.249499 0.630153 0.206864 0.252737
H5    H     H_    0.200986 0.502406 0.266007 0.229558
H6    H     H_    0.295190 0.636375 0.304439 0.233945
C31   C     C_3   0.782478 0.572432 0.249312 -0.731104
H7    H     H_    0.759723 0.634275 0.303935 0.226657
H8    H     H_    0.854521 0.498005 0.259231 0.239742
H9    H     H_    0.832564 0.634551 0.206081 0.256602
C32   C     C_3   0.378019 0.292054 0.736238 -0.772873
H10   H     H_    0.455098 0.255158 0.689546 0.204936
H11   H     H_    0.354598 0.216000 0.776364 0.291021
H12   H     H_    0.284129 0.313933 0.709495 0.233307
F1    F     F_    0.630253 0.343889 0.971679 -0.610301
F2    F     F_    0.433170 0.623723 0.028634 -0.684164
F3    F     F_    0.390762 0.319586 0.900957 -0.657693
F4    F     F_    0.785401 0.474141 0.093390 -0.631061
C33   C     C_3   0.293728 0.400945 0.107820 -0.729208
H13   H     H_    0.231585 0.344440 0.149539 0.224967
H14   H     H_    0.233837 0.482434 0.093664 0.279012
H15   H     H_    0.316575 0.338888 0.053235 0.272257
C34   C     C_3   0.590151 0.747657 0.898200 -0.693981
H16   H     H_    0.685896 0.773113 0.864855 0.219200
H17   H     H_    0.519143 0.828089 0.901724 0.254948
H18   H     H_    0.616888 0.733182 0.958514 0.264385
C35   C     C_3   0.762849 0.889062 0.463528 -0.832893
H19   H     H_    0.755367 0.811008 0.417164 0.244979
H20   H     H_    0.825353 0.962377 0.434746 0.225373
H21   H     H_    0.815749 0.857122 0.512832 0.245668
C36   C     C_3   0.237780 0.113786 0.553737 -0.833679
H22   H     H_    0.247050 0.202598 0.590945 0.252337
H23   H     H_    0.171193 0.128908 0.506867 0.238856
H24   H     H_    0.188071 0.045272 0.592933 0.228622
C37   C     C_3   0.735564 0.124257 0.565740 -0.814677
H25   H     H_    0.704751 0.208049 0.605788 0.250143
H26   H     H_    0.776816 0.055660 0.603321 0.229495
H27   H     H_    0.816518 0.151150 0.521586 0.241973
C38   C     C_3   0.258882 0.882389 0.448425 -0.827257
H28   H     H_    0.286990 0.801555 0.405601 0.241261
H29   H     H_    0.181433 0.853162 0.493982 0.246340
H30   H     H_    0.214072 0.952882 0.413606 0.225321
C39   C     C_3   0.870889 0.325628 0.391102 -0.809503
H31   H     H_    0.910628 0.339224 0.329787 0.212099
H32   H     H_    0.893629 0.227900 0.403885 0.206059
H33   H     H_    0.762100 0.331827 0.392062 0.299551
C40   C     C_3   0.128642 0.665351 0.613982 -0.802070
H34   H     H_    0.099676 0.764523 0.609160 0.197652
H35   H     H_    0.096043 0.637456 0.674084 0.232377
H36   H     H_    0.237907 0.666814 0.608182 0.292801
C41   C     C_3   0.156729 0.324182 0.391660 -0.807344
H37   H     H_    0.124258 0.227102 0.403046 0.203114
H38   H     H_    0.137734 0.338607 0.330153 0.207969
H39   H     H_    0.265263 0.326944 0.394017 0.299550
C42   C     C_3   0.841101 0.660180 0.616324 -0.828986
H40   H     H_    0.844056 0.619694 0.674240 0.240314
H41   H     H_    0.880371 0.757841 0.620711 0.198133
H42   H     H_    0.736783 0.671761 0.604753 0.296756

loop_
_geom_bond_atom_site_label_1
_geom_bond_atom_site_label_2
_ccdc_geom_bond_type
C41   H37   S    
C33   H15   S    
C1    C8    S    
C36   H23   S    
C36   H22   S    
C32   H11   S    
C2    C7    S    
C42   H42   S    
C42   H40   S    
C1    O3    A    
C32   H10   S    
C23   F3    S    
C3    C35   S    
C24   C26   A    
C13   O5    A    
O7    Zn2   S    
C14   O6    A    
O8    Zn1   S    
C39   H33   S    
C1    O1    A    
C18   C20   A    
C2    O2    A    
C29   H1    S    
C20   C33   S    
C33   H14   S    
C42   H41   S    
C10   C40   S    
C31   H8    S    
C40   H35   S    
C13   O7    A    
C37   H25   S    
C9    C39   S    
C11   C41   S    
C37   H26   S    
C21   C27   S    
C41   H38   S    
C6    C38   S    
C22   C28   S    
C29   H2    S    
C33   H13   S    
C4    C7    A    
C38   H29   S    
C38   H28   S    
C30   H5    S    
C16   C26   A    
O3    Zn2   S    
C35   H20   S    
C39   H32   S    
O4    Zn1   S    
O6    Zn2   S    
C4    C6    A    
C3    C8    A    
C26   C31   S    
C5    C7    A    
C17   C19   A    
C6    C8    A    
C30   H6    S    
C34   H17   S    
C30   H4    S    
C35   H21   S    
O5    Zn1   S    
C14   O8    A    
C24   F4    S    
C34   H18   S    
N1    Zn1   S    
C12   C42   S    
N2    Zn2   S    
C40   H36   S    
C9    C11   A    
C4    C36   S    
C10   C12   A    
C9    N2    A    
C20   C22   A    
C31   H7    S    
C41   H39   S    
C13   C15   S    
C29   H3    S    
C14   C16   S    
C5    C37   S    
C18   C30   S    
C38   H30   S    
C32   H12   S    
C15   C17   A    
C12   N2    A    
C31   H9    S    
C25   C32   S    
C3    C5    A    
C27   F2    S    
C39   H31   S    
C21   C23   A    
C37   H27   S    
C10   N1    A    
C2    O4    A    
C36   H24   S    
O1    Zn1   S    
C19   C34   S    
C22   C24   A    
O2    Zn2   S    
C35   H19   S    
C17   C29   S    
C15   C25   A    
C23   C25   A    
C11   N1    A    
C16   C18   A    
C34   H16   S    
C27   C28   D    
C40   H34   S    
C28   F1    S    
C19   C21   A    
