data_mof_unit_46864.cif
_audit_creation_date              2012-12-11T17:24:59-0500
_audit_creation_method            fapswitch 2.2
_symmetry_space_group_name_H-M    P1
_symmetry_Int_Tables_number       1
_space_group_crystal_system       triclinic
_cell_length_a                    6.954934
_cell_length_b                    20.540747
_cell_length_c                    24.498976
_cell_angle_alpha                 90.063688
_cell_angle_beta                  90.438067
_cell_angle_gamma                 89.4939
_cell_volume                      3499.67169681

loop_
_atom_site_label
_atom_site_type_symbol
_atom_type_description
_atom_site_fract_x
_atom_site_fract_y
_atom_site_fract_z
_atom_type_partial_charge
O1    O     O_R   0.507280 0.423750 0.460310 -0.536030
O2    O     O_R   0.171030 0.555650 0.437630 -0.536777
O3    O     O_R   0.004080 0.576250 0.539690 -0.536265
C1    C     C_R   0.339099 0.575674 0.421789 0.724217
O4    O     O_R   0.177330 0.422980 0.453960 -0.537961
O5    O     O_R   0.010420 0.442640 0.556140 -0.534867
C2    C     C_R   0.346220 0.399143 0.443230 0.694371
O6    O     O_R   0.500930 0.557360 0.443860 -0.535052
O7    O     O_3   0.340310 0.506600 0.533500 -0.366571
V1    V     V_3+5 0.064140 0.498780 0.493780 1.424899
O8    O     O_R   0.680890 0.444350 0.562370 -0.537156
C3    C     C_R   0.850528 0.424428 0.578159 0.724530
O9    O     O_R   0.674590 0.577020 0.546040 -0.537768
C4    C     C_R   0.842717 0.600875 0.556755 0.694344
V2    V     V_3+5 0.564550 0.501220 0.506220 1.425573
O10   O     O_3   0.838250 0.493400 0.466500 -0.366757
C5    C     C_R   0.976040 0.838461 0.910904 -0.042595
C6    C     C_R   0.847451 0.661457 0.589044 -0.042705
C7    C     C_R   0.041499 0.722924 0.905275 -0.161555
C8    C     C_R   0.031970 0.780098 0.935662 -0.167110
C9    C     C_R   0.930131 0.839395 0.854880 -0.215533
C10   C     C_R   0.942030 0.781728 0.822519 0.086860
C11   C     C_R   0.998549 0.723231 0.849202 0.139429
C12   C     C_R   0.902639 0.780033 0.764822 0.058297
C13   C     C_R   0.920653 0.719879 0.735135 0.057991
C14   C     C_R   0.976750 0.663455 0.764170 -0.187422
C15   C     C_R   0.014305 0.665281 0.819862 -0.201665
C16   C     C_R   0.846430 0.836449 0.735793 -0.187883
C17   C     C_R   0.808799 0.834617 0.680104 -0.202146
C18   C     C_R   0.824639 0.776672 0.650760 0.139826
C19   C     C_R   0.881303 0.718185 0.677436 0.086712
C20   C     C_R   0.781630 0.776971 0.594690 -0.161808
C21   C     C_R   0.791294 0.719802 0.564297 -0.167312
C22   C     C_R   0.893401 0.660532 0.645065 -0.215062
H1    H     H_    0.057524 0.620585 0.840222 0.122916
H2    H     H_    0.933222 0.613950 0.662054 0.093896
H3    H     H_    0.753532 0.720963 0.521313 0.107548
H4    H     H_    0.765463 0.879304 0.659750 0.122260
H5    H     H_    0.085386 0.678304 0.925604 0.113708
H6    H     H_    0.069702 0.778931 0.978648 0.107640
H7    H     H_    0.890550 0.885993 0.837878 0.092949
H8    H     H_    0.993738 0.616604 0.745022 0.123303
H9    H     H_    0.829338 0.883292 0.754948 0.122413
H10   H     H_    0.737608 0.821579 0.574367 0.113334
C23   C     C_R   0.761711 0.297537 0.750049 -0.224939
H11   H     H_    0.649073 0.334338 0.750182 0.120715
C24   C     C_R   0.891176 0.294911 0.706425 0.097147
C25   C     C_R   0.036419 0.247113 0.706657 -0.150977
H12   H     H_    0.138035 0.244368 0.673421 0.125913
C26   C     C_R   0.052345 0.202519 0.749857 -0.237447
H13   H     H_    0.166571 0.166321 0.749244 0.132722
C27   C     C_R   0.923154 0.204761 0.793602 0.090733
C28   C     C_R   0.775080 0.252514 0.793462 0.309213
C29   C     C_1   0.875031 0.341064 0.661457 -0.040857
C30   C     C_1   0.945546 0.158722 0.838578 -0.015082
C31   C     C_1   0.960743 0.120586 0.876313 -0.195522
C32   C     C_1   0.862758 0.379285 0.623679 -0.195609
H14   H     H_    0.699018 0.702351 0.296279 0.112353
C33   C     C_R   0.596703 0.767430 0.233308 -0.156058
H15   H     H_    0.740561 0.780245 0.220822 0.110863
C34   C     C_R   0.436047 0.795035 0.206670 0.136057
C35   C     C_R   0.251284 0.777316 0.223833 -0.155894
H16   H     H_    0.125201 0.797900 0.203900 0.112387
C36   C     C_R   0.227517 0.732824 0.266874 -0.156074
H17   H     H_    0.083658 0.720005 0.279358 0.110850
C37   C     C_R   0.388172 0.705218 0.293511 0.136059
C38   C     C_R   0.572935 0.722938 0.276349 -0.155929
C39   C     C_1   0.459763 0.841031 0.161753 -0.059750
C40   C     C_1   0.364459 0.659197 0.338410 -0.059839
C41   C     C_1   0.349090 0.620977 0.376149 -0.192774
C42   C     C_1   0.475141 0.879216 0.123989 -0.192794
C43   C     C_R   0.472558 0.161582 0.089035 -0.043150
C44   C     C_R   0.352407 0.338576 0.410918 -0.042377
C45   C     C_R   0.532336 0.277116 0.094636 -0.159565
C46   C     C_R   0.524034 0.219937 0.064248 -0.166380
C47   C     C_R   0.429875 0.160658 0.145067 -0.213846
C48   C     C_R   0.440619 0.218321 0.177422 0.086623
C49   C     C_R   0.492571 0.276816 0.150724 0.138283
C50   C     C_R   0.404366 0.220014 0.235126 0.057964
C51   C     C_R   0.420787 0.280171 0.264810 0.057767
C52   C     C_R   0.472303 0.336597 0.235764 -0.186520
C53   C     C_R   0.506901 0.334769 0.180063 -0.200523
C54   C     C_R   0.352853 0.163585 0.264168 -0.186700
C55   C     C_R   0.318211 0.165410 0.319860 -0.201197
C56   C     C_R   0.332499 0.223360 0.349198 0.139584
C57   C     C_R   0.384498 0.281861 0.322515 0.086674
C58   C     C_R   0.292605 0.223045 0.405272 -0.161900
C59   C     C_R   0.300825 0.280212 0.435667 -0.167711
C60   C     C_R   0.395207 0.339519 0.354887 -0.214816
H18   H     H_    0.546626 0.379466 0.159695 0.123677
H19   H     H_    0.431521 0.386112 0.337890 0.094199
H20   H     H_    0.265525 0.279034 0.478657 0.106267
H21   H     H_    0.278462 0.120710 0.340222 0.123359
H22   H     H_    0.572705 0.321735 0.074291 0.115056
H23   H     H_    0.559152 0.221099 0.021241 0.111671
H24   H     H_    0.393589 0.114068 0.162072 0.094378
H25   H     H_    0.487872 0.383449 0.254913 0.123829
H26   H     H_    0.337292 0.116730 0.245025 0.123843
H27   H     H_    0.252161 0.178422 0.425600 0.112951
O11   O     O_R   0.323320 0.942780 0.056240 -0.534745
O12   O     O_R   0.647300 0.077050 0.046060 -0.537373
O13   O     O_R   0.813840 0.057330 0.943840 -0.534748
C61   C     C_R   0.478518 0.100996 0.056760 0.694525
O14   O     O_R   0.653250 0.944380 0.062400 -0.536557
O15   O     O_R   0.819830 0.923720 0.960300 -0.536271
C62   C     C_R   0.485153 0.924451 0.078303 0.725207
O16   O     O_R   0.317330 0.076390 0.039790 -0.536034
O17   O     O_3   0.483830 0.993470 0.966560 -0.367797
V3    V     V_3+5 0.760140 0.001210 0.006210 1.424128
O18   O     O_R   0.149290 0.922840 0.953850 -0.538069
C63   C     C_R   0.981056 0.899046 0.943182 0.694028
O19   O     O_R   0.143340 0.055500 0.937510 -0.539518
C64   C     C_R   0.973672 0.075500 0.921807 0.723507
V4    V     V_3+5 0.259690 0.998600 0.993650 1.420572
O20   O     O_3   0.986130 0.006520 0.033440 -0.365733
N1    N     N_2   0.643117 0.257158 0.837550 -0.525857
H28   H     H_    0.582894 0.302659 0.843605 0.251137
C65   C     C_3   0.507124 0.204451 0.842823 -0.523399
H29   H     H_    0.358714 0.222889 0.835251 0.191282
H30   H     H_    0.515416 0.184735 0.884943 0.205485
H31   H     H_    0.536219 0.164164 0.813567 0.190309

loop_
_geom_bond_atom_site_label_1
_geom_bond_atom_site_label_2
_ccdc_geom_bond_type
C13   C19   A    
C50   C54   A    
C58   C59   A    
C1    C41   S    
C4    C6    S    
O2    C1    A    
C7    C8    A    
C1    O6    A    
O14   C62   A    
V4    O20   S    
C46   H23   S    
C2    C44   S    
C48   C49   A    
N1    H28   S    
C14   C15   A    
C17   C18   A    
C16   C17   A    
O5    C3    A    
O14   V3    S    
C8    H6    S    
C37   C40   S    
O12   V3    S    
V2    O10   S    
C5    C8    A    
O17   V3    S    
C23   C24   A    
O17   V4    S    
C45   H22   S    
C65   H29   S    
C35   C36   A    
C33   C38   A    
O18   C63   A    
O8    V2    S    
C55   C56   A    
C24   C25   A    
C54   H26   S    
C17   H4    S    
C26   C27   A    
C31   C64   S    
O1    V2    S    
C11   C15   A    
C60   H19   S    
O7    V1    S    
O18   V4    S    
C27   C30   S    
C43   C47   A    
C56   C58   A    
C37   C38   A    
O15   C63   A    
C23   C28   A    
C33   H15   S    
O12   C61   A    
O9    C4    A    
C34   C35   A    
C43   C46   A    
C5    C63   S    
O19   V4    S    
O19   C64   A    
C52   C53   A    
C58   H27   S    
C48   C50   A    
C33   C34   A    
C45   C46   A    
C59   H20   S    
O11   V4    S    
C12   C13   A    
O4    C2    A    
C15   H1    S    
C13   C14   A    
C56   C57   A    
C21   H3    S    
C65   H31   S    
C36   C37   A    
C7    C11   A    
C44   C59   A    
C35   H16   S    
C49   C53   A    
C54   C55   A    
C30   C31   T    
C26   H13   S    
C20   H10   S    
C19   C22   A    
C47   C48   A    
C6    C22   A    
O3    C4    A    
C7    H5    S    
C24   C29   S    
C9    H7    S    
C3    C32   S    
C25   H12   S    
O6    V2    S    
O9    V2    S    
C10   C12   A    
O2    V1    S    
C27   C28   A    
C14   H8    S    
O16   V4    S    
O15   V3    S    
O1    C2    A    
O11   C62   A    
C12   C16   A    
C51   C52   A    
C57   C60   A    
O5    V1    S    
O8    C3    A    
C28   N1    S    
C43   C61   S    
C16   H9    S    
C51   C57   A    
C53   H18   S    
C20   C21   A    
O7    V2    S    
C44   C60   A    
O4    V1    S    
O3    V1    S    
V1    O10   S    
C47   H24   S    
C18   C20   A    
C34   C39   S    
C18   C19   A    
C52   H25   S    
C39   C42   T    
C36   H17   S    
C25   C26   A    
N1    C65   S    
C22   H2    S    
C55   H21   S    
C40   C41   T    
C6    C21   A    
C65   H30   S    
V3    O20   S    
C50   C51   A    
C23   H11   S    
H14   C38   S    
C45   C49   A    
C42   C62   S    
O13   C64   A    
C10   C11   A    
O13   V3    S    
C61   O16   A    
C9    C10   A    
C29   C32   T    
C5    C9    A    
