data_mof_unit_34311.cif
_audit_creation_date              2012-12-11T14:27:01-0500
_audit_creation_method            fapswitch 2.2
_symmetry_space_group_name_H-M    P1
_symmetry_Int_Tables_number       1
_space_group_crystal_system       triclinic
_cell_length_a                    15.018433
_cell_length_b                    14.962599
_cell_length_c                    14.959514
_cell_angle_alpha                 109.716624
_cell_angle_beta                  109.402841
_cell_angle_gamma                 109.401313
_cell_volume                      2584.33333225

loop_
_atom_site_label
_atom_site_type_symbol
_atom_type_description
_atom_site_fract_x
_atom_site_fract_y
_atom_site_fract_z
_atom_type_partial_charge
C1    C     C_R   0.972954 0.787026 0.065513 0.113004
C2    C     C_R   0.212399 0.799437 0.302543 -0.081410
C3    C     C_R   0.958088 0.406350 0.220586 -0.201820
C4    C     C_R   0.779744 0.254252 0.687261 -0.143147
C5    C     C_R   0.314223 0.591160 0.065255 -0.124087
C6    C     C_R   0.017624 0.496861 0.324440 -0.036472
C7    C     C_R   0.324945 0.498944 0.049125 -0.009399
C8    C     C_R   0.309240 0.857423 0.308212 0.065129
C9    C     C_R   0.931478 0.132840 0.929183 0.154555
C10   C     C_3   0.524045 0.389371 0.055781 -0.387943
C11   C     C_3   0.421145 0.389987 0.053207 -0.382734
C12   C     C_R   0.678013 0.229653 0.676503 0.130899
C13   C     C_3   0.630795 0.594839 0.173721 -0.366195
C14   C     C_3   0.537822 0.506322 0.966766 -0.402222
C15   C     C_3   0.599652 0.496874 0.065686 0.360641
C16   C     C_R   0.098126 0.587294 0.792797 -0.043897
C17   C     C_3   0.425357 0.497618 0.060207 0.373419
C18   C     C_3   0.527372 0.595121 0.170477 -0.412383
C19   C     C_3   0.435665 0.506575 0.963339 -0.378900
C20   C     C_2   0.385061 0.038800 0.463776 -0.093497
C21   C     C_2   0.397376 0.967874 0.392240 -0.152813
C22   C     C_2   0.480310 0.136618 0.564810 -0.105306
C23   C     C_R   0.069725 0.495327 0.701784 0.089616
C24   C     C_2   0.578491 0.179203 0.573188 -0.194886
C25   C     C_2   0.067420 0.403956 0.532202 -0.107538
C26   C     C_2   0.113474 0.494720 0.628521 -0.186460
C27   C     C_2   0.056609 0.411638 0.434624 -0.168991
C28   C     C_R   0.699688 0.407534 0.002106 -0.154134
C29   C     C_2   0.047841 0.495115 0.426098 -0.072939
C30   C     C_2   0.929852 0.963433 0.842747 -0.104359
C31   C     C_2   0.887408 0.016471 0.889098 -0.225205
C32   C     C_2   0.945745 0.883071 0.869665 -0.072045
C33   C     C_2   0.971919 0.898457 0.970812 -0.108638
C34   C     C_R   0.696007 0.497514 0.061549 0.002631
C35   C     C_R   0.005216 0.406424 0.702570 -0.131255
C36   C     C_R   0.786703 0.588957 0.090520 -0.088973
C37   C     C_R   0.687917 0.253931 0.778529 -0.109891
C38   C     C_R   0.059169 0.781540 0.969134 0.488332
C39   C     C_R   0.001819 0.826963 0.002473 -0.063381
C40   C     C_3   0.963501 0.850517 0.160643 -0.372802
C41   C     C_3   0.065048 0.963955 0.242379 -0.820055
C42   C     C_R   0.036763 0.589152 0.313823 0.524862
C43   C     C_R   0.222451 0.407692 0.974107 -0.138181
C44   C     C_R   0.303968 0.796615 0.212609 -0.088958
C45   C     C_R   0.905655 0.197083 0.993889 -0.152665
C46   C     C_R   0.995958 0.196342 0.902408 -0.114917
H1    H     H_    0.199719 0.322340 0.937230 0.102453
H2    H     H_    0.349853 0.316551 0.975715 0.157435
H3    H     H_    0.800181 0.245237 0.623205 0.104614
H4    H     H_    0.414264 0.382483 0.122462 0.169997
H5    H     H_    0.675752 0.588943 0.245504 0.183421
H6    H     H_    0.520988 0.588808 0.240371 0.166530
H7    H     H_    0.590680 0.583227 0.972574 0.157452
H8    H     H_    0.514658 0.436439 0.888734 0.162159
H9    H     H_    0.363096 0.436710 0.883588 0.160591
H10   H     H_    0.439485 0.583429 0.966918 0.161620
H11   H     H_    0.684491 0.674493 0.185132 0.153180
H12   H     H_    0.359140 0.825228 0.184321 0.138146
H13   H     H_    0.534898 0.674826 0.180780 0.153113
H14   H     H_    0.305945 0.017038 0.457656 0.134371
H15   H     H_    0.164825 0.666803 0.825252 0.189857
H16   H     H_    0.476154 0.986823 0.398516 0.129095
H17   H     H_    0.471624 0.160369 0.637015 0.124664
H18   H     H_    0.586290 0.161591 0.500485 0.137503
H19   H     H_    0.017640 0.323493 0.517873 0.124993
H20   H     H_    0.168483 0.574047 0.644007 0.147768
H21   H     H_    0.040379 0.341468 0.364542 0.136373
H22   H     H_    0.061130 0.563738 0.495013 0.202333
H23   H     H_    0.844176 0.168172 0.015458 0.097038
H24   H     H_    0.974315 0.993665 0.805545 0.143297
H25   H     H_    0.838231 0.981137 0.920466 0.134292
H26   H     H_    0.949205 0.819170 0.811391 0.173076
H27   H     H_    0.646925 0.322783 0.974263 0.098930
H28   H     H_    0.968707 0.962057 0.029478 0.138075
H29   H     H_    0.983581 0.322386 0.654253 0.091977
H30   H     H_    0.809852 0.671886 0.141573 0.098760
H31   H     H_    0.624777 0.245162 0.799686 0.092563
H32   H     H_    0.139454 0.956575 0.268257 0.259303
H33   H     H_    0.073348 0.018371 0.206999 0.249841
H34   H     H_    0.016782 0.167405 0.839987 0.088102
H35   H     H_    0.059178 0.003115 0.316215 0.246471
H36   H     H_    0.889354 0.857748 0.130839 0.175032
H37   H     H_    0.959272 0.807889 0.207333 0.240605
H38   H     H_    0.191410 0.858677 0.821316 0.380168
H39   H     H_    0.991684 0.745424 0.522822 0.382349
H40   H     H_    0.184980 0.832379 0.356248 0.197148
H41   H     H_    0.922698 0.320909 0.197792 0.130574
H42   H     H_    0.378351 0.675563 0.111318 0.094839
H43   H     H_    0.567900 0.380826 0.125926 0.170625
H44   H     H_    0.498066 0.316576 0.978882 0.155489
N1    N     N_R   0.993980 0.704500 0.053430 -0.097469
N2    N     N_R   0.053690 0.556380 0.849240 -0.058090
N3    N     N_R   0.790390 0.443640 0.997160 -0.039689
N4    N     N_R   0.998260 0.443670 0.792970 -0.053885
N5    N     N_R   0.845830 0.556350 0.053430 -0.043249
N6    N     N_R   0.792820 0.295510 0.849240 -0.045613
N7    N     N_R   0.051260 0.704510 0.997160 -0.118174
N8    N     N_R   0.001740 0.556330 0.207030 -0.102060
N9    N     N_R   0.154170 0.443650 0.946570 -0.042157
N10   N     N_R   0.207180 0.704490 0.150760 -0.047258
N11   N     N_R   0.948740 0.295490 0.002840 -0.039517
N12   N     N_R   0.006020 0.295500 0.946570 -0.046294
N13   N     N_R   0.149890 0.704480 0.207030 -0.061805
N14   N     N_R   0.946310 0.443620 0.150760 -0.067233
N15   N     N_R   0.209610 0.556360 0.002840 -0.035533
N16   N     N_R   0.850110 0.295520 0.792970 -0.044672
Ni1   Ni    Ni4+2 0.997880 0.629240 0.129060 0.256970
Ni2   Ni    Ni4+2 0.002120 0.370760 0.870940 0.200533
Ni3   Ni    Ni4+2 0.129260 0.629260 0.000000 0.275004
Ni4   Ni    Ni4+2 0.870740 0.370740 0.000000 0.207300
O1    O     O_2   0.209176 0.974856 0.017833 -0.278582
O2    O     O_2   0.260250 0.833416 0.001035 -0.352895
O3    O     O_3   0.126106 0.814855 0.822305 -0.584433
O4    O     O_2   0.168184 0.783306 0.498991 -0.332921
O5    O     O_2   0.013724 0.766837 0.354027 -0.363542
O6    O     O_3   0.973534 0.674653 0.464664 -0.548485
S1    S     S_3+6 0.168638 0.854106 0.955298 -0.080372
S2    S     S_3+6 0.050962 0.708890 0.409336 -0.096696

loop_
_geom_bond_atom_site_label_1
_geom_bond_atom_site_label_2
_ccdc_geom_bond_type
C3    N14   A    
C19   H10   S    
N14   Ni4   S    
C9    C45   A    
N11   N12   A    
C27   C29   D    
C3    C6    A    
C18   H6    S    
C32   H26   S    
C5    N15   A    
N9    Ni2   S    
C46   N12   A    
N4    Ni2   S    
C33   C39   S    
N16   Ni2   S    
C13   C18   S    
C43   N9    A    
C10   C15   S    
C42   N8    A    
C45   H23   S    
C30   C31   D    
N2    Ni3   S    
C13   H11   S    
C23   C26   S    
C12   C37   A    
N6    N16   A    
C36   H30   S    
C1    C40   S    
C22   H17   S    
C13   H5    S    
C5    H42   S    
C10   H43   S    
C44   H12   S    
C7    C17   S    
N12   Ni2   S    
C7    C43   A    
C4    C12   A    
C15   C34   S    
N3    Ni4   S    
C31   H25   S    
C28   C34   A    
C9    C46   A    
N3    N5    A    
C38   S1    S    
C40   H37   S    
C11   H2    S    
C38   N7    A    
C28   H27   S    
C30   H24   S    
C8    C21   S    
C38   C39   A    
N9    N15   A    
C3    H41   S    
C26   H20   S    
C40   H36   S    
C25   H19   S    
C41   H32   S    
C5    C7    A    
C9    C31   S    
C45   N11   A    
C25   C26   D    
C4    N16   A    
N10   N13   A    
N8    Ni1   S    
C24   H18   S    
C37   N6    A    
C42   S2    S    
C28   N3    A    
N1    Ni1   S    
C29   H22   S    
N7    Ni3   S    
C18   H13   S    
O5    S2    D    
C41   H35   S    
C6    C29   S    
N2    N4    A    
C17   C18   S    
N1    N7    A    
C21   H16   S    
O4    S2    D    
N5    Ni1   S    
O3    S1    S    
C40   C41   S    
C14   H8    S    
C20   C22   S    
C16   N2    A    
C16   C23   A    
C23   C35   A    
C13   C15   S    
C22   C24   D    
C35   H29   S    
C20   H14   S    
C16   H15   S    
C35   N4    A    
C19   H9    S    
N15   Ni3   S    
C11   C17   S    
C14   C19   S    
H39   O6    S    
C2    C8    A    
C8    C44   A    
C41   H33   S    
C25   C27   S    
C12   C24   S    
C4    H3    S    
O1    S1    D    
C32   C33   D    
N11   Ni4   S    
H38   O3    S    
C30   C32   S    
C44   N10   A    
C36   N5    A    
O2    S1    D    
N6    Ni4   S    
C2    N13   A    
N8    N14   A    
C17   C19   S    
O6    S2    S    
C2    H40   S    
C34   C36   A    
C27   H21   S    
C10   C11   S    
C1    C39   A    
C33   H28   S    
N10   Ni3   S    
C14   H7    S    
C37   H31   S    
C20   C21   D    
C10   H44   S    
C1    N1    A    
C6    C42   A    
C11   H4    S    
C14   C15   S    
N13   Ni1   S    
C46   H34   S    
C43   H1    S    
