data_mof_unit_60422.cif
_audit_creation_date              2012-12-10T17:58:22-0500
_audit_creation_method            fapswitch 2.2
_symmetry_space_group_name_H-M    P1
_symmetry_Int_Tables_number       1
_space_group_crystal_system       triclinic
_cell_length_a                    38.566891
_cell_length_b                    21.596944
_cell_length_c                    21.610729
_cell_angle_alpha                 90.00004
_cell_angle_beta                  124.208379
_cell_angle_gamma                 90.00194
_cell_volume                      14886.1023553

loop_
_atom_site_label
_atom_site_type_symbol
_atom_type_description
_atom_site_fract_x
_atom_site_fract_y
_atom_site_fract_z
_atom_type_partial_charge
C1    C     C_R   0.999716 1.000000 0.119838 0.873148
C2    C     C_3   0.774131 0.026511 0.834578 -0.408745
C3    C     C_3   0.274792 0.539459 0.719229 -0.399982
C4    C     C_3   0.273894 0.048656 0.323484 -0.050569
C5    C     C_3   0.726092 0.043216 0.671784 -0.050279
C6    C     C_3   0.773902 0.546158 0.325783 -0.050438
C7    C     C_3   0.226093 0.543273 0.671830 -0.050279
C8    C     C_1   0.374444 0.000198 0.374464 -0.188168
C9    C     C_1   0.625556 0.000125 0.625536 -0.188261
C10   C     C_1   0.874444 0.500163 0.374465 -0.188217
C11   C     C_1   0.125556 0.500126 0.625536 -0.188267
C12   C     C_3   0.208773 0.999840 0.209814 0.312011
C13   C     C_3   0.725867 0.523213 0.164071 -0.409027
C14   C     C_3   0.791227 0.999680 0.790221 0.311921
C15   C     C_3   0.708773 0.499768 0.209798 0.311960
C16   C     C_3   0.291227 0.499682 0.790223 0.311922
C17   C     C_3   0.274079 0.933703 0.290044 -0.022570
C18   C     C_3   0.725939 0.932330 0.716884 -0.022545
C19   C     C_3   0.774068 0.432970 0.286797 -0.022558
C20   C     C_3   0.225939 0.432341 0.716816 -0.022552
C21   C     C_3   0.291138 0.000158 0.293284 0.339731
C22   C     C_3   0.708861 0.999847 0.706729 0.339762
C23   C     C_3   0.791139 0.500012 0.293282 0.339738
C24   C     C_3   0.274130 0.526450 0.834607 -0.408751
C25   C     C_3   0.208861 0.499850 0.706729 0.339767
C26   C     C_1   0.336937 0.000212 0.337632 -0.088381
C27   C     C_1   0.663063 0.000043 0.662370 -0.088398
C28   C     C_1   0.836937 0.500133 0.337633 -0.088407
C29   C     C_1   0.163063 0.500045 0.662370 -0.088400
C30   C     C_1   0.163067 0.999942 0.163431 -0.100341
C31   C     C_1   0.836933 0.999874 0.836587 -0.100358
C32   C     C_1   0.663067 0.499914 0.163422 -0.100350
C33   C     C_R   0.000284 1.000000 0.880162 0.873144
C34   C     C_1   0.336933 0.499875 0.836590 -0.100358
C35   C     C_1   0.125557 0.999993 0.125614 -0.189243
C36   C     C_1   0.874443 0.999973 0.874394 -0.189237
C37   C     C_1   0.625557 0.499987 0.125609 -0.189234
C38   C     C_1   0.374443 0.499973 0.874396 -0.189233
C39   C     C_R   0.967221 0.032179 0.184916 0.109782
C40   C     C_R   0.032785 0.032169 0.815091 0.109786
C41   C     C_R   0.467220 0.532178 0.184915 0.109782
C42   C     C_R   0.532783 0.532173 0.815089 0.109785
C43   C     C_R   0.967714 0.031592 0.249696 -0.221528
C44   C     C_R   0.499716 0.500000 0.119838 0.873140
C45   C     C_R   0.032292 0.031583 0.750311 -0.221491
C46   C     C_R   0.467713 0.531591 0.249696 -0.221537
C47   C     C_R   0.532291 0.531587 0.750309 -0.221502
C48   C     C_R   0.999677 0.000192 0.312980 -0.044394
C49   C     C_R   0.000323 0.000192 0.687021 -0.044414
C50   C     C_R   0.499677 0.500192 0.312980 -0.044397
C51   C     C_R   0.500323 0.500192 0.687021 -0.044413
C52   C     C_R   0.031086 0.968630 0.312419 -0.186645
C53   C     C_R   0.968908 0.968640 0.687575 -0.186665
C54   C     C_R   0.531086 0.468632 0.312419 -0.186654
C55   C     C_R   0.500284 0.500000 0.880162 0.873138
C56   C     C_R   0.468910 0.468636 0.687577 -0.186672
C57   C     C_R   0.030384 0.967943 0.247910 -0.230767
C58   C     C_R   0.969610 0.967953 0.752084 -0.230777
C59   C     C_R   0.530385 0.467945 0.247910 -0.230772
C60   C     C_R   0.469611 0.467949 0.752086 -0.230771
C61   C     C_R   0.081091 0.000001 0.081016 0.901787
C62   C     C_R   0.918909 0.999998 0.918983 0.901774
C63   C     C_R   0.581091 0.500001 0.081016 0.901779
C64   C     C_R   0.418909 0.499998 0.918984 0.901771
C65   C     C_R   0.998904 0.000041 0.184988 -0.017320
C66   C     C_3   0.274400 0.019202 0.211732 -0.510447
C67   C     C_R   0.001096 0.000041 0.815012 -0.017310
C68   C     C_R   0.498904 0.500041 0.184988 -0.017318
C69   C     C_R   0.501096 0.500041 0.815012 -0.017315
C70   C     C_R   0.499998 0.186405 0.499999 -0.002863
C71   C     C_R   0.999999 0.686405 0.499999 -0.002882
C72   C     C_R   0.500001 0.879912 0.500001 0.861192
C73   C     C_R   0.000001 0.379912 0.500001 0.861316
C74   C     C_R   0.418909 0.000180 0.418888 0.907769
C75   C     C_R   0.581091 0.000181 0.581112 0.908143
C76   C     C_R   0.918909 0.500181 0.418888 0.907960
C77   C     C_3   0.725595 0.025462 0.785977 -0.510848
C78   C     C_R   0.081091 0.500181 0.581112 0.908152
C79   C     C_R   0.499999 0.120413 0.499999 0.855690
C80   C     C_R   1.000000 0.620413 0.500000 0.855729
C81   C     C_R   0.999999 0.879463 0.500000 0.868063
C82   C     C_R   0.499999 0.379463 0.499999 0.868072
C83   C     C_R   0.999947 0.999978 0.379476 0.880039
C84   C     C_R   0.000053 0.999978 0.620524 0.880044
C85   C     C_R   0.499947 0.499978 0.379476 0.880044
C86   C     C_R   0.500053 0.499978 0.620524 0.880052
C87   C     C_R   0.000001 0.120380 0.500001 0.867845
C88   C     C_3   0.774404 0.522180 0.212731 -0.510621
C89   C     C_R   0.500001 0.620379 0.500001 0.867842
C90   C     C_R   0.527025 0.782142 0.487274 -0.183615
C91   C     C_R   0.472980 0.782139 0.512734 -0.184016
C92   C     C_R   0.027028 0.282143 0.487283 -0.183635
C93   C     C_R   0.972975 0.282139 0.512723 -0.183850
C94   C     C_R   0.027493 0.218173 0.488447 -0.186584
C95   C     C_R   0.972511 0.218170 0.511561 -0.186622
C96   C     C_R   0.527490 0.718173 0.488438 -0.186608
C97   C     C_R   0.472515 0.718170 0.511571 -0.186664
C98   C     C_3   0.225263 0.934047 0.241085 -0.444979
C99   C     C_3   0.225594 0.525401 0.786003 -0.510848
C100  C     C_3   0.774756 0.932709 0.765796 -0.444866
C101  C     C_3   0.725251 0.433333 0.237864 -0.444908
C102  C     C_3   0.274756 0.432718 0.765729 -0.444859
C103  C     C_R   0.000002 0.186519 0.500004 -0.012146
C104  C     C_R   0.500002 0.686519 0.500004 -0.012103
C105  C     C_R   0.500002 0.813783 0.500002 -0.007515
C106  C     C_R   0.000001 0.313784 0.500002 -0.007563
C107  C     C_R   0.472907 0.217971 0.433048 -0.188502
C108  C     C_R   0.527089 0.217974 0.566951 -0.188383
C109  C     C_R   0.972909 0.717971 0.433047 -0.188463
C110  C     C_3   0.225863 0.020225 0.163024 -0.409250
C111  C     C_R   0.027088 0.717975 0.566952 -0.188401
C112  C     C_R   0.972452 0.781887 0.433277 -0.189112
C113  C     C_R   0.027544 0.781890 0.566722 -0.189077
C114  C     C_R   0.472450 0.281887 0.433278 -0.189130
C115  C     C_R   0.527545 0.281890 0.566721 -0.189076
C116  C     C_R   0.999998 0.813464 0.500000 -0.009148
C117  C     C_R   0.499998 0.313464 0.499999 -0.009144
C118  C     C_3   0.225195 0.044966 0.276473 -0.399628
C119  C     C_3   0.774791 0.039401 0.719186 -0.399977
C120  C     C_3   0.725203 0.542410 0.278585 -0.399767
H1    H     H_    0.213639 0.900790 0.193988 0.159657
H2    H     H_    0.713522 0.073150 0.781976 0.179506
H3    H     H_    0.786471 0.569359 0.214144 0.179550
H4    H     H_    0.213521 0.573081 0.782050 0.179508
H5    H     H_    0.943607 0.055945 0.251164 0.144455
H6    H     H_    0.056404 0.055928 0.748848 0.144475
H7    H     H_    0.443606 0.555942 0.251163 0.144447
H8    H     H_    0.556401 0.555935 0.748845 0.144472
H9    H     H_    0.055663 0.943939 0.361365 0.152940
H10   H     H_    0.944326 0.943956 0.638624 0.152947
H11   H     H_    0.555664 0.443941 0.361367 0.152945
H12   H     H_    0.786393 0.903274 0.816127 0.159456
H13   H     H_    0.444329 0.443949 0.638627 0.152943
H14   H     H_    0.054674 0.943321 0.247265 0.145337
H15   H     H_    0.945315 0.943338 0.752724 0.145338
H16   H     H_    0.554675 0.443323 0.247267 0.145340
H17   H     H_    0.445318 0.443331 0.752727 0.145346
H18   H     H_    0.548055 0.806917 0.477734 0.144689
H19   H     H_    0.451950 0.806910 0.522274 0.144509
H20   H     H_    0.048061 0.306917 0.477750 0.144686
H21   H     H_    0.951942 0.306911 0.522256 0.144594
H22   H     H_    0.048640 0.193412 0.479192 0.143883
H23   H     H_    0.713618 0.401831 0.189197 0.159566
H24   H     H_    0.951365 0.193406 0.520816 0.143834
H25   H     H_    0.548633 0.693411 0.479175 0.143869
H26   H     H_    0.451372 0.693405 0.520834 0.143799
H27   H     H_    0.451835 0.193182 0.381339 0.140785
H28   H     H_    0.548161 0.193189 0.618660 0.140844
H29   H     H_    0.951838 0.693183 0.381337 0.140811
H30   H     H_    0.048159 0.693189 0.618662 0.140844
H31   H     H_    0.212526 0.918242 0.273585 0.166995
H32   H     H_    0.787494 0.912349 0.735155 0.167259
H33   H     H_    0.712515 0.415366 0.269551 0.167117
H34   H     H_    0.286392 0.403244 0.816030 0.159460
H35   H     H_    0.287494 0.412404 0.735068 0.167266
H36   H     H_    0.951275 0.806665 0.381614 0.142503
H37   H     H_    0.048721 0.806671 0.618385 0.142528
H38   H     H_    0.451272 0.306665 0.381616 0.142494
H39   H     H_    0.548723 0.306670 0.618383 0.142528
H40   H     H_    0.211915 0.092027 0.255519 0.150747
H41   H     H_    0.788054 0.087009 0.735258 0.150665
H42   H     H_    0.711935 0.589791 0.259919 0.150715
H43   H     H_    0.288055 0.587063 0.735350 0.150662
H44   H     H_    0.214176 0.029199 0.311715 0.176373
H45   H     H_    0.284623 0.902820 0.262279 0.135584
H46   H     H_    0.785819 0.018976 0.685814 0.176245
H47   H     H_    0.714177 0.524432 0.313004 0.176314
H48   H     H_    0.285820 0.519078 0.685837 0.176241
H49   H     H_    0.282784 0.095895 0.316081 0.125176
H50   H     H_    0.717183 0.091876 0.674227 0.125313
H51   H     H_    0.782806 0.594128 0.320703 0.125240
H52   H     H_    0.217185 0.591921 0.674323 0.125307
H53   H     H_    0.213916 0.988772 0.114233 0.175829
H54   H     H_    0.786085 0.999010 0.886406 0.175581
H55   H     H_    0.713917 0.493578 0.113802 0.175708
H56   H     H_    0.715408 0.905547 0.747635 0.135796
H57   H     H_    0.286084 0.498908 0.886406 0.175578
H58   H     H_    0.214669 0.067774 0.140733 0.177455
H59   H     H_    0.785313 0.074952 0.851923 0.177825
H60   H     H_    0.714679 0.571245 0.144092 0.177634
H61   H     H_    0.285313 0.574885 0.852001 0.177824
H62   H     H_    0.285702 0.986173 0.187198 0.181793
H63   H     H_    0.714300 0.996290 0.813722 0.181802
H64   H     H_    0.785702 0.490926 0.186636 0.181800
H65   H     H_    0.214299 0.496190 0.813717 0.181795
H66   H     H_    0.285537 0.860640 0.359783 0.170856
H67   H     H_    0.784602 0.403979 0.257569 0.135687
H68   H     H_    0.275102 0.926594 0.386906 0.221598
H69   H     H_    0.714495 0.853652 0.654980 0.171036
H70   H     H_    0.724910 0.915394 0.621255 0.221534
H71   H     H_    0.785518 0.357161 0.352916 0.170928
H72   H     H_    0.775097 0.421216 0.383208 0.221571
H73   H     H_    0.214496 0.353714 0.654832 0.171052
H74   H     H_    0.224911 0.415502 0.621171 0.221537
H75   H     H_    0.916398 0.030804 0.078375 0.165389
H76   H     H_    0.914860 0.087478 0.129802 0.176000
H77   H     H_    0.083607 0.030777 0.921632 0.165415
H78   H     H_    0.215408 0.405516 0.747539 0.135793
H79   H     H_    0.085157 0.087452 0.870216 0.175994
H80   H     H_    0.416398 0.530800 0.078374 0.165387
H81   H     H_    0.414859 0.587474 0.129800 0.175994
H82   H     H_    0.583605 0.530788 0.921630 0.165406
H83   H     H_    0.585152 0.587462 0.870211 0.176004
H84   H     H_    0.323480 0.050612 0.434110 0.195421
H85   H     H_    0.278154 0.073252 0.419261 0.177496
H86   H     H_    0.676507 0.038837 0.561281 0.195707
H87   H     H_    0.721821 0.058277 0.573956 0.177380
H88   H     H_    0.823487 0.545108 0.436434 0.195577
H89   H     H_    0.286462 0.065811 0.210866 0.179598
H90   H     H_    0.778172 0.566299 0.422650 0.177448
H91   H     H_    0.176509 0.538957 0.561322 0.195700
H92   H     H_    0.221824 0.558427 0.574019 0.177365
N1    N     N_3   0.291137 0.908361 0.364979 -0.444151
N2    N     N_3   0.708504 0.028338 0.593186 -0.458453
N3    N     N_3   0.791491 0.534630 0.405101 -0.458341
N4    N     N_3   0.208505 0.528457 0.593217 -0.458457
N5    N     N_3   0.708883 0.901160 0.644867 -0.444633
N6    N     N_3   0.791126 0.404845 0.360432 -0.444398
N7    N     N_3   0.208884 0.401227 0.644767 -0.444626
N8    N     N_3   0.934717 0.064195 0.119047 -0.442212
N9    N     N_3   0.065295 0.064174 0.880967 -0.442246
N10   N     N_3   0.434716 0.564192 0.119046 -0.442213
N11   N     N_3   0.565292 0.564182 0.880963 -0.442229
N12   N     N_3   0.291489 0.040143 0.403292 -0.458233
O1    O     O_R   0.999990 0.948250 0.091620 -0.630116
O2    O     O_R   0.965310 0.999930 0.556910 -0.625796
O3    O     O_R   0.534690 0.499930 0.443090 -0.625767
O4    O     O_R   0.465310 0.499930 0.556910 -0.625802
O5    O     O_R   0.965300 0.091560 0.465360 -0.624123
O6    O     O_R   0.034700 0.091560 0.534640 -0.624076
O7    O     O_R   0.465300 0.591560 0.465360 -0.624140
O8    O     O_R   0.534700 0.591560 0.534640 -0.624076
O9    O     O_R   0.999990 0.051750 0.091660 -0.601547
O10   O     O_R   0.000010 0.051750 0.908340 -0.601563
O11   O     O_R   0.499990 0.551750 0.091660 -0.601549
O12   O     O_R   0.000010 0.948250 0.908380 -0.630100
O13   O     O_R   0.500010 0.551750 0.908340 -0.601560
O14   O     O_R   0.061430 0.948250 0.061430 -0.620470
O15   O     O_R   0.938570 0.948250 0.938570 -0.620476
O16   O     O_R   0.561430 0.448250 0.061430 -0.620472
O17   O     O_R   0.438570 0.448250 0.938570 -0.620470
O18   O     O_R   0.061430 0.051750 0.061470 -0.613990
O19   O     O_R   0.938570 0.051750 0.938530 -0.613974
O20   O     O_R   0.561430 0.551750 0.061470 -0.613981
O21   O     O_R   0.438570 0.551750 0.938530 -0.613975
O22   O     O_R   0.500000 0.908530 0.551740 -0.621947
O23   O     O_R   0.499990 0.448250 0.091620 -0.630114
O24   O     O_R   0.500000 0.908530 0.448260 -0.622050
O25   O     O_R   0.000000 0.408530 0.551740 -0.621965
O26   O     O_R   0.000000 0.408530 0.448260 -0.622022
O27   O     O_R   0.438570 0.000200 0.490320 -0.615442
O28   O     O_R   0.561430 0.000200 0.509680 -0.616223
O29   O     O_R   0.938570 0.500200 0.490320 -0.615817
O30   O     O_R   0.061430 0.500200 0.509680 -0.616222
O31   O     O_R   0.438570 0.000170 0.386880 -0.619424
O32   O     O_R   0.561430 0.000170 0.613120 -0.619186
O33   O     O_R   0.938570 0.500170 0.386880 -0.619310
O34   O     O_R   0.500010 0.448250 0.908380 -0.630094
O35   O     O_R   0.061430 0.500170 0.613120 -0.619186
O36   O     O_R   0.500000 0.091870 0.551750 -0.624389
O37   O     O_R   0.500000 0.091870 0.448250 -0.624406
O38   O     O_R   0.000000 0.591870 0.551750 -0.624403
O39   O     O_R   0.000000 0.591870 0.448250 -0.624411
O40   O     O_R   0.965340 0.908230 0.465340 -0.624886
O41   O     O_R   0.034660 0.908230 0.534660 -0.624866
O42   O     O_R   0.465340 0.408230 0.465340 -0.624895
O43   O     O_R   0.534660 0.408230 0.534660 -0.624866
O44   O     O_R   0.965330 0.999890 0.373740 -0.627102
O45   O     O_R   0.034670 0.999890 0.626260 -0.627077
O46   O     O_R   0.465330 0.499890 0.373740 -0.627106
O47   O     O_R   0.534670 0.499890 0.626260 -0.627077
O48   O     O_R   0.034690 0.999930 0.443090 -0.625761
Zn1   Zn    Zn3+2 0.000000 0.930890 0.000000 0.948660
Zn2   Zn    Zn3+2 0.046310 0.999890 0.546280 0.943881
Zn3   Zn    Zn3+2 0.453690 0.499890 0.453720 0.943693
Zn4   Zn    Zn3+2 0.546310 0.499890 0.546280 0.943852
Zn5   Zn    Zn3+2 0.500000 0.430890 0.000000 0.948683
Zn6   Zn    Zn3+2 0.000000 0.069110 0.000000 0.977267
Zn7   Zn    Zn3+2 0.500000 0.569110 0.000000 0.977285
Zn8   Zn    Zn3+2 0.499990 0.000210 0.569090 0.954470
Zn9   Zn    Zn3+2 0.500010 0.000210 0.430910 0.953799
Zn10  Zn    Zn3+2 0.999990 0.500210 0.569090 0.954206
Zn11  Zn    Zn3+2 0.000010 0.500210 0.430910 0.953857
Zn12  Zn    Zn3+2 0.953690 0.999890 0.453720 0.943743

loop_
_geom_bond_atom_site_label_1
_geom_bond_atom_site_label_2
_ccdc_geom_bond_type
C98   H1    S    
C21   C26   S    
C82   O42   A    
O10   Zn6   S    
C3    C16   S    
C21   C66   S    
C24   C99   S    
C8    C26   T    
O26   Zn11  S    
O8    Zn4   S    
C81   C116  S    
C118  H40   S    
C49   C84   S    
H72   N6    S    
C14   C31   S    
C84   O2    A    
C119  H41   S    
C12   C110  S    
C74   O27   A    
C9    C75   S    
C15   C32   S    
C100  H32   S    
C11   C78   S    
C54   H11   S    
C118  H44   S    
C8    C74   S    
C50   C54   A    
C84   O45   A    
C5    C119  S    
C79   O36   A    
C108  C115  A    
C83   O44   A    
O13   Zn7   S    
C4    C21   S    
C86   O47   A    
C51   C56   A    
C92   C106  A    
C3    C7    S    
C70   C107  A    
C44   C68   S    
O36   Zn8   S    
C17   N1    S    
C88   H64   S    
C93   C95   A    
C20   C102  S    
C20   C25   S    
C110  H58   S    
O4    Zn3   S    
C10   C28   T    
H90   N3    S    
C4    C118  S    
H66   N1    S    
C59   H16   S    
O39   Zn11  S    
C15   C120  S    
O19   Zn6   S    
C78   O35   A    
O12   Zn1   S    
C97   H26   S    
C72   O22   A    
C19   C101  S    
C91   C105  A    
O27   Zn8   S    
C114  H38   S    
O41   Zn2   S    
C77   H2    S    
C44   O23   A    
C16   C34   S    
C10   C76   S    
C25   C99   S    
C51   C86   S    
C64   O21   A    
H92   N4    S    
C1    O9    A    
C115  C117  A    
C40   C67   A    
C71   C111  A    
C1    C65   S    
C41   C46   A    
C82   O43   A    
H79   N9    S    
C70   C79   S    
C101  H33   S    
O14   Zn1   S    
C17   C98   S    
C45   H6    S    
C12   C98   S    
C74   O31   A    
C50   C85   S    
C3    H43   S    
C60   H17   S    
C54   C59   A    
C113  C116  A    
C19   H67   S    
O30   Zn11  S    
H86   N2    S    
H91   N4    S    
C66   H62   S    
C95   H24   S    
C16   C24   S    
C18   C22   S    
C7    H52   S    
H84   N12   S    
C81   O41   A    
C39   C65   A    
C43   H5    S    
O47   Zn4   S    
C80   O39   A    
C18   C100  S    
H81   N10   S    
C88   H3    S    
C36   C62   S    
H82   N11   S    
H71   N6    S    
C6    C120  S    
H75   N8    S    
C37   C63   S    
H70   N5    S    
H69   N5    S    
C3    H48   S    
C56   H13   S    
C41   C68   A    
C73   O25   A    
C6    H51   S    
C25   C29   S    
C40   C45   A    
O43   Zn4   S    
O25   Zn10  S    
C6    N3    S    
C95   C103  A    
O7    Zn3   S    
C78   O30   A    
C55   O13   A    
O17   Zn5   S    
C39   N8    S    
C47   H8    S    
C80   O38   A    
C90   C105  A    
O21   Zn7   S    
C75   O32   A    
C4    H49   S    
C44   O11   A    
C63   O16   A    
C19   C23   S    
C39   C43   A    
C64   O17   A    
O5    Zn12  S    
C4    N12   S    
C7    N4    S    
O9    Zn6   S    
C42   C69   A    
C17   C21   S    
C62   O15   A    
C56   C60   A    
C115  H39   S    
C94   H22   S    
C85   O46   A    
O23   Zn5   S    
C109  H29   S    
O3    Zn4   S    
C107  C114  A    
H76   N8    S    
C96   H25   S    
C85   O3    A    
C47   C51   A    
C59   C68   A    
C107  H27   S    
C46   H7    S    
C49   C53   A    
C87   O6    A    
C45   C49   A    
O42   Zn3   S    
C5    H50   S    
O31   Zn9   S    
O34   Zn5   S    
C92   C94   A    
H83   N11   S    
C14   C100  S    
C111  C113  A    
C19   N6    S    
C32   C37   T    
C15   C101  S    
C66   H89   S    
O22   Zn8   S    
C76   O29   A    
C13   C15   S    
C119  H46   S    
C20   H78   S    
C55   C69   S    
C33   O12   A    
C90   H18   S    
C87   C103  S    
O45   Zn2   S    
C16   C102  S    
C6    C23   S    
C12   C118  S    
O44   Zn12  S    
C94   C103  A    
O18   Zn6   S    
H88   N3    S    
C22   C27   S    
O15   Zn1   S    
C93   C106  A    
C79   O37   A    
C20   N7    S    
C91   H19   S    
C57   H14   S    
C109  C112  A    
C23   C28   S    
C2    H59   S    
C52   H9    S    
C75   O28   A    
C92   H20   S    
C111  H30   S    
C112  C116  A    
C93   H21   S    
C86   O4    A    
C9    C27   T    
O33   Zn11  S    
C73   O26   A    
C43   C48   A    
C110  H53   S    
C1    O1    A    
C61   O18   A    
C13   H55   S    
C102  H34   S    
C12   C30   S    
C24   H61   S    
C34   C38   T    
O1    Zn1   S    
O46   Zn3   S    
O32   Zn8   S    
O35   Zn10  S    
H73   N7    S    
C41   N10   S    
C22   C77   S    
C57   C65   A    
O40   Zn12  S    
C71   C80   S    
C53   C58   A    
C100  H12   S    
C90   C96   A    
H74   N7    S    
C5    C22   S    
C120  H42   S    
C58   H15   S    
C13   H60   S    
C30   C35   T    
C76   O33   A    
C46   C50   A    
H85   N12   S    
H77   N9    S    
C7    C25   S    
O24   Zn9   S    
C40   N9    S    
C23   C88   S    
C55   O34   A    
H80   N10   S    
C72   O24   A    
C96   C104  A    
C91   C97   A    
O11   Zn7   S    
C98   H31   S    
C89   C104  S    
C33   C67   S    
C87   O5    A    
O28   Zn9   S    
C2    H54   S    
O37   Zn9   S    
C101  H23   S    
C73   C106  S    
O38   Zn10  S    
H68   N1    S    
C63   O20   A    
C60   C69   A    
C35   C61   S    
C61   O14   A    
C5    N2    S    
C71   C109  A    
C13   C88   S    
C77   H63   S    
C99   H65   S    
C89   O7    A    
H87   N2    S    
C89   O8    A    
C83   O48   A    
C2    C14   S    
O2    Zn12  S    
C97   C104  A    
C62   O19   A    
C52   C57   A    
O16   Zn5   S    
C58   C67   A    
C48   C52   A    
C42   C47   A    
C72   C105  S    
C11   C29   T    
C81   O40   A    
O48   Zn2   S    
C14   C119  S    
C112  H36   S    
C24   H57   S    
C2    C77   S    
C38   C64   S    
C48   C83   S    
C31   C36   T    
C66   C110  S    
C17   H45   S    
C53   H10   S    
C114  C117  A    
C82   C117  S    
C113  H37   S    
O29   Zn10  S    
C18   N5    S    
C102  H35   S    
C70   C108  A    
O6    Zn2   S    
C33   O10   A    
C42   N11   S    
C120  H47   S    
C99   H4    S    
C108  H28   S    
O20   Zn7   S    
C18   H56   S    
