data_mof_unit_55323.cif
_audit_creation_date              2012-12-10T19:07:34-0500
_audit_creation_method            fapswitch 2.2
_symmetry_space_group_name_H-M    P1
_symmetry_Int_Tables_number       1
_space_group_crystal_system       triclinic
_cell_length_a                    10.827075
_cell_length_b                    10.859451
_cell_length_c                    9.546156
_cell_angle_alpha                 90.793763
_cell_angle_beta                  90.492224
_cell_angle_gamma                 90.89024
_cell_volume                      1122.1129961

loop_
_atom_site_label
_atom_site_type_symbol
_atom_type_description
_atom_site_fract_x
_atom_site_fract_y
_atom_site_fract_z
_atom_type_partial_charge
C1    C     C_R   0.495693 0.262565 0.499027 0.809913
C2    C     C_R   0.938582 0.494551 0.623402 -0.029595
C3    C     C_3   0.935418 0.596211 0.730274 -0.495889
C4    C     C_3   0.075932 0.596993 0.727218 0.297897
C5    C     C_R   0.476636 0.066609 0.622292 0.120816
C6    C     C_R   0.478329 0.130157 0.497379 -0.135179
C7    C     C_R   0.454775 0.064278 0.372353 -0.317527
C8    C     C_R   0.451212 0.934339 0.371871 0.402580
C9    C     C_R   0.474932 0.871343 0.498882 -0.144641
C10   C     C_R   0.473788 0.940193 0.623876 0.059192
C11   C     C_3   0.553102 0.939264 0.752738 -0.467667
C12   C     C_R   0.262520 0.491786 0.499436 0.814948
C13   C     C_3   0.558081 0.078598 0.748008 -0.428961
C14   C     C_R   0.600811 0.542385 0.075754 0.307642
C15   C     C_R   0.407304 0.444524 0.072455 -0.051449
C16   C     C_R   0.407476 0.444126 0.923686 -0.022693
C17   C     C_R   0.600263 0.543556 0.928091 0.248290
C18   C     C_3   0.648602 0.672431 0.928945 -0.529480
C19   C     C_3   0.655231 0.668534 0.086971 -0.476534
C20   C     C_R   0.494015 0.737972 0.500265 0.823162
C21   C     C_R   0.737784 0.494845 0.500130 0.860432
C22   C     C_R   0.065214 0.493399 0.622560 -0.010510
C23   C     C_R   0.129647 0.469983 0.500054 -0.268788
C24   C     C_R   0.062873 0.421269 0.382572 0.307412
C25   C     C_R   0.932076 0.428431 0.380615 0.378078
C26   C     C_R   0.870672 0.475387 0.500245 -0.192369
Cu1   Cu    Cu3+1 0.499990 0.499980 0.640670 0.955979
Cu2   Cu    Cu3+1 0.500010 0.500020 0.359330 0.996891
H1    H     H_    0.644168 0.895817 0.735471 0.197638
H2    H     H_    0.511001 0.123783 0.837650 0.196212
H3    H     H_    0.651324 0.116452 0.723406 0.200558
H4    H     H_    0.331417 0.401159 0.126280 0.168260
H5    H     H_    0.331833 0.400076 0.866693 0.157449
H6    H     H_    0.739445 0.684317 0.879102 0.198093
H7    H     H_    0.576698 0.734034 0.891067 0.223681
H8    H     H_    0.751376 0.668006 0.128759 0.206644
H9    H     H_    0.593705 0.735688 0.138285 0.259943
H10   H     H_    0.894416 0.681778 0.688887 0.159990
H11   H     H_    0.897239 0.562959 0.830756 0.210185
H12   H     H_    0.117898 0.682411 0.684149 0.130761
H13   H     H_    0.444116 0.112964 0.274793 0.160790
H14   H     H_    0.499564 0.908222 0.844730 0.203715
N1    N     N_R   0.500790 0.500930 0.147930 -0.191466
N2    N     N_R   0.500790 0.500890 0.852020 -0.192206
O1    O     O_R   0.500000 0.319640 0.618810 -0.592585
O2    O     O_R   0.500010 0.319680 0.381230 -0.589749
O3    O     O_R   0.319650 0.499970 0.618810 -0.566484
O4    O     O_R   0.319660 0.500010 0.381230 -0.564130
O5    O     O_R   0.499990 0.680320 0.618770 -0.586395
O6    O     O_R   0.500000 0.680360 0.381190 -0.529284
O7    O     O_R   0.680340 0.499990 0.618770 -0.588116
O8    O     O_R   0.680350 0.500030 0.381190 -0.536203
O9    O     O_3   0.121424 0.367885 0.269869 -0.749131
H15   H     H_    0.194989 0.324871 0.305854 0.320832
O10   O     O_3   0.862838 0.390004 0.265074 -0.718896
H16   H     H_    0.917855 0.365121 0.187766 0.363602
O11   O     O_3   0.130457 0.562438 0.854963 -0.693887
H17   H     H_    0.095813 0.481029 0.882165 0.334862
O12   O     O_3   0.428095 0.868965 0.249032 -0.722575
H18   H     H_    0.414431 0.927268 0.171562 0.315943

loop_
_geom_bond_atom_site_label_1
_geom_bond_atom_site_label_2
_ccdc_geom_bond_type
C4    O11   S    
C2    C22   A    
Cu1   O5    S    
C23   C24   A    
C8    C9    A    
C6    C7    A    
C16   H5    S    
C4    C22   S    
C18   H7    S    
C16   N2    A    
C9    C20   S    
C5    C13   S    
C14   C17   A    
C21   O7    A    
C12   O4    A    
C1    O1    A    
Cu1   O1    S    
O10   H16   S    
C7    H13   S    
C17   C18   S    
C24   O9    S    
C17   N2    A    
C3    H11   S    
O12   H18   S    
C2    C26   A    
O9    H15   S    
Cu2   O8    S    
C12   C23   S    
Cu2   O2    S    
O11   H17   S    
C20   O5    A    
C12   O3    A    
C15   C16   A    
Cu1   N2    S    
C5    C10   A    
C21   C26   S    
Cu1   O7    S    
C2    C3    S    
C19   H8    S    
C18   H6    S    
C8    O12   S    
C5    C6    A    
C1    O2    A    
C11   C13   S    
C19   H9    S    
C10   C11   S    
C15   N1    A    
C1    C6    S    
C4    H12   S    
C13   H2    S    
C7    C8    A    
C24   C25   A    
C11   H1    S    
C11   H14   S    
C18   C19   S    
C9    C10   A    
Cu1   O3    S    
Cu1   Cu2   S    
C22   C23   A    
Cu2   O4    S    
C20   O6    A    
Cu2   N1    S    
C25   C26   A    
Cu2   O6    S    
C14   C19   S    
C13   H3    S    
C21   O8    A    
C3    C4    S    
C25   O10   S    
C3    H10   S    
C14   N1    A    
C15   H4    S    
