data_mof_unit_55252.cif
_audit_creation_date              2012-12-10T20:53:00-0500
_audit_creation_method            fapswitch 2.2
_symmetry_space_group_name_H-M    P1
_symmetry_Int_Tables_number       1
_space_group_crystal_system       triclinic
_cell_length_a                    18.346618
_cell_length_b                    18.326052
_cell_length_c                    18.346501
_cell_angle_alpha                 59.874713
_cell_angle_beta                  59.843474
_cell_angle_gamma                 59.823818
_cell_volume                      4346.66066271

loop_
_atom_site_label
_atom_site_type_symbol
_atom_type_description
_atom_site_fract_x
_atom_site_fract_y
_atom_site_fract_z
_atom_type_partial_charge
C1    C     C_R   0.389924 0.110010 0.110322 0.783716
C2    C     C_R   0.316568 0.836668 0.889759 -0.243136
C3    C     C_R   0.035336 0.551535 0.910061 0.068074
C4    C     C_R   0.467086 0.960018 0.094216 0.073833
C5    C     C_R   0.531825 0.039939 0.905654 0.073303
C6    C     C_R   0.945488 0.946372 0.553755 -0.159107
C7    C     C_R   0.054115 0.053930 0.445921 -0.151762
C8    C     C_R   0.946035 0.553450 0.945864 -0.156985
C9    C     C_R   0.053832 0.446117 0.054214 -0.149717
C10   C     C_R   0.553398 0.946025 0.945788 -0.149695
C11   C     C_R   0.446136 0.053920 0.054150 -0.144586
C12   C     C_3   0.248521 0.543965 0.370984 0.064912
C13   C     C_R   0.187758 0.203203 0.632900 -0.214357
C14   C     C_3   0.341164 0.554581 0.316310 -0.329027
C15   C     C_3   0.377263 0.561405 0.370824 -0.968025
C16   C     C_3   0.755802 0.429633 0.736048 0.127008
C17   C     C_3   0.692406 0.420285 0.712926 -0.296487
C18   C     C_3   0.597132 0.482978 0.743024 -0.948990
C19   C     C_3   0.578902 0.341601 0.252217 0.040673
C20   C     C_3   0.541138 0.306003 0.354409 -0.293685
C21   C     C_3   0.588466 0.315233 0.396423 -0.918741
C22   C     C_3   0.430025 0.738322 0.757071 0.126197
C23   C     C_3   0.421097 0.715989 0.692793 -0.297051
C24   C     C_R   0.836941 0.894228 0.316959 -0.239626
C25   C     C_3   0.485563 0.744503 0.598287 -0.940689
C26   C     C_3   0.371647 0.212580 0.588505 0.053135
C27   C     C_3   0.332541 0.302808 0.601673 -0.319923
C28   C     C_3   0.375020 0.301496 0.655781 -0.948117
C29   C     C_3   0.738836 0.760753 0.431744 0.133324
C30   C     C_3   0.720194 0.694679 0.421420 -0.289144
C31   C     C_3   0.748996 0.600537 0.486398 -0.956264
C32   C     C_R   0.177417 0.574649 0.280405 0.483925
C33   C     C_R   0.895554 0.365388 0.744456 0.434681
C34   C     C_R   0.587658 0.278945 0.163997 0.483249
C35   C     C_R   0.365698 0.746144 0.897009 0.437218
C36   C     C_R   0.278076 0.165769 0.586710 0.481583
C37   C     C_R   0.746665 0.900905 0.365905 0.439255
C38   C     C_R   0.084981 0.588785 0.313158 -0.093339
C39   C     C_R   0.610022 0.889932 0.889691 0.791172
C40   C     C_R   0.961145 0.407331 0.690500 -0.090517
C41   C     C_R   0.590056 0.311538 0.075241 -0.082358
C42   C     C_R   0.408033 0.690252 0.962225 -0.091705
C43   C     C_R   0.311517 0.076497 0.589689 -0.103643
C44   C     C_R   0.690133 0.965995 0.408523 -0.094352
C45   C     C_R   0.033244 0.653220 0.257351 0.575134
C46   C     C_R   0.015355 0.400575 0.728630 0.592235
C47   C     C_R   0.642922 0.254830 0.023434 0.572860
C48   C     C_R   0.402979 0.726509 0.017172 0.587894
C49   C     C_R   0.254526 0.025157 0.641201 0.585933
C50   C     C_R   0.110423 0.109878 0.389885 0.780730
C51   C     C_R   0.725647 0.021107 0.404260 0.589327
C52   C     C_R   0.073255 0.702012 0.169769 -0.201529
C53   C     C_R   0.004650 0.352290 0.819155 -0.187916
C54   C     C_R   0.691519 0.165729 0.060320 -0.198561
C55   C     C_R   0.355823 0.817084 0.007658 -0.187296
C56   C     C_R   0.164737 0.063072 0.687630 -0.198419
C57   C     C_R   0.816027 0.012158 0.357258 -0.186007
C58   C     C_R   0.164823 0.687102 0.137138 -0.291731
C59   C     C_R   0.940950 0.309295 0.872109 -0.284266
C60   C     C_R   0.688125 0.132707 0.148657 -0.280974
C61   C     C_R   0.889436 0.890223 0.610082 0.793012
C62   C     C_R   0.312408 0.871975 0.944318 -0.285975
C63   C     C_R   0.131387 0.151953 0.683371 -0.295532
C64   C     C_R   0.871478 0.949111 0.313364 -0.284879
C65   C     C_R   0.984447 0.592329 0.463636 -0.263440
C66   C     C_R   0.024916 0.406992 0.537244 -0.237926
C67   C     C_R   0.592907 0.462874 0.978980 -0.263075
C68   C     C_R   0.407280 0.537327 0.022944 -0.242558
C69   C     C_R   0.462875 0.980121 0.592862 -0.278908
C70   C     C_R   0.537559 0.027094 0.407036 -0.239402
C71   C     C_R   0.950612 0.551667 0.555904 -0.049621
C72   C     C_R   0.109995 0.389957 0.110288 0.782427
C73   C     C_R   0.058204 0.447684 0.444771 -0.047442
C74   C     C_R   0.552006 0.555593 0.948554 -0.044049
C75   C     C_R   0.447957 0.444619 0.054968 -0.047907
C76   C     C_R   0.555595 0.950059 0.552017 -0.046144
C77   C     C_R   0.444745 0.057004 0.447828 -0.050640
C78   C     C_R   0.975517 0.457133 0.593722 0.115712
C79   C     C_R   0.041145 0.541337 0.407769 0.108318
C80   C     C_R   0.457491 0.593626 0.974539 0.116316
C81   C     C_R   0.542019 0.407042 0.034765 0.125982
C82   C     C_R   0.593663 0.977881 0.457507 0.112740
C83   C     C_R   0.889814 0.609982 0.889883 0.795784
C84   C     C_R   0.407098 0.036113 0.541924 0.118067
C85   C     C_R   0.111206 0.390520 0.389694 0.855918
C86   C     C_R   0.891302 0.609370 0.610420 0.803046
C87   C     C_R   0.390541 0.389734 0.110348 0.845983
C88   C     C_R   0.609465 0.610324 0.890974 0.800916
C89   C     C_R   0.389742 0.110911 0.390516 0.845512
C90   C     C_R   0.610328 0.891294 0.609479 0.804062
C91   C     C_R   0.175465 0.931311 0.387843 -0.135897
C92   C     C_R   0.823422 0.069522 0.610391 -0.123058
C93   C     C_R   0.927928 0.396758 0.179637 -0.137296
C94   C     C_R   0.216783 0.623238 0.191913 -0.222015
C95   C     C_R   0.072497 0.601156 0.819844 -0.118751
C96   C     C_R   0.435955 0.918845 0.188197 -0.146722
C97   C     C_R   0.562471 0.081057 0.811628 -0.148448
C98   C     C_R   0.207237 0.845259 0.385763 -0.145275
C99   C     C_R   0.791061 0.156023 0.611568 -0.134231
C100  C     C_R   0.839967 0.398945 0.213813 -0.142806
C101  C     C_R   0.160866 0.597887 0.785244 -0.127090
C102  C     C_R   0.457329 0.826122 0.226623 -0.166572
C103  C     C_R   0.539722 0.173846 0.773037 -0.160343
C104  C     C_R   0.153470 0.791898 0.439606 -0.149537
C105  C     C_R   0.887240 0.314972 0.834905 -0.244125
C106  C     C_R   0.844798 0.209435 0.557914 -0.134351
C107  C     C_R   0.786565 0.452038 0.160030 -0.148883
C108  C     C_R   0.214259 0.544872 0.839043 -0.135469
C109  C     C_R   0.509114 0.772722 0.172700 -0.098156
C110  C     C_R   0.486744 0.227434 0.826806 -0.120991
C111  C     C_R   0.067589 0.824343 0.495596 -0.147872
C112  C     C_R   0.931300 0.176535 0.502946 -0.148594
C113  C     C_R   0.820837 0.503279 0.071818 -0.144606
C114  C     C_R   0.179576 0.494761 0.927682 -0.142174
C115  C     C_R   0.540793 0.811662 0.080086 -0.120077
C116  C     C_R   0.636205 0.188664 0.200474 -0.246544
C117  C     C_R   0.455933 0.188506 0.919512 -0.123883
C118  C     C_R   0.032787 0.912424 0.497452 0.067994
C119  C     C_R   0.966512 0.088138 0.501718 0.068244
C120  C     C_R   0.910440 0.501404 0.035114 0.068888
C121  C     C_R   0.089655 0.497511 0.964715 0.069766
C122  C     C_R   0.520727 0.905647 0.039497 0.049220
C123  C     C_R   0.477725 0.094377 0.960315 0.068173
C124  C     C_R   0.087543 0.966657 0.442961 0.074543
C125  C     C_R   0.911752 0.033897 0.556123 0.069658
C126  C     C_R   0.964770 0.447339 0.089767 0.073971
F1    F     F_    0.944285 0.668073 0.287544 -0.701989
F2    F     F_    0.078737 0.440664 0.677880 -0.702558
F3    F     F_    0.646800 0.285735 0.937533 -0.699631
F4    F     F_    0.444006 0.674001 0.079786 -0.709869
F5    F     F_    0.285710 0.938889 0.645686 -0.696949
F6    F     F_    0.672653 0.083277 0.445947 -0.707568
H1    H     H_    0.819151 0.276922 0.558378 0.140932
H2    H     H_    0.335328 0.566759 0.039001 0.180877
H3    H     H_    0.433375 0.963121 0.664972 0.163916
H4    H     H_    0.567118 0.044863 0.334970 0.181555
H5    H     H_    0.220854 0.969203 0.346121 0.130759
H6    H     H_    0.778098 0.031548 0.651959 0.132794
H7    H     H_    0.966225 0.355443 0.224666 0.127289
H8    H     H_    0.034194 0.642352 0.774816 0.132222
H9    H     H_    0.395221 0.957675 0.232847 0.114818
H10   H     H_    0.603744 0.042138 0.767048 0.118402
H11   H     H_    0.274046 0.819588 0.342652 0.140249
H12   H     H_    0.178472 0.724809 0.438552 0.131709
H13   H     H_    0.723795 0.181983 0.653841 0.139271
H14   H     H_    0.812979 0.359674 0.282512 0.137350
H15   H     H_    0.188156 0.636269 0.716214 0.140875
H16   H     H_    0.433679 0.795553 0.298579 0.132995
H17   H     H_    0.563147 0.204298 0.701066 0.132234
H18   H     H_    0.029439 0.779189 0.537501 0.137725
H19   H     H_    0.969559 0.221596 0.461141 0.131806
H20   H     H_    0.776085 0.544535 0.033224 0.132829
H21   H     H_    0.224318 0.453496 0.966291 0.126903
H22   H     H_    0.581190 0.767371 0.040870 0.137448
H23   H     H_    0.283051 0.542075 0.811851 0.136403
H24   H     H_    0.414679 0.232911 0.958629 0.116245
H25   H     H_    0.195738 0.724511 0.069062 0.190375
H26   H     H_    0.933402 0.271217 0.942018 0.182902
H27   H     H_    0.725456 0.063516 0.177219 0.192058
H28   H     H_    0.275284 0.941952 0.937622 0.181784
H29   H     H_    0.061767 0.181228 0.719109 0.191701
H30   H     H_    0.941311 0.942806 0.276430 0.184287
H31   H     H_    0.287900 0.610915 0.165311 0.177412
H32   H     H_    0.838707 0.280522 0.876413 0.186893
H33   H     H_    0.633634 0.161702 0.268994 0.165559
H34   H     H_    0.718087 0.454008 0.186922 0.129362
H35   H     H_    0.282013 0.879707 0.841348 0.184309
H36   H     H_    0.161404 0.272027 0.629684 0.174335
H37   H     H_    0.880416 0.845910 0.282232 0.199584
H38   H     H_    0.033248 0.751351 0.126990 0.176658
H39   H     H_    0.046275 0.347623 0.848199 0.170358
H40   H     H_    0.731862 0.122116 0.020390 0.177675
H41   H     H_    0.352533 0.844699 0.049789 0.171819
H42   H     H_    0.120843 0.023562 0.726897 0.178324
H43   H     H_    0.843077 0.054471 0.354479 0.166879
H44   H     H_    0.248152 0.495709 0.439184 0.195798
H45   H     H_    0.469225 0.299497 0.796569 0.135969
H46   H     H_    0.196447 0.608753 0.380058 0.109576
H47   H     H_    0.389037 0.496397 0.292807 0.261730
H48   H     H_    0.336836 0.616221 0.256905 0.244952
H49   H     H_    0.331128 0.619679 0.394392 0.260599
H50   H     H_    0.443550 0.570350 0.328432 0.268755
H51   H     H_    0.385571 0.499308 0.429269 0.265555
H52   H     H_    0.756509 0.499647 0.701022 0.124531
H53   H     H_    0.729452 0.415460 0.809651 0.173720
H54   H     H_    0.715758 0.435964 0.639568 0.211827
H55   H     H_    0.692662 0.350088 0.746486 0.266244
H56   H     H_    0.525184 0.700775 0.202741 0.145802
H57   H     H_    0.571027 0.465473 0.816882 0.299378
H58   H     H_    0.553034 0.476791 0.723080 0.259043
H59   H     H_    0.595708 0.553382 0.711304 0.246500
H60   H     H_    0.568047 0.413819 0.230468 0.171090
H61   H     H_    0.652921 0.307618 0.228837 0.127180
H62   H     H_    0.468482 0.343757 0.377439 0.234102
H63   H     H_    0.549214 0.234402 0.377577 0.258650
H64   H     H_    0.661232 0.277280 0.374932 0.283190
H65   H     H_    0.560474 0.287936 0.470338 0.268529
H66   H     H_    0.578558 0.386827 0.376535 0.247388
H67   H     H_    0.969811 0.664272 0.434784 0.171392
H68   H     H_    0.499557 0.701806 0.759042 0.124744
H69   H     H_    0.417083 0.811764 0.730723 0.172584
H70   H     H_    0.435161 0.642812 0.716451 0.212332
H71   H     H_    0.351455 0.751136 0.691523 0.270760
H72   H     H_    0.469481 0.818268 0.571760 0.299535
H73   H     H_    0.479752 0.724917 0.553642 0.263979
H74   H     H_    0.555490 0.711377 0.598310 0.242601
H75   H     H_    0.444705 0.197775 0.551831 0.191352
H76   H     H_    0.364152 0.158045 0.655007 0.123111
H77   H     H_    0.344133 0.356033 0.535355 0.225478
H78   H     H_    0.040146 0.335067 0.566431 0.179757
H79   H     H_    0.259283 0.319059 0.637332 0.254647
H80   H     H_    0.362942 0.249673 0.723036 0.274500
H81   H     H_    0.345095 0.367786 0.664148 0.272644
H82   H     H_    0.448146 0.287251 0.620677 0.253484
H83   H     H_    0.699377 0.763786 0.500740 0.123293
H84   H     H_    0.811513 0.735173 0.421769 0.181357
H85   H     H_    0.647561 0.716971 0.433992 0.217219
H86   H     H_    0.757347 0.693122 0.351905 0.271125
H87   H     H_    0.822381 0.575209 0.471763 0.296080
H88   H     H_    0.731943 0.554678 0.479450 0.263698
H89   H     H_    0.665007 0.433451 0.962588 0.163538
H90   H     H_    0.713969 0.600811 0.556272 0.244518
O1    O     O_3   0.250000 0.250000 0.250000 -0.496152
O2    O     O_R   0.865800 0.694910 0.573470 -0.666241
O3    O     O_R   0.305090 0.426530 0.134200 -0.643983
O4    O     O_R   0.694910 0.573470 0.865800 -0.663738
O5    O     O_R   0.426530 0.134200 0.305090 -0.643152
O6    O     O_R   0.573470 0.865800 0.694910 -0.662045
O7    O     O_R   0.134190 0.426530 0.134200 -0.635842
O8    O     O_R   0.865810 0.573470 0.865800 -0.633234
O9    O     O_R   0.426530 0.134200 0.134190 -0.631355
O10   O     O_R   0.573470 0.865800 0.865810 -0.633090
O11   O     O_R   0.134200 0.134190 0.426530 -0.634126
O12   O     O_3   0.750000 0.750000 0.750000 -0.481968
O13   O     O_R   0.865800 0.865810 0.573470 -0.633561
O14   O     O_R   0.426530 0.305080 0.134210 -0.635226
O15   O     O_R   0.573470 0.694920 0.865790 -0.653871
O16   O     O_R   0.305080 0.134210 0.426530 -0.633358
O17   O     O_R   0.694920 0.865790 0.573470 -0.654330
O18   O     O_R   0.134210 0.426530 0.305080 -0.630470
O19   O     O_R   0.865790 0.573470 0.694920 -0.650695
O20   O     O_3   0.230415 0.507459 0.332187 -0.639585
O21   O     O_3   0.842811 0.369829 0.707903 -0.645913
O22   O     O_3   0.531606 0.334343 0.215758 -0.640304
O23   O     O_R   0.305080 0.134200 0.134200 -0.642050
O24   O     O_3   0.368761 0.711532 0.843332 -0.643503
O25   O     O_3   0.332767 0.217746 0.535360 -0.643324
O26   O     O_3   0.713128 0.846324 0.368951 -0.640444
O27   O     O_R   0.694920 0.865800 0.865800 -0.632882
O28   O     O_R   0.134200 0.134200 0.305080 -0.646111
O29   O     O_R   0.865800 0.865800 0.694920 -0.638717
O30   O     O_R   0.134200 0.305080 0.134200 -0.641372
O31   O     O_R   0.865800 0.694920 0.865800 -0.634117
O32   O     O_R   0.134200 0.305090 0.426530 -0.647917
Zn1   Zn    Zn3+2 0.206620 0.206630 0.380140 0.999063
Zn2   Zn    Zn3+2 0.793380 0.793370 0.619860 0.956133
Zn3   Zn    Zn3+2 0.206630 0.380140 0.206620 0.999984
Zn4   Zn    Zn3+2 0.793370 0.619860 0.793380 0.958649
Zn5   Zn    Zn3+2 0.380140 0.206620 0.206630 1.001606
Zn6   Zn    Zn3+2 0.619860 0.793380 0.793370 0.956938
Zn7   Zn    Zn3+2 0.206620 0.206620 0.206620 0.951380
Zn8   Zn    Zn3+2 0.793380 0.793380 0.793380 0.979132

loop_
_geom_bond_atom_site_label_1
_geom_bond_atom_site_label_2
_ccdc_geom_bond_type
O31   Zn8   S    
C68   C80   A    
C48   C55   A    
C12   H46   S    
C15   H50   S    
C18   H57   S    
C42   C80   S    
C65   C79   A    
C96   C102  A    
C98   H11   S    
C8    C83   S    
O12   Zn8   S    
C32   C94   A    
C26   H75   S    
C1    C11   S    
C9    C72   S    
C21   H66   S    
O12   Zn2   S    
C25   H72   S    
C92   H6    S    
C92   C125  A    
O4    Zn4   S    
C53   C59   A    
C106  C112  A    
C16   H52   S    
C68   C75   A    
C40   C46   A    
O11   Zn1   S    
C49   F5    S    
O2    Zn2   S    
C95   H8    S    
C59   C105  A    
C37   O26   S    
C90   O17   A    
C47   F3    S    
C103  C110  A    
C6    C61   S    
C90   O6    A    
O16   Zn1   S    
C45   F1    S    
O13   Zn2   S    
C102  C109  A    
C44   C82   S    
C16   H53   S    
C30   C31   S    
C59   H26   S    
C120  C126  A    
C29   H83   S    
C38   C79   S    
C34   C116  A    
C71   C86   S    
C55   C62   A    
C27   H77   S    
C69   C76   A    
C63   H29   S    
O15   Zn6   S    
C108  C114  A    
C67   H89   S    
C35   C42   A    
C93   C126  A    
C55   H41   S    
C38   C45   A    
C119  C125  A    
C61   O13   A    
C102  H16   S    
C96   H9    S    
C4    C96   A    
C114  C121  A    
C106  H1    S    
C88   O4    A    
O8    Zn4   S    
C100  H14   S    
C16   C17   S    
C87   O3    A    
C15   H51   S    
C9    C121  A    
C60   H27   S    
C85   O32   A    
C51   C57   A    
C32   C38   A    
O18   Zn3   S    
C66   H78   S    
C7    C124  A    
C114  H21   S    
C14   H47   S    
C50   O28   A    
O5    Zn5   S    
C19   H60   S    
C30   H86   S    
C101  C108  A    
C99   H13   S    
C107  H34   S    
O23   Zn7   S    
C21   H64   S    
C115  C122  A    
C74   C80   A    
C70   C77   A    
C70   H4    S    
C43   C84   S    
C113  H20   S    
C48   F4    S    
C34   C41   A    
C86   O2    A    
C89   O5    A    
C25   H73   S    
C110  C117  A    
C20   H62   S    
C17   C18   S    
C31   H87   S    
C111  H18   S    
C109  H56   S    
C28   H82   S    
C66   C78   A    
C11   C123  A    
C18   H59   S    
C56   C63   A    
C33   C40   A    
C72   O7    A    
C23   H70   S    
C34   O22   S    
C107  C113  A    
C33   C105  A    
C6    C125  A    
C13   C36   A    
C64   H30   S    
C3    C8    A    
O19   Zn4   S    
C52   H38   S    
C22   O24   S    
C2    C35   A    
C109  C115  A    
C43   C49   A    
C29   H84   S    
C54   C60   A    
C110  H45   S    
C65   C71   A    
C66   C73   A    
O9    Zn5   S    
C87   O14   A    
C56   H42   S    
C10   C39   S    
C113  C120  A    
C50   O11   A    
O12   Zn6   S    
C16   O21   S    
O28   Zn7   S    
C65   H67   S    
C29   C30   S    
C93   H7    S    
C7    C119  A    
C104  C111  A    
C31   H90   S    
C1    O9    A    
C39   O27   A    
C12   C14   S    
C17   H54   S    
C61   O29   A    
C41   C81   S    
C117  H24   S    
C27   H79   S    
C24   C37   A    
C41   C47   A    
C105  H32   S    
C4    C122  A    
C67   C74   A    
C42   C48   A    
C72   O30   A    
C4    C11   A    
C24   H37   S    
C93   C100  A    
C73   C85   S    
C97   C103  A    
C52   C58   A    
C19   O22   S    
C30   H85   S    
O10   Zn6   S    
O30   Zn7   S    
C44   C51   A    
C75   C87   S    
C83   O31   A    
C67   C81   A    
C12   O20   S    
C91   C124  A    
C47   C54   A    
C115  H22   S    
C26   C27   S    
O27   Zn8   S    
C29   O26   S    
C62   H28   S    
C116  H33   S    
C60   C116  A    
C76   C82   A    
C25   H74   S    
C118  C124  A    
C57   H43   S    
O1    Zn7   S    
C26   O25   S    
C8    C120  A    
C57   C64   A    
O1    Zn3   S    
C31   H88   S    
C22   H68   S    
C28   H81   S    
O12   Zn4   S    
C99   C106  A    
C91   H5    S    
C18   H58   S    
C100  C107  A    
C20   H63   S    
C22   H69   S    
C32   O20   S    
C22   C23   S    
C89   O16   A    
C26   H76   S    
C7    C50   S    
C5    C97   A    
C10   C122  A    
C58   H25   S    
C73   C79   A    
C19   C20   S    
C112  C119  A    
C51   F6    S    
O6    Zn6   S    
C19   H61   S    
C77   C89   S    
C83   O8    A    
C75   C81   A    
C28   H80   S    
C49   C56   A    
C5    C123  A    
C9    C126  A    
C77   C84   A    
C12   H44   S    
C111  C118  A    
C85   O18   A    
C103  H17   S    
C45   C52   A    
C2    H35   S    
O32   Zn1   S    
C68   H2    S    
C117  C123  A    
O3    Zn3   S    
C5    C10   A    
C69   C84   A    
C1    O23   A    
C13   H36   S    
O1    Zn5   S    
O14   Zn5   S    
C101  H15   S    
C108  H23   S    
C17   H55   S    
C86   O19   A    
C98   C104  A    
C88   O15   A    
C15   H49   S    
C46   C53   A    
C21   H65   S    
C40   C78   S    
C13   C63   A    
C23   C25   S    
C91   C98   A    
C58   C94   A    
C70   C82   A    
C97   H10   S    
C33   O21   S    
C104  H12   S    
C53   H39   S    
O29   Zn8   S    
C3    C121  A    
C37   C44   A    
O1    Zn1   S    
C39   O10   A    
C20   C21   S    
C35   O24   S    
C24   C64   A    
C46   F2    S    
C23   H71   S    
O17   Zn2   S    
C2    C62   A    
C36   O25   S    
C14   C15   S    
C36   C43   A    
C3    C95   A    
C74   C88   S    
C54   H40   S    
C94   H31   S    
C6    C118  A    
C71   C78   A    
C14   H48   S    
C112  H19   S    
C95   C101  A    
C92   C99   A    
C76   C90   S    
C27   C28   S    
C69   H3    S    
O7    Zn3   S    
