data_mof_unit_10702.cif
_audit_creation_date              2012-12-10T16:59:14-0500
_audit_creation_method            fapswitch 2.2
_symmetry_space_group_name_H-M    P1
_symmetry_Int_Tables_number       1
_space_group_crystal_system       triclinic
_cell_length_a                    7.704274
_cell_length_b                    8.549418
_cell_length_c                    27.627471
_cell_angle_alpha                 90.616167
_cell_angle_beta                  87.153553
_cell_angle_gamma                 93.720345
_cell_volume                      1813.6131755

loop_
_atom_site_label
_atom_site_type_symbol
_atom_type_description
_atom_site_fract_x
_atom_site_fract_y
_atom_site_fract_z
_atom_type_partial_charge
C1    C     C_R   0.546022 0.794947 0.498717 0.967227
C2    C     C_R   0.451448 0.647908 0.128971 0.016655
C3    C     C_R   0.514174 0.498472 0.647163 -0.156529
C4    C     C_R   0.479675 0.494828 0.353257 -0.146204
C5    C     C_R   0.485743 0.645214 0.027213 0.117582
C6    C     C_R   0.365995 0.374750 0.975266 0.121590
C7    C     C_R   0.328806 0.384488 0.025979 -0.172771
C8    C     C_R   0.527782 0.633818 0.976881 -0.162623
C9    C     C_R   0.400575 0.515050 0.051812 0.007698
C10   C     C_R   0.459520 0.502064 0.950794 0.013062
C11   C     C_R   0.520585 0.784602 0.053918 -0.161400
C12   C     C_R   0.453975 0.205053 0.501264 0.959190
C13   C     C_R   0.324842 0.236704 0.948570 -0.195053
C14   C     C_R   0.506391 0.785218 0.104168 -0.133102
C15   C     C_R   0.347731 0.232885 0.898628 -0.218007
C16   C     C_R   0.504570 0.499746 0.594165 0.936485
C17   C     C_R   0.495246 0.499708 0.405925 0.940974
C18   C     C_R   0.647764 0.742699 0.952132 0.365205
C19   C     C_R   0.219085 0.270734 0.052428 0.401481
C20   C     C_2   0.570407 0.958397 0.497967 -0.360196
C21   C     C_2   0.429586 0.041602 0.501985 -0.366141
C22   C     C_R   0.594327 0.614202 0.823891 0.569554
C23   C     C_R   0.489170 0.494990 0.899876 -0.128408
C24   C     C_R   0.349522 0.371540 0.177790 0.619426
C25   C     C_R   0.444095 0.361198 0.823404 0.581272
C26   C     C_R   0.455880 0.640000 0.179328 0.540809
C27   C     C_R   0.672988 0.476155 0.720256 -0.298932
C28   C     C_R   0.600732 0.523259 0.271168 -0.313821
C29   C     C_R   0.672716 0.479202 0.669548 0.441051
C30   C     C_R   0.624639 0.527280 0.321112 0.430853
C31   C     C_R   0.360788 0.515546 0.675859 -0.394553
C32   C     C_R   0.313931 0.460943 0.335186 -0.418080
C33   C     C_R   0.363037 0.515054 0.726199 0.580345
C34   C     C_R   0.389753 0.515017 0.102943 -0.140103
C35   C     C_R   0.290190 0.456929 0.285307 0.599305
C36   C     C_R   0.519254 0.492390 0.748183 0.166887
C37   C     C_R   0.434618 0.492008 0.253435 0.165322
C38   C     C_3   0.169706 0.683422 0.757109 -0.272467
C39   C     C_3   0.037314 0.296818 0.284916 -0.265472
C40   C     C_3   0.694357 0.997362 0.876991 -0.155460
C41   C     C_3   0.978997 0.175994 0.145229 -0.168016
C42   C     C_3   0.908009 0.761904 0.987491 -0.231413
C43   C     C_3   0.960342 0.257935 0.015458 -0.309149
C44   C     C_R   0.582177 0.619744 0.874874 -0.216103
C45   C     C_R   0.322965 0.380237 0.128021 -0.254114
C46   C     C_R   0.662545 0.743719 0.901358 0.453564
C47   C     C_R   0.228119 0.261431 0.102840 0.474291
C48   C     C_R   0.425762 0.362314 0.873861 0.010256
H1    H     H_    0.238089 0.529002 0.659393 0.201252
H2    H     H_    0.278325 0.127920 0.965404 0.209273
H3    H     H_    0.703305 0.009680 0.494131 0.182278
H4    H     H_    0.296688 0.990320 0.505817 0.182300
H5    H     H_    0.138614 0.728092 0.721076 0.171957
H6    H     H_    0.277093 0.758362 0.772694 0.183327
H7    H     H_    0.052275 0.692199 0.781654 0.237741
H8    H     H_    0.977894 0.316135 0.321730 0.181490
H9    H     H_    0.123073 0.196807 0.285087 0.200011
H10   H     H_    0.929415 0.263262 0.260975 0.189242
H11   H     H_    0.668103 0.045659 0.913986 0.155047
H12   H     H_    0.201848 0.440752 0.360018 0.198730
H13   H     H_    0.571790 0.983438 0.857243 0.165622
H14   H     H_    0.783004 0.084412 0.857011 0.192411
H15   H     H_    0.886774 0.179119 0.115723 0.152440
H16   H     H_    0.984828 0.289807 0.165284 0.145391
H17   H     H_    0.926076 0.084614 0.171133 0.195949
H18   H     H_    0.869148 0.598114 0.311696 0.364087
H19   H     H_    0.921363 0.448806 0.663286 0.338776
H20   H     H_    0.978148 0.721895 0.953857 0.169924
H21   H     H_    0.871399 0.660568 0.011696 0.142955
H22   H     H_    0.999551 0.842847 0.006914 0.226254
H23   H     H_    0.014010 0.383987 0.463456 0.190306
H24   H     H_    0.002014 0.329658 0.983154 0.175285
H25   H     H_    0.908727 0.335032 0.044815 0.132446
H26   H     H_    0.851593 0.175030 0.004977 0.222177
H27   H     H_    0.985990 0.616026 0.536538 0.210518
H28   H     H_    0.710565 0.548462 0.245803 0.179833
H29   H     H_    0.792328 0.460266 0.738261 0.187438
H30   H     H_    0.542680 0.892577 0.123413 0.194064
H31   H     H_    0.306123 0.126634 0.879571 0.189895
H32   H     H_    0.556694 0.895392 0.036658 0.194999
N1    N     N_R   0.521661 0.488187 0.799699 -0.332435
N2    N     N_R   0.412557 0.501166 0.202416 -0.332902
N3    N     N_2   0.950320 0.457960 0.486880 -0.161023
N4    N     N_2   0.049680 0.542040 0.513120 -0.158544
O1    O     O_R   0.389250 0.738570 0.503220 -0.616707
O2    O     O_2   0.317334 0.234273 0.201177 -0.508585
O3    O     O_2   0.506130 0.768911 0.205008 -0.543613
O4    O     O_2   0.383041 0.235306 0.797988 -0.551637
O5    O     O_3   0.210317 0.525115 0.754200 -0.611706
O6    O     O_3   0.125768 0.435703 0.266834 -0.622152
O7    O     O_3   0.776092 0.854644 0.878377 -0.555363
O8    O     O_3   0.144174 0.134424 0.126854 -0.539758
O9    O     O_3   0.785478 0.569084 0.339042 -0.750309
O10   O     O_3   0.824480 0.462421 0.641702 -0.746421
O11   O     O_3   0.761250 0.843340 0.976719 -0.621653
O12   O     O_R   0.610750 0.261430 0.496780 -0.618260
O13   O     O_3   0.097088 0.170474 0.030728 -0.603380
O14   O     O_R   0.678390 0.711630 0.494810 -0.630694
O15   O     O_R   0.321610 0.288370 0.505190 -0.632130
O16   O     O_R   0.355440 0.513440 0.575450 -0.626653
O17   O     O_R   0.644560 0.486560 0.424550 -0.562828
O18   O     O_R   0.644590 0.486500 0.567040 -0.563617
O19   O     O_R   0.355410 0.513500 0.432960 -0.644254
O20   O     O_2   0.674295 0.734297 0.798400 -0.530633
Zn1   Zn    Zn3+2 0.306940 0.517990 0.505620 0.962127
Zn2   Zn    Zn3+2 0.693060 0.482010 0.494380 0.997746

loop_
_geom_bond_atom_site_label_1
_geom_bond_atom_site_label_2
_ccdc_geom_bond_type
C43   H25   S    
C42   H20   S    
C43   H24   S    
C27   C29   A    
C47   O8    S    
C19   O13   S    
C22   O20   S    
C38   O5    S    
O16   Zn1   S    
C24   C45   A    
C35   C37   A    
C5    C11   A    
C30   O9    S    
C29   O10   S    
C11   C14   A    
C19   C47   A    
H27   N4    S    
C39   H9    S    
C42   H22   S    
C33   C36   A    
C40   H14   S    
C3    C29   A    
C17   O17   A    
C12   O15   A    
C24   N2    A    
C22   C44   A    
C38   H7    S    
C39   H8    S    
C26   O3    S    
H19   O10   S    
C31   C33   A    
C39   O6    S    
C2    C34   A    
C43   H26   S    
C26   N2    A    
C40   H11   S    
C25   N1    A    
C18   O11   S    
C15   C48   A    
C31   H1    S    
O1    Zn1   S    
C18   C46   A    
C44   C46   A    
H23   N3    S    
C45   C47   A    
C1    O1    A    
O15   Zn1   S    
C15   H31   S    
C42   O11   S    
C22   N1    A    
O19   Zn1   S    
C16   O16   A    
C41   H17   S    
C46   O7    S    
C39   H10   S    
C12   C21   S    
C25   O4    S    
C8    C18   A    
C40   H13   S    
C32   C35   A    
C5    C9    A    
C33   O5    S    
N3    N4    D    
C38   H6    S    
C36   N1    S    
N4    Zn1   S    
C2    C26   A    
C34   C45   A    
C3    C31   A    
C25   C48   A    
C4    C32   A    
H18   O9    S    
C4    C17   S    
C16   O18   A    
C7    C19   A    
C13   C15   A    
C9    C34   A    
C10   C23   A    
C37   N2    S    
C32   H12   S    
C28   H28   S    
O17   Zn2   S    
C7    C9    A    
O12   Zn2   S    
C1    C20   S    
C23   C48   A    
C43   O13   S    
C27   H29   S    
C1    O14   A    
C6    C10   A    
C5    C8    A    
C6    C7    A    
C27   C36   A    
C20   H3    S    
C42   H21   S    
O14   Zn2   S    
N3    Zn2   S    
C28   C30   A    
C17   O19   A    
C6    C13   A    
C38   H5    S    
C28   C37   A    
O18   Zn2   S    
C14   H30   S    
C40   O7    S    
C2    C14   A    
C11   H32   S    
C23   C44   A    
C13   H2    S    
C35   O6    S    
C41   O8    S    
C20   C21   D    
C8    C10   A    
C41   H15   S    
C12   O12   A    
C41   H16   S    
C24   O2    S    
C21   H4    S    
C4    C30   A    
C3    C16   S    
