data_mof_unit_42874.cif
_audit_creation_date              2012-12-10T19:10:07-0500
_audit_creation_method            fapswitch 2.2
_symmetry_space_group_name_H-M    P1
_symmetry_Int_Tables_number       1
_space_group_crystal_system       triclinic
_cell_length_a                    10.995468
_cell_length_b                    10.998291
_cell_length_c                    9.703844
_cell_angle_alpha                 92.648666
_cell_angle_beta                  90.463078
_cell_angle_gamma                 93.482773
_cell_volume                      1170.0105552

loop_
_atom_site_label
_atom_site_type_symbol
_atom_type_description
_atom_site_fract_x
_atom_site_fract_y
_atom_site_fract_z
_atom_type_partial_charge
C1    C     C_R   0.496380 0.262971 0.497272 0.789914
C2    C     C_R   0.200177 0.528315 0.970621 -0.190253
C3    C     C_R   0.931684 0.487165 0.379466 -0.193237
C4    C     C_R   0.870216 0.485120 0.503497 -0.117683
C5    C     C_R   0.938971 0.476611 0.625256 0.019435
C6    C     C_R   0.065571 0.486701 0.619943 -0.239711
C7    C     C_R   0.127669 0.496599 0.496208 -0.107790
C8    C     C_R   0.058170 0.495745 0.373548 0.055577
C9    C     C_R   0.903354 0.546705 0.864356 -0.212065
C10   C     C_R   0.862501 0.528092 0.997864 0.210467
C11   C     C_R   0.799048 0.417213 0.025774 -0.202670
C12   C     C_R   0.262400 0.499925 0.498892 0.780287
C13   C     C_R   0.782175 0.324588 0.923197 -0.154120
C14   C     C_R   0.826748 0.341495 0.790737 0.244989
C15   C     C_R   0.884890 0.455189 0.760433 0.082372
C16   C     C_R   0.419350 0.064501 0.587526 0.011309
C17   C     C_R   0.486779 0.129773 0.490701 -0.066057
C18   C     C_R   0.547019 0.063144 0.387813 -0.223475
C19   C     C_R   0.552404 0.936135 0.394086 -0.213216
C20   C     C_R   0.497785 0.872376 0.502825 -0.091122
C21   C     C_R   0.426233 0.938819 0.594575 0.052227
C22   C     C_3   0.423735 0.950904 0.749246 0.275146
C23   C     C_R   0.500235 0.737894 0.502308 0.799897
C24   C     C_3   0.401193 0.085661 0.739523 -0.122272
C25   C     C_R   0.574083 0.580589 0.077953 0.220092
C26   C     C_R   0.438136 0.411002 0.068902 -0.065614
C27   C     C_R   0.436874 0.412434 0.921133 -0.059483
C28   C     C_R   0.577518 0.576892 0.931566 0.211114
C29   C     C_3   0.578337 0.709700 0.930281 -0.059334
C30   C     C_3   0.571691 0.715826 0.086183 -0.521325
C31   C     C_R   0.736858 0.494636 0.500997 0.766083
C32   C     C_R   0.208060 0.628305 0.064286 -0.177720
C33   C     C_R   0.163113 0.616941 0.196656 -0.127069
C34   C     C_R   0.111666 0.504428 0.236398 0.130867
C35   C     C_R   0.104078 0.402656 0.143073 0.185436
C36   C     C_R   0.147972 0.414301 0.008439 0.162795
Cu1   Cu    Cu3+1 0.499990 0.499980 0.640670 0.951375
Cu2   Cu    Cu3+1 0.500010 0.500020 0.359330 0.939307
H1    H     H_    0.596233 0.109737 0.307446 0.151849
H2    H     H_    0.604569 0.888857 0.317290 0.152337
H3    H     H_    0.384147 0.340765 0.119060 0.129250
H4    H     H_    0.249697 0.714595 0.034286 0.143393
H5    H     H_    0.494097 0.734489 0.878818 0.240003
H6    H     H_    0.168055 0.695578 0.268403 0.124504
H7    H     H_    0.115257 0.485240 0.713904 0.162370
N1    N     N_R   0.500790 0.500930 0.147930 -0.184439
N2    N     N_R   0.500790 0.500890 0.852020 -0.208513
O1    O     O_R   0.500000 0.319640 0.618810 -0.548267
O2    O     O_R   0.500010 0.319680 0.381230 -0.599231
O3    O     O_R   0.319640 0.499990 0.618790 -0.600634
O4    O     O_R   0.319650 0.500030 0.381210 -0.574678
O5    O     O_R   0.499990 0.680320 0.618770 -0.567466
O6    O     O_R   0.500000 0.680360 0.381190 -0.584990
O7    O     O_R   0.680350 0.499970 0.618790 -0.581777
O8    O     O_R   0.680360 0.500010 0.381210 -0.593409
H8    H     H_    0.241175 0.539991 0.871495 0.164501
H9    H     H_    0.761452 0.401400 0.126156 0.153125
H10   H     H_    0.736223 0.238594 0.947813 0.137377
N3    N     N_3   0.816219 0.241165 0.690928 -0.619539
H11   H     H_    0.903393 0.224057 0.655587 0.226621
H12   H     H_    0.763955 0.265525 0.607445 0.214050
N4    N     N_3   0.323409 0.878063 0.809247 -0.600349
H13   H     H_    0.314144 0.909333 0.911817 0.198506
H14   H     H_    0.241748 0.892789 0.758241 0.199470
N5    N     N_3   0.541631 0.930115 0.810830 -0.554190
H15   H     H_    0.614826 0.966432 0.754451 0.235099
H16   H     H_    0.546646 0.964664 0.913049 0.225581
H17   H     H_    0.306820 0.109960 0.764077 0.137992
N6    N     N_3   0.493621 0.168312 0.810244 -0.571039
H18   H     H_    0.581372 0.157165 0.773460 0.258042
H19   H     H_    0.490849 0.155996 0.916360 0.198006
H20   H     H_    0.379203 0.346327 0.862835 0.164279
N7    N     N_3   0.692425 0.763140 0.875302 -0.568414
H21   H     H_    0.766678 0.745470 0.936666 0.219112
H22   H     H_    0.706018 0.724214 0.776692 0.252514
H23   H     H_    0.653090 0.761770 0.138212 0.181632
H24   H     H_    0.483331 0.747542 0.124136 0.201648
N8    N     N_3   0.052530 0.287919 0.186727 -0.611933
H25   H     H_    0.119706 0.224674 0.180687 0.207952
H26   H     H_    0.981502 0.257740 0.119017 0.241555
N9    N     N_3   0.139215 0.309970 0.913081 -0.613148
H27   H     H_    0.176976 0.330882 0.818329 0.206699
H28   H     H_    0.192448 0.243626 0.952103 0.190113
H29   H     H_    0.880376 0.481654 0.286113 0.189040
H30   H     H_    0.952528 0.631763 0.841668 0.131580
N10   N     N_3   0.889845 0.619258 0.106005 -0.624222
H31   H     H_    0.933508 0.697630 0.067809 0.211252
H32   H     H_    0.809004 0.643957 0.151253 0.212316

loop_
_geom_bond_atom_site_label_1
_geom_bond_atom_site_label_2
_ccdc_geom_bond_type
C28   N2    A    
C16   C21   A    
C6    H7    S    
N7    H21   S    
C35   C36   A    
N9    H27   S    
C7    C8    A    
Cu2   O2    S    
C25   C28   A    
C14   N3    S    
C26   C27   A    
N4    H13   S    
C2    C32   A    
C28   C29   S    
Cu1   Cu2   S    
C34   C35   A    
C5    C6    A    
N8    H26   S    
C29   N7    S    
C2    C36   A    
C17   C18   A    
C18   C19   A    
N6    H19   S    
N4    H14   S    
C9    H30   S    
C21   C22   S    
C30   H24   S    
Cu2   O8    S    
C19   C20   A    
C16   C17   A    
N5    H16   S    
Cu1   N2    S    
C9    C10   A    
N3    H11   S    
C16   C24   S    
C13   C14   A    
C29   H5    S    
N7    H22   S    
N9    H28   S    
C24   N6    S    
C23   O6    A    
C7    C12   S    
N3    H12   S    
C5    C15   S    
C3    C8    A    
C19   H2    S    
Cu1   O5    S    
C26   N1    A    
N8    H25   S    
C13   H10   S    
C18   H1    S    
C22   N5    S    
C29   C30   S    
C22   N4    S    
C30   H23   S    
C20   C23   S    
C36   N9    S    
C33   C34   A    
C8    C34   S    
Cu1   O1    S    
Cu1   O7    S    
C22   C24   S    
C3    C4    A    
C12   O4    A    
C27   N2    A    
C25   C30   S    
C10   N10   S    
N10   H31   S    
C33   H6    S    
C4    C5    A    
C12   O3    A    
C1    O1    A    
C6    C7    A    
Cu2   O4    S    
C35   N8    S    
C1    C17   S    
C32   C33   A    
C9    C15   A    
C2    H8    S    
Cu1   O3    S    
C11   C13   A    
C23   O5    A    
Cu2   O6    S    
N10   H32   S    
C31   O7    A    
N6    H18   S    
Cu2   N1    S    
C4    C31   S    
C10   C11   A    
C24   H17   S    
C20   C21   A    
N5    H15   S    
C3    H29   S    
C32   H4    S    
C14   C15   A    
C31   O8    A    
C11   H9    S    
C1    O2    A    
C25   N1    A    
C27   H20   S    
C26   H3    S    
