data_mof_unit_53207.cif
_audit_creation_date              2012-12-10T17:22:51-0500
_audit_creation_method            fapswitch 2.2
_symmetry_space_group_name_H-M    P1
_symmetry_Int_Tables_number       1
_space_group_crystal_system       triclinic
_cell_length_a                    10.122155
_cell_length_b                    10.538025
_cell_length_c                    10.820095
_cell_angle_alpha                 89.858375
_cell_angle_beta                  95.205872
_cell_angle_gamma                 82.437514
_cell_volume                      1139.27302517

loop_
_atom_site_label
_atom_site_type_symbol
_atom_type_description
_atom_site_fract_x
_atom_site_fract_y
_atom_site_fract_z
_atom_type_partial_charge
C1    C     C_R   0.443904 0.505135 0.267512 0.982505
C2    C     C_3   0.494132 0.123950 0.496728 -0.326508
C3    C     C_3   0.625263 0.948304 0.534607 0.350244
C4    C     C_3   0.374364 0.051672 0.464230 0.446788
C5    C     C_2   0.411804 0.497479 0.135673 -0.259213
C6    C     C_2   0.587239 0.471154 0.864423 -0.242788
C7    C     C_2   0.511164 0.459569 0.066023 -0.115624
C8    C     C_2   0.486470 0.464060 0.934034 -0.070506
C9    C     C_2   0.071704 0.492576 0.487358 -0.018347
C10   C     C_2   0.928293 0.507385 0.512693 -0.018212
C11   C     C_R   0.555911 0.488471 0.732530 0.953849
C12   C     C_R   0.497262 0.258086 0.496434 1.003623
C13   C     C_R   0.502661 0.741911 0.503273 1.002486
C14   C     C_3   0.583380 0.033256 0.417682 -0.393745
C15   C     C_3   0.416298 0.966700 0.581153 -0.379911
C16   C     C_3   0.462445 0.960002 0.386616 0.364196
C17   C     C_3   0.537229 0.039842 0.612188 0.296444
C18   C     C_3   0.505590 0.876033 0.502242 -0.323018
H1    H     H_    0.690330 0.465507 0.904589 0.168476
H2    H     H_    0.613843 0.433046 0.105703 0.195024
H3    H     H_    0.894403 0.569975 0.586013 0.206129
H4    H     H_    0.105570 0.430013 0.414030 0.205986
H5    H     H_    0.877833 0.389290 0.379520 0.186978
H6    H     H_    0.122186 0.610653 0.620526 0.204563
H7    H     H_    0.309433 0.524141 0.095498 0.172160
H8    H     H_    0.286087 0.048240 0.129852 0.403288
H9    H     H_    0.550277 0.922109 0.856007 0.361458
H10   H     H_    0.650631 0.062999 0.350594 0.224529
H11   H     H_    0.349083 0.937007 0.648298 0.230589
H12   H     H_    0.868531 0.061421 0.548307 0.357439
H13   H     H_    0.022604 0.044840 0.356751 0.381689
H14   H     H_    0.383101 0.469770 0.894342 0.196868
N1    N     N_2   0.157310 0.552180 0.551120 -0.184057
N2    N     N_2   0.842690 0.447820 0.448880 -0.195408
O1    O     O_R   0.568940 0.489500 0.307530 -0.622774
O2    O     O_2   0.300229 0.830159 0.238189 -0.265449
O3    O     O_3   0.384312 0.024325 0.133544 -0.479251
O4    O     O_2   0.696288 0.172835 0.759520 -0.232989
O5    O     O_2   0.463777 0.179520 0.808253 -0.281658
O6    O     O_3   0.627538 0.971233 0.862086 -0.422626
O7    O     O_2   0.798014 0.792576 0.688059 -0.265108
O8    O     O_2   0.851552 0.809785 0.472379 -0.282685
O9    O     O_3   0.886146 0.999747 0.618998 -0.423356
O10   O     O_2   0.149708 0.189587 0.528841 -0.288124
O11   O     O_2   0.201439 0.209457 0.312518 -0.349019
O12   O     O_R   0.431060 0.510500 0.692470 -0.629919
O13   O     O_3   0.114018 0.000828 0.380870 -0.468119
O14   O     O_R   0.348880 0.522990 0.340350 -0.595003
O15   O     O_R   0.651120 0.477010 0.659650 -0.597466
O16   O     O_R   0.610000 0.297210 0.483560 -0.622511
O17   O     O_R   0.390000 0.702790 0.516440 -0.591694
O18   O     O_R   0.389940 0.330700 0.516390 -0.567605
O19   O     O_R   0.610060 0.669300 0.483610 -0.567490
O20   O     O_2   0.535527 0.811557 0.196499 -0.253561
S1    S     S_3+6 0.419321 0.901289 0.235685 0.093256
S2    S     S_3+6 0.581670 0.096213 0.763726 0.106463
S3    S     S_3+6 0.794273 0.881964 0.579068 0.092495
S4    S     S_3+6 0.205531 0.118894 0.420677 0.046642
Zn1   Zn    Zn3+2 0.646930 0.477640 0.478080 1.039446
Zn2   Zn    Zn3+2 0.353070 0.522360 0.521920 1.060132

loop_
_geom_bond_atom_site_label_1
_geom_bond_atom_site_label_2
_ccdc_geom_bond_type
C4    C16   S    
C15   C18   S    
C12   O16   A    
C1    O14   A    
O14   Zn2   S    
C11   O15   A    
C15   H11   S    
O6    S2    S    
C9    C10   S    
C2    C4    S    
O5    S2    D    
O15   Zn1   S    
H9    O6    S    
H5    N2    S    
C2    C12   S    
C4    C15   S    
O19   Zn1   S    
C16   S1    S    
O7    S3    D    
C7    C8    S    
H8    O3    S    
O2    S1    D    
H13   O13   S    
C2    C17   S    
C9    N1    D    
C6    H1    S    
C17   S2    S    
C3    C14   S    
C13   C18   S    
C5    H7    S    
O16   Zn1   S    
C3    S3    S    
O8    S3    D    
C16   C18   S    
C12   O18   A    
C3    C17   S    
N1    Zn2   S    
C13   O19   A    
C10   H3    S    
N2    Zn1   S    
C2    C14   S    
O1    Zn1   S    
C14   C16   S    
O11   S4    D    
C15   C17   S    
O9    S3    S    
C14   H10   S    
O3    S1    S    
C1    C5    S    
O4    S2    D    
H12   O9    S    
C1    O1    A    
C3    C18   S    
C10   N2    D    
C9    H4    S    
C4    S4    S    
C6    C11   S    
C5    C7    D    
O20   S1    D    
C11   O12   A    
C6    C8    D    
O17   Zn2   S    
O18   Zn2   S    
O12   Zn2   S    
C13   O17   A    
C7    H2    S    
H6    N1    S    
O10   S4    D    
O13   S4    S    
C8    H14   S    
