data_mof_unit_5405.cif
_audit_creation_date              2012-12-11T15:53:58-0500
_audit_creation_method            fapswitch 2.2
_symmetry_space_group_name_H-M    P1
_symmetry_Int_Tables_number       1
_space_group_crystal_system       triclinic
_cell_length_a                    10.665845
_cell_length_b                    10.793589
_cell_length_c                    17.040253
_cell_angle_alpha                 80.287187
_cell_angle_beta                  99.203423
_cell_angle_gamma                 118.357634
_cell_volume                      1694.35111616

loop_
_atom_site_label
_atom_site_type_symbol
_atom_type_description
_atom_site_fract_x
_atom_site_fract_y
_atom_site_fract_z
_atom_type_partial_charge
C1    C     C_R   0.384262 0.285151 0.631680 0.551738
C2    C     C_R   0.409547 0.824785 0.675736 -0.145866
C3    C     C_R   0.412388 0.838492 0.755808 -0.054373
C4    C     C_3   0.120187 0.463943 0.786575 0.026701
C5    C     C_3   0.128628 0.442872 0.701915 -0.202451
C6    C     C_R   0.316397 0.695592 0.644605 -0.003188
C7    C     C_1   0.822525 0.655808 0.706158 -0.049140
C8    C     C_1   0.850752 0.684901 0.773668 -0.048607
C9    C     C_1   0.363512 0.235269 0.714136 -0.076751
C10   C     C_1   0.332474 0.187050 0.781315 -0.047319
C11   C     C_1   0.335730 0.667507 0.278336 -0.085314
C12   C     C_R   0.368337 0.655357 0.584331 0.537062
C13   C     C_1   0.321837 0.677031 0.207545 -0.067188
C14   C     C_R   0.803814 0.654978 0.150128 -0.025414
C15   C     C_R   0.736327 0.515902 0.189012 0.012384
C16   C     C_R   0.680318 0.495841 0.261128 -0.073119
C17   C     C_R   0.781920 0.749612 0.263348 0.108895
C18   C     C_R   0.812154 0.767854 0.184603 -0.171092
C19   C     C_3   0.787531 0.403088 0.221526 0.150231
C20   C     C_3   0.693884 0.365894 0.289500 -0.231218
C21   C     C_R   0.720703 0.610769 0.304176 0.035893
C22   C     C_R   0.284559 0.085290 0.174753 0.004565
C23   C     C_R   0.775957 0.617918 0.626997 0.549328
C24   C     C_R   0.283628 0.208407 0.185308 0.052656
C25   C     C_R   0.304113 0.248509 0.259742 -0.020948
C26   C     C_R   0.349749 0.052696 0.317666 -0.200501
C27   C     C_R   0.326964 0.011066 0.240508 -0.187677
C28   C     C_3   0.172065 0.255936 0.156635 0.021340
C29   C     C_3   0.193567 0.298630 0.239387 -0.218639
C30   C     C_R   0.328100 0.167708 0.327274 -0.004352
C31   C     C_R   0.892241 0.702524 0.855867 0.539270
C32   C     C_R   0.286936 0.747942 0.882702 0.561204
C33   C     C_R   0.285788 0.117454 0.858064 0.558285
C34   C     C_R   0.349587 0.221478 0.402382 0.549245
C35   C     C_R   0.885050 0.689381 0.082774 0.543278
C36   C     C_R   0.311321 0.703340 0.124402 0.556243
C37   C     C_R   0.248811 0.042020 0.095623 0.555555
C38   C     C_R   0.365569 0.654727 0.361183 0.533094
C39   C     C_R   0.702681 0.585667 0.389611 0.578391
C40   C     C_R   0.298911 0.733807 0.800818 0.004788
C41   C     C_R   0.189578 0.620787 0.762086 0.020234
C42   C     C_R   0.198262 0.600554 0.685520 -0.026506
Cr1   Cr    Cr6+3 0.608440 0.389080 0.519680 0.991045
Cr2   Cr    Cr6+3 0.288640 0.400090 0.490760 0.984302
Cr3   Cr    Cr6+3 0.602940 0.710800 0.489510 1.023466
Cr4   Cr    Cr6+3 0.052530 0.947560 0.964210 0.970543
Cr5   Cr    Cr6+3 0.059970 0.626800 0.992920 0.971929
Cr6   Cr    Cr6+3 0.373320 0.938440 0.995370 1.012905
H1    H     H_    0.498341 0.904731 0.643306 0.151404
H2    H     H_    0.585835 0.278202 0.280846 0.127460
H3    H     H_    0.743817 0.356028 0.350198 0.170655
H4    H     H_    0.378853 0.993872 0.368781 0.135376
H5    H     H_    0.337644 0.920043 0.232452 0.130024
H6    H     H_    0.063304 0.168229 0.143240 0.131239
H7    H     H_    0.242751 0.413313 0.240943 0.164632
H8    H     H_    0.098269 0.232350 0.273135 0.113771
H9    H     H_    0.008973 0.425016 0.800703 0.126431
H10   H     H_    0.199344 0.395848 0.697098 0.170808
H11   H     H_    0.021758 0.392853 0.667949 0.124637
H12   H     H_    0.866327 0.875229 0.156338 0.126998
O1    O     O_R   0.754020 0.497590 0.609930 -0.522685
O2    O     O_R   0.295080 0.533620 0.397890 -0.521526
O3    O     O_R   0.485280 0.746620 0.388440 -0.513320
O4    O     O_R   0.720550 0.696220 0.420010 -0.458048
O5    O     O_3   0.500010 0.499990 0.499980 -0.287550
O6    O     O_R   0.163320 0.092900 0.874450 -0.488682
O7    O     O_R   0.934650 0.822080 0.882840 -0.504988
O8    O     O_R   0.915520 0.604140 0.893670 -0.530586
O9    O     O_R   0.191760 0.638110 0.923230 -0.512402
O10   O     O_R   0.406180 0.826930 0.920660 -0.523937
O11   O     O_R   0.358620 0.062870 0.901950 -0.501975
O12   O     O_R   0.481420 0.271390 0.600630 -0.504563
O13   O     O_R   0.163910 0.085460 0.050210 -0.535098
O14   O     O_R   0.935200 0.815170 0.045770 -0.538164
O15   O     O_R   0.916120 0.596690 0.069430 -0.526917
O16   O     O_R   0.192310 0.631200 0.086170 -0.479868
O17   O     O_R   0.406770 0.819480 0.096420 -0.539366
O18   O     O_R   0.359170 0.055960 0.064880 -0.484318
O19   O     O_3   0.161940 0.837600 0.984160 -0.285284
O20   O     O_R   0.263810 0.254550 0.589590 -0.502561
O21   O     O_R   0.300820 0.531200 0.560890 -0.516913
O22   O     O_R   0.491480 0.744020 0.564270 -0.524387
O23   O     O_R   0.726290 0.693800 0.583010 -0.488801
O24   O     O_R   0.747830 0.500190 0.434090 -0.540606
O25   O     O_R   0.475680 0.273800 0.437630 -0.512814
O26   O     O_R   0.257620 0.257160 0.413750 -0.528989
C43   C     C_R   0.750670 0.276332 0.175870 0.074856
C44   C     C_R   0.667905 0.135410 0.208990 -0.116796
C45   C     C_R   0.650925 0.020621 0.173712 -0.087805
C46   C     C_R   0.714688 0.041460 0.104301 -0.081661
C47   C     C_R   0.805653 0.178015 0.074181 -0.153660
C48   C     C_R   0.828187 0.293231 0.111577 -0.072591
H13   H     H_    0.624779 0.110344 0.265858 0.106839
H14   H     H_    0.593787 0.915083 0.203148 0.145846
H15   H     H_    0.700658 0.951866 0.076766 0.121260
H16   H     H_    0.866849 0.194265 0.025376 0.082605
H17   H     H_    0.917809 0.390988 0.094816 0.190692
N1    N     N_2   0.213551 0.375550 0.094428 -0.485850
H18   H     H_    0.139227 0.358196 0.045385 0.244702
C49   C     C_3   0.360434 0.450541 0.073787 -0.263689
H19   H     H_    0.374399 0.543163 0.029520 0.160617
H20   H     H_    0.386945 0.380105 0.046774 0.158559
H21   H     H_    0.435086 0.489876 0.127658 0.147854
C50   C     C_R   0.549315 0.946968 0.791672 0.057557
C51   C     C_R   0.593536 0.091006 0.767909 -0.089693
C52   C     C_R   0.719707 0.193483 0.803265 -0.109618
C53   C     C_R   0.805273 0.152034 0.860933 -0.109185
C54   C     C_R   0.766887 0.008714 0.881496 -0.095867
C55   C     C_R   0.641451 0.906326 0.845419 -0.046791
H22   H     H_    0.530404 0.122908 0.721727 0.135615
H23   H     H_    0.750628 0.304649 0.785946 0.120709
H24   H     H_    0.901796 0.230468 0.889518 0.093238
H25   H     H_    0.833625 0.977233 0.926004 0.144665
H26   H     H_    0.613537 0.795551 0.861489 0.099858
N2    N     N_2   0.202396 0.411779 0.847421 -0.487106
H27   H     H_    0.166283 0.385888 0.903369 0.257726
C56   C     C_3   0.357040 0.474177 0.849312 -0.275565
H28   H     H_    0.393583 0.398367 0.883254 0.139645
H29   H     H_    0.408858 0.569833 0.881432 0.136474
H30   H     H_    0.393040 0.501097 0.788377 0.140436
N3    N     N_2   0.837449 0.872742 0.304073 -0.486018
H31   H     H_    0.830489 0.957553 0.269669 0.237202
C57   C     C_3   0.981387 0.914749 0.341288 -0.283252
H32   H     H_    0.055339 0.946346 0.294510 0.136156
H33   H     H_    0.014446 0.005810 0.375619 0.158049
H34   H     H_    0.988042 0.826703 0.383024 0.175748
N4    N     N_2   0.939160 0.468917 0.250219 -0.508583
H35   H     H_    0.989686 0.577203 0.251882 0.257798
C58   C     C_3   0.983198 0.394005 0.318379 -0.299442
H36   H     H_    0.092981 0.418264 0.314009 0.181926
H37   H     H_    0.916640 0.277447 0.319789 0.134939
H38   H     H_    0.980025 0.430398 0.374894 0.147603

loop_
_geom_bond_atom_site_label_1
_geom_bond_atom_site_label_2
_ccdc_geom_bond_type
C3    C50   S    
C54   H25   S    
C43   C44   A    
C35   O14   A    
Cr1   O12   S    
C41   C42   A    
C14   C18   A    
C4    N2    S    
C19   C20   S    
Cr5   O19   S    
C51   H22   S    
C7    C8    T    
Cr3   O23   S    
C15   C19   S    
C39   O4    A    
C35   O15   A    
C26   C27   A    
C16   C21   A    
C23   O23   A    
C5    H10   S    
Cr6   O19   S    
C28   C29   S    
Cr5   O16   S    
C58   H36   S    
C20   H3    S    
C19   C43   S    
C36   O17   A    
C56   H29   S    
C6    C12   S    
C50   C55   A    
C57   H33   S    
C4    C41   S    
C28   N1    S    
C15   C16   A    
C54   C55   A    
C53   H24   S    
Cr6   O18   S    
C45   H14   S    
Cr5   O9    S    
C20   H2    S    
C36   O16   A    
C47   H16   S    
Cr3   O22   S    
N2    C56   S    
C4    H9    S    
C48   H17   S    
C53   C54   A    
C9    C10   T    
Cr1   O5    S    
C58   H38   S    
C43   C48   A    
Cr1   O24   S    
Cr2   O5    S    
C2    C6    A    
Cr2   O26   S    
C50   C51   A    
C33   O6    A    
C52   H23   S    
C25   C29   S    
C31   O8    A    
C1    O12   A    
C30   C34   S    
Cr1   O25   S    
C57   H32   S    
C1    C9    S    
C24   C25   A    
C13   C36   S    
Cr2   O21   S    
C56   H30   S    
C47   C48   A    
C28   H6    S    
C57   H34   S    
C32   O10   A    
C29   H7    S    
Cr2   O2    S    
C22   C37   S    
Cr3   O3    S    
C49   H21   S    
C17   C21   A    
C34   O25   A    
Cr6   O17   S    
C11   C38   S    
C31   O7    A    
N4    C58   S    
C2    H1    S    
C26   H4    S    
C21   C39   S    
Cr2   O20   S    
C16   C20   S    
C49   H20   S    
C17   C18   A    
C12   O22   A    
C52   C53   A    
N3    H31   S    
C55   H26   S    
C5    H11   S    
C17   N3    S    
C40   C41   A    
C3    C40   A    
C26   C30   A    
N1    C49   S    
C22   C27   A    
Cr3   O5    S    
C22   C24   A    
Cr6   O11   S    
N4    H35   S    
Cr5   O8    S    
Cr4   O14   S    
C14   C35   S    
Cr1   O1    S    
C5    C42   S    
C38   O3    A    
C37   O18   A    
C18   H12   S    
C25   C30   A    
C37   O13   A    
C44   H13   S    
C8    C31   S    
C24   C28   S    
Cr6   O10   S    
C4    C5    S    
C46   H15   S    
C39   O24   A    
C27   H5    S    
Cr4   O6    S    
C32   O9    A    
C29   H8    S    
C51   C52   A    
Cr3   O4    S    
C34   O26   A    
C2    C3    A    
Cr5   O15   S    
Cr4   O7    S    
C56   H28   S    
C11   C13   T    
C46   C47   A    
Cr4   O19   S    
C7    C23   S    
C19   N4    S    
C49   H19   S    
C12   O21   A    
C10   C33   S    
C32   C40   S    
N3    C57   S    
C33   O11   A    
C23   O1    A    
C44   C45   A    
N1    H18   S    
C6    C42   A    
C1    O20   A    
C14   C15   A    
C38   O2    A    
C45   C46   A    
Cr4   O13   S    
N2    H27   S    
C58   H37   S    
