data_mof_unit_65688.cif
_audit_creation_date              2012-12-10T21:20:55-0500
_audit_creation_method            fapswitch 2.2
_symmetry_space_group_name_H-M    P1
_symmetry_Int_Tables_number       1
_space_group_crystal_system       triclinic
_cell_length_a                    17.491147
_cell_length_b                    16.731497
_cell_length_c                    19.240357
_cell_angle_alpha                 89.959068
_cell_angle_beta                  90.124554
_cell_angle_gamma                 89.959399
_cell_volume                      5630.73345086

loop_
_atom_site_label
_atom_site_type_symbol
_atom_type_description
_atom_site_fract_x
_atom_site_fract_y
_atom_site_fract_z
_atom_type_partial_charge
C1    C     C_R   0.352959 0.500020 0.498868 0.846790
C2    C     C_R   0.550055 0.167594 0.542962 -0.256134
C3    C     C_R   0.550046 0.832237 0.543034 -0.252687
C4    C     C_R   0.449856 0.167795 0.456987 -0.252999
C5    C     C_R   0.450864 0.748122 0.457725 0.022161
C6    C     C_R   0.549177 0.251847 0.542210 0.022213
C7    C     C_R   0.549141 0.747981 0.542273 0.024436
C8    C     C_R   0.450785 0.252051 0.457772 0.024949
C9    C     C_R   0.500003 0.875559 0.499985 0.152468
C10   C     C_R   0.499948 0.124441 0.499967 0.152746
C11   C     C_1   0.499979 0.963415 0.499974 -0.031702
C12   C     C_R   0.647046 0.499981 0.499038 0.845862
C13   C     C_1   0.499953 0.036585 0.499961 -0.031687
C14   C     C_R   0.499959 0.500020 0.365774 0.817839
C15   C     C_R   0.500045 0.499979 0.634248 0.820645
C16   C     C_R   0.564508 0.529353 0.254814 -0.028219
C17   C     C_R   0.436322 0.468768 0.745284 -0.027921
C18   C     C_R   0.563797 0.531172 0.745487 -0.023658
C19   C     C_R   0.435424 0.470633 0.254602 -0.024878
C20   C     C_R   0.563404 0.529217 0.182396 -0.114243
C21   C     C_R   0.437465 0.468844 0.817703 -0.114007
C22   C     C_R   0.562706 0.530985 0.817909 -0.113570
C23   C     C_R   0.729616 0.499989 0.490746 -0.050634
C24   C     C_R   0.436530 0.470751 0.182182 -0.113817
C25   C     C_R   0.499970 0.499982 0.146040 -0.022136
C26   C     C_R   0.500097 0.499882 0.854057 -0.022282
C27   C     C_R   0.499949 0.500043 0.290749 -0.195929
C28   C     C_R   0.500065 0.499950 0.709314 -0.198122
C29   C     C_R   0.500081 0.499877 0.929929 0.311204
C30   C     C_R   0.500005 0.499941 0.070173 0.311040
C31   C     C_R   0.846978 0.572543 0.471498 -0.131320
C32   C     C_R   0.152996 0.427535 0.470652 -0.131481
C33   C     C_R   0.152552 0.572702 0.473025 -0.147613
C34   C     C_R   0.270388 0.500027 0.490277 -0.049290
C35   C     C_R   0.847361 0.427365 0.473394 -0.147114
C36   C     C_R   0.768873 0.572686 0.483658 -0.177457
C37   C     C_R   0.231157 0.427356 0.482822 -0.177919
C38   C     C_R   0.230718 0.572761 0.485181 -0.189364
C39   C     C_R   0.769249 0.427271 0.485542 -0.187669
C40   C     C_2   0.634071 0.558192 0.291986 0.420357
C41   C     C_2   0.367448 0.438112 0.708174 0.420483
C42   C     C_2   0.632549 0.562106 0.708586 0.401224
C43   C     C_2   0.365952 0.441581 0.291554 0.402284
C44   C     C_R   0.885668 0.499939 0.466308 0.157443
C45   C     C_R   0.114231 0.500150 0.465777 0.157746
C46   C     C_1   0.965976 0.500009 0.460668 -0.048154
C47   C     C_1   0.033868 0.500076 0.460494 -0.048280
C48   C     C_R   0.449963 0.832374 0.456948 -0.256414
H1    H     H_    0.612614 0.551304 0.154239 0.198546
H2    H     H_    0.260747 0.370580 0.486105 0.159717
H3    H     H_    0.259958 0.629496 0.490378 0.158686
H4    H     H_    0.740008 0.370520 0.490569 0.159492
H5    H     H_    0.410455 0.863489 0.422968 0.146729
H6    H     H_    0.589598 0.136454 0.576891 0.147120
H7    H     H_    0.589547 0.863244 0.577014 0.149644
H8    H     H_    0.410297 0.136812 0.423045 0.148795
H9    H     H_    0.412104 0.715368 0.424393 0.128867
H10   H     H_    0.587982 0.284574 0.575516 0.129658
H11   H     H_    0.587881 0.715110 0.575632 0.131350
H12   H     H_    0.388882 0.445292 0.845863 0.198618
H13   H     H_    0.412001 0.284948 0.424473 0.129132
H14   H     H_    0.638585 0.553944 0.348044 0.071334
H15   H     H_    0.362301 0.443231 0.652206 0.071693
H16   H     H_    0.637590 0.557257 0.652617 0.064320
H17   H     H_    0.361473 0.445729 0.347598 0.064274
H18   H     H_    0.611280 0.554552 0.846233 0.198614
H19   H     H_    0.387346 0.448604 0.153855 0.198530
H20   H     H_    0.877300 0.628783 0.467041 0.140623
H21   H     H_    0.122679 0.371306 0.466027 0.140273
H22   H     H_    0.121881 0.628933 0.470255 0.139966
H23   H     H_    0.877987 0.371138 0.470417 0.140217
H24   H     H_    0.739333 0.629454 0.487157 0.161455
N1    N     N_R   0.440012 0.469290 0.034394 -0.162391
N2    N     N_R   0.560075 0.530525 0.965710 -0.162378
N3    N     N_R   0.440052 0.469256 0.965484 -0.162099
N4    N     N_R   0.560038 0.530553 0.034620 -0.162140
N5    N     N_R   0.500000 0.707230 0.500000 -0.092675
N6    N     N_R   0.500000 0.292770 0.500000 -0.092425
O1    O     O_R   0.389110 0.566570 0.500000 -0.618511
O2    O     O_2   0.314938 0.406893 0.739905 -0.555776
O3    O     O_2   0.685066 0.593294 0.740494 -0.558336
O4    O     O_2   0.312230 0.412749 0.259616 -0.558805
O5    O     O_R   0.610890 0.433430 0.500000 -0.618892
O6    O     O_R   0.610890 0.566570 0.500000 -0.631224
O7    O     O_R   0.389110 0.433430 0.500000 -0.630792
O8    O     O_R   0.499990 0.566560 0.398140 -0.616052
O9    O     O_R   0.500010 0.433440 0.601860 -0.614944
O10   O     O_R   0.500010 0.566560 0.601860 -0.613059
O11   O     O_R   0.499990 0.433440 0.398140 -0.614177
O12   O     O_2   0.687847 0.586911 0.260215 -0.556782
Zn1   Zn    Zn3+2 0.500000 0.588860 0.500000 0.949231
Zn2   Zn    Zn3+2 0.500000 0.411140 0.500000 0.949387

loop_
_geom_bond_atom_site_label_1
_geom_bond_atom_site_label_2
_ccdc_geom_bond_type
C21   C26   A    
C34   C37   A    
C33   C45   A    
C32   C45   A    
C6    H10   S    
C4    C8    A    
C41   O2    D    
O5    Zn2   S    
C12   C23   S    
N2    N4    A    
C3    C7    A    
O8    Zn1   S    
C18   C42   S    
C6    N6    A    
C20   C25   A    
C40   H14   S    
C31   H20   S    
C12   O6    A    
C22   H18   S    
C24   H19   S    
C3    H7    S    
C44   C46   S    
O6    Zn1   S    
C14   C27   S    
C19   C27   A    
O1    Zn1   S    
C16   C20   A    
C8    H13   S    
C7    N5    A    
C16   C27   A    
C39   H4    S    
C35   H23   S    
C34   C38   A    
O9    Zn2   S    
C4    H8    S    
C8    N6    A    
N1    N3    A    
C2    C6    A    
C42   O3    D    
C7    H11   S    
O7    Zn2   S    
C19   C43   S    
C1    C34   S    
C45   C47   S    
C1    O7    A    
C48   H5    S    
C5    C48   A    
C31   C44   A    
C18   C28   A    
C24   C25   A    
C14   O8    A    
C21   H12   S    
C2    H6    S    
C30   N1    A    
C38   H3    S    
N6    Zn2   S    
C17   C21   A    
C12   O5    A    
C35   C39   A    
C14   O11   A    
C20   H1    S    
C3    C9    A    
C30   N4    A    
O10   Zn1   S    
C43   H17   S    
C32   C37   A    
O11   Zn2   S    
C35   C44   A    
C9    C11   S    
C33   H22   S    
C16   C40   S    
C1    O1    A    
C41   H15   S    
C5    N5    A    
C2    C10   A    
C42   H16   S    
C9    C48   A    
C15   O9    A    
C25   C30   S    
C46   C47   T    
N5    Zn1   S    
C18   C22   A    
C17   C28   A    
C10   C13   S    
C32   H21   S    
C29   N3    A    
C33   C38   A    
C5    H9    S    
C19   C24   A    
C29   N2    A    
C37   H2    S    
C11   C13   T    
C15   C28   S    
C23   C39   A    
C17   C41   S    
C26   C29   S    
C23   C36   A    
C22   C26   A    
C43   O4    D    
C31   C36   A    
C40   O12   D    
C4    C10   A    
C36   H24   S    
C15   O10   A    
