data_mof_unit_22641.cif
_audit_creation_date              2012-12-11T14:51:48-0500
_audit_creation_method            fapswitch 2.2
_symmetry_space_group_name_H-M    P1
_symmetry_Int_Tables_number       1
_space_group_crystal_system       triclinic
_cell_length_a                    6.936098
_cell_length_b                    16.83247
_cell_length_c                    16.811728
_cell_angle_alpha                 101.420697
_cell_angle_beta                  90.488197
_cell_angle_gamma                 90.011246
_cell_volume                      1923.85983335

loop_
_atom_site_label
_atom_site_type_symbol
_atom_type_description
_atom_site_fract_x
_atom_site_fract_y
_atom_site_fract_z
_atom_type_partial_charge
O1    O     O_R   0.506340 0.439070 0.579550 -0.546294
O2    O     O_R   0.170010 0.404890 0.412100 -0.532001
O3    O     O_R   0.005010 0.560930 0.420450 -0.534563
C1    C     C_R   0.339655 0.381651 0.383153 0.717231
O4    O     O_R   0.176280 0.429360 0.578400 -0.544398
O5    O     O_R   0.011320 0.585570 0.587940 -0.535790
C2    C     C_R   0.348896 0.412110 0.603883 0.693847
O6    O     O_R   0.500030 0.414430 0.412060 -0.542378
O7    O     O_3   0.340950 0.551220 0.502940 -0.365873
V1    V     V_3+5 0.064020 0.490500 0.499460 1.424109
O8    O     O_R   0.681910 0.595110 0.587900 -0.542786
C3    C     C_R   0.850722 0.615874 0.619151 0.687022
O9    O     O_R   0.675640 0.570640 0.421600 -0.538941
C4    C     C_R   0.845389 0.585892 0.394228 0.714081
V2    V     V_3+5 0.564670 0.509500 0.500540 1.413259
O10   O     O_3   0.837610 0.448780 0.497060 -0.372443
C5    C     C_R   0.896840 0.862684 0.168197 -0.069822
C6    C     C_R   0.868132 0.635832 0.330570 -0.073357
C7    C     C_R   0.067983 0.669630 0.222214 -0.194932
C8    C     C_R   0.022782 0.618579 0.275833 -0.146259
C9    C     C_R   0.756169 0.705207 0.329079 -0.241211
C10   C     C_R   0.802889 0.757720 0.275761 0.157013
C11   C     C_R   0.960920 0.740145 0.222159 0.150199
C12   C     C_R   0.008004 0.792903 0.169075 -0.220584
C13   C     C_R   0.741661 0.879590 0.222669 -0.165560
C14   C     C_R   0.695728 0.828178 0.275762 -0.189460
H1    H     H_    0.125666 0.778142 0.126689 0.122721
H2    H     H_    0.652766 0.932646 0.223338 0.118866
H3    H     H_    0.188780 0.654465 0.181584 0.119888
H4    H     H_    0.574639 0.843192 0.316253 0.118227
H5    H     H_    0.111856 0.565620 0.275430 0.148420
H6    H     H_    0.638445 0.720033 0.371409 0.118500
C15   C     C_3   0.717682 0.793238 0.758226 -0.216683
C16   C     C_3   0.846153 0.774042 0.681427 -0.116811
H7    H     H_    0.815964 0.793981 0.623458 0.109804
H8    H     H_    0.583186 0.829608 0.763101 0.123051
C17   C     C_3   0.862884 0.684875 0.691501 -0.100425
C18   C     C_3   0.734055 0.704176 0.767960 -0.030613
C19   C     C_3   0.917846 0.725892 0.819932 0.484537
C20   C     C_3   0.047610 0.706487 0.744584 -0.189153
C21   C     C_3   0.029494 0.796075 0.735041 -0.185567
C22   C     C_3   0.901027 0.813979 0.810837 -0.083426
H9    H     H_    0.181727 0.670049 0.739823 0.140810
H10   H     H_    0.149933 0.834852 0.721950 0.117315
C23   C     C_3   0.553987 0.285230 0.271624 -0.161165
C24   C     C_3   0.504380 0.195291 0.271418 -0.119356
H11   H     H_    0.605467 0.150307 0.288630 0.105958
H12   H     H_    0.695911 0.314088 0.289689 0.148728
C25   C     C_3   0.408072 0.188884 0.187475 -0.065714
C26   C     C_3   0.458200 0.278212 0.186748 -0.220542
C27   C     C_3   0.264407 0.303238 0.228656 0.520914
C28   C     C_3   0.211336 0.214338 0.228389 -0.181292
C29   C     C_3   0.308992 0.221926 0.312950 -0.209159
C30   C     C_3   0.358129 0.311136 0.312480 -0.070192
H13   H     H_    0.519394 0.301346 0.134900 0.107330
H14   H     H_    0.069539 0.185183 0.210785 0.115697
H15   H     H_    0.247796 0.199175 0.365015 0.120165
C31   C     C_R   0.387432 0.136953 0.832086 -0.070833
C32   C     C_R   0.382714 0.356436 0.661812 -0.075084
C33   C     C_R   0.616668 0.300212 0.746314 -0.215620
C34   C     C_R   0.570267 0.353610 0.695589 -0.175323
C35   C     C_R   0.243425 0.301990 0.679130 -0.253426
C36   C     C_R   0.291795 0.246046 0.728797 0.164475
C37   C     C_R   0.479278 0.245753 0.763375 0.166609
C38   C     C_R   0.526235 0.191499 0.814841 -0.252377
C39   C     C_R   0.203816 0.135761 0.794219 -0.160187
C40   C     C_R   0.156432 0.189705 0.743961 -0.210618
H16   H     H_    0.667872 0.193343 0.842941 0.121920
H17   H     H_    0.092995 0.093763 0.804721 0.129740
H18   H     H_    0.761019 0.301279 0.771710 0.118063
H19   H     H_    0.013101 0.187582 0.717441 0.119137
H20   H     H_    0.683560 0.393904 0.683817 0.132187
H21   H     H_    0.100321 0.301681 0.652636 0.122679
O11   O     O_R   0.266070 0.085680 0.087850 -0.540838
O12   O     O_R   0.590090 0.070660 0.921580 -0.542788
O13   O     O_R   0.754780 0.914400 0.912080 -0.544576
C41   C     C_R   0.418181 0.085643 0.894091 0.691415
O14   O     O_R   0.596110 0.095130 0.087880 -0.542160
O15   O     O_R   0.760850 0.939050 0.079570 -0.537387
C42   C     C_R   0.426450 0.118484 0.116727 0.695491
O16   O     O_R   0.260010 0.061030 0.920360 -0.543949
O17   O     O_3   0.425070 0.948840 0.997010 -0.367418
V3    V     V_3+5 0.702100 0.009490 0.000550 1.391510
O18   O     O_R   0.090200 0.929250 0.078500 -0.537506
C43   C     C_R   0.920257 0.913448 0.105309 0.721116
O19   O     O_R   0.084180 0.904770 0.912200 -0.536960
C44   C     C_R   0.915040 0.883736 0.881576 0.734190
V4    V     V_3+5 0.201420 0.990350 0.999580 1.408791
O20   O     O_3   0.928580 0.051150 0.002990 -0.374744
O21   O     O_3   0.961212 0.709426 0.897478 -0.564192
C45   C     C_3   0.940257 0.626270 0.897976 -0.259682
H22   H     H_    0.018845 0.613075 0.951346 0.153744
H23   H     H_    0.995958 0.586421 0.842032 0.135262
H24   H     H_    0.789679 0.611196 0.909089 0.170704
O22   O     O_3   0.139155 0.363423 0.210595 -0.564465
C46   C     C_3   0.057251 0.336922 0.132922 -0.285421
H25   H     H_    0.958726 0.284652 0.132111 0.140573
H26   H     H_    0.169694 0.321309 0.085589 0.132707
H27   H     H_    0.969805 0.387002 0.117449 0.165207
C47   C     C_R   0.575709 0.660824 0.802313 0.063324
C48   C     C_R   0.489714 0.700766 0.874808 -0.086132
C49   C     C_R   0.394517 0.656419 0.924380 -0.065271
C50   C     C_R   0.376719 0.572466 0.900278 -0.142359
C51   C     C_R   0.446533 0.533468 0.825211 -0.159058
C52   C     C_R   0.548047 0.577091 0.776360 -0.162964
H28   H     H_    0.511617 0.765125 0.896642 0.125331
H29   H     H_    0.338516 0.686902 0.982330 0.119211
H30   H     H_    0.307160 0.537509 0.939438 0.104238
H31   H     H_    0.429066 0.468827 0.807421 0.139202
H32   H     H_    0.616866 0.544649 0.722249 0.113572

loop_
_geom_bond_atom_site_label_1
_geom_bond_atom_site_label_2
_ccdc_geom_bond_type
C52   H32   S    
C48   C49   A    
C16   C17   S    
C21   C22   S    
C4    C6    S    
O2    C1    A    
C7    C8    A    
C12   H1    S    
C1    O6    A    
C29   C30   S    
C13   H2    S    
C24   C25   S    
C47   C52   A    
C17   C18   S    
C5    C43   S    
C15   C22   S    
C17   C20   S    
O5    C3    A    
C51   H31   S    
O14   C42   A    
C39   H17   S    
V2    O10   S    
C6    C9    A    
C46   H27   S    
C15   H8    S    
C16   H7    S    
C3    C17   S    
C31   C41   S    
O8    V2    S    
O14   V3    S    
C31   C39   A    
C20   H9    S    
O22   C46   S    
C46   H26   S    
C11   C12   A    
C35   H21   S    
C50   H30   S    
O1    V2    S    
C41   O16   A    
O7    V1    S    
C19   O21   S    
C40   H19   S    
C25   C28   S    
C39   C40   A    
O11   C42   A    
O9    C4    A    
C16   C21   S    
O13   V3    S    
C2    C32   S    
C51   C52   A    
C26   C27   S    
C19   C22   S    
V3    O20   S    
C9    H6    S    
C36   C40   A    
C32   C34   A    
C5    C12   A    
O19   V4    S    
C27   C28   S    
O18   C43   A    
C18   C47   S    
C45   H22   S    
O4    C2    A    
C29   H15   S    
O19   C44   A    
C13   C14   A    
C23   C24   S    
O17   V3    S    
C33   C34   A    
C7    C11   A    
C35   C36   A    
C45   H23   S    
C31   C38   A    
C33   H18   S    
C38   H16   S    
C46   H25   S    
C15   C16   S    
C49   H29   S    
O12   C41   A    
O13   C44   A    
O3    C4    A    
C34   H20   S    
C20   C21   S    
C23   C30   S    
C14   H4    S    
O6    V2    S    
O9    V2    S    
C21   H10   S    
O2    V1    S    
O15   C43   A    
C28   C29   S    
C23   H12   S    
C48   H28   S    
C24   H11   S    
C32   C35   A    
C1    C30   S    
O1    C2    A    
O18   V4    S    
O5    V1    S    
O8    C3    A    
C26   H13   S    
C25   C42   S    
C33   C37   A    
C27   C30   S    
C5    C13   A    
C37   C38   A    
O7    V2    S    
O4    V1    S    
O3    V1    S    
V1    O10   S    
C45   H24   S    
O15   V3    S    
O12   V3    S    
O21   C45   S    
C18   C19   S    
C23   C26   S    
O17   V4    S    
C24   C29   S    
C47   C48   A    
C6    C8    A    
C49   C50   A    
O16   V4    S    
C36   C37   A    
C19   C20   S    
V4    O20   S    
C25   C26   S    
C10   C14   A    
C50   C51   A    
C10   C11   A    
C15   C18   S    
C22   C44   S    
O11   V4    S    
C9    C10   A    
C28   H14   S    
C27   O22   S    
C8    H5    S    
C7    H3    S    
