data_mof_unit_36325.cif
_audit_creation_date              2012-12-11T14:15:42-0500
_audit_creation_method            fapswitch 2.2
_symmetry_space_group_name_H-M    P1
_symmetry_Int_Tables_number       1
_space_group_crystal_system       triclinic
_cell_length_a                    11.13761
_cell_length_b                    12.725022
_cell_length_c                    23.588923
_cell_angle_alpha                 89.95324
_cell_angle_beta                  96.550654
_cell_angle_gamma                 68.681259
_cell_volume                      3090.84136748

loop_
_atom_site_label
_atom_site_type_symbol
_atom_type_description
_atom_site_fract_x
_atom_site_fract_y
_atom_site_fract_z
_atom_type_partial_charge
C1    C     C_R   0.149449 0.617027 0.428873 0.538548
C2    C     C_2   0.226434 0.194453 0.234066 0.278399
C3    C     C_2   0.128670 0.185556 0.259706 -0.083439
C4    C     C_R   0.749733 0.603863 0.403685 0.561564
C5    C     C_1   0.119808 0.208705 0.319350 -0.015433
C6    C     C_1   0.228015 0.175135 0.173361 -0.078377
C7    C     C_1   0.112356 0.235850 0.368183 -0.007989
C8    C     C_1   0.168931 0.748553 0.123897 0.010080
C9    C     C_2   0.149541 0.681353 0.227930 -0.111565
C10   C     C_2   0.236013 0.682245 0.272328 -0.090399
C11   C     C_1   0.218016 0.655977 0.329676 -0.021650
C12   C     C_R   0.651822 0.560855 0.310490 0.231979
C13   C     C_1   0.158997 0.717070 0.170910 -0.036737
C14   C     C_1   0.194134 0.636602 0.376411 0.014646
C15   C     C_1   0.620349 0.761647 0.863032 -0.000575
C16   C     C_R   0.101010 0.282149 0.423630 0.537636
C17   C     C_2   0.681993 0.730691 0.757348 0.115203
C18   C     C_2   0.610842 0.692688 0.718563 -0.111823
C19   C     C_1   0.648214 0.664671 0.662079 -0.014365
C20   C     C_1   0.650293 0.747905 0.815189 -0.014613
C21   C     C_1   0.688086 0.638040 0.616641 0.022220
C22   C     C_R   0.198230 0.185859 0.854707 0.029589
C23   C     C_R   0.704158 0.732715 0.317706 0.212117
C24   C     C_R   0.108186 0.224675 0.641103 0.002334
C25   C     C_R   0.001339 0.181115 0.716971 -0.100788
C26   C     C_R   0.007101 0.194983 0.658724 0.075773
C27   C     C_R   0.207838 0.228371 0.681596 -0.145559
C28   C     C_R   0.151102 0.615212 0.590413 0.566430
C29   C     C_R   0.198888 0.220189 0.739058 0.020647
C30   C     C_R   0.094603 0.196958 0.757886 0.029456
C31   C     C_R   0.090142 0.186260 0.816938 0.057076
C32   C     C_R   0.289428 0.225371 0.835196 -0.117357
C33   C     C_R   0.291257 0.240139 0.777696 -0.137753
C34   C     C_R   0.698102 0.740557 0.257884 0.032816
C35   C     C_R   0.153295 0.771281 0.844794 0.049973
C36   C     C_R   0.198716 0.626960 0.648733 0.022254
C37   C     C_R   0.245136 0.542286 0.744030 -0.138655
C38   C     C_R   0.240165 0.531071 0.685886 -0.180901
C39   C     C_R   0.177450 0.733877 0.669864 0.266840
C40   C     C_R   0.749234 0.601976 0.565835 0.544267
C41   C     C_R   0.175978 0.746197 0.728646 0.025352
C42   C     C_R   0.211116 0.649324 0.766227 0.015333
C43   C     C_R   0.206241 0.661954 0.825044 0.263260
C44   C     C_R   0.116155 0.866099 0.807050 -0.166776
C45   C     C_R   0.671076 0.656053 0.225716 -0.082008
C46   C     C_R   0.130615 0.853928 0.749885 -0.118590
C47   C     C_R   0.265517 0.109836 0.069146 0.550898
C48   C     C_R   0.601269 0.774299 0.080753 0.554928
C49   C     C_R   0.189895 0.787625 0.069910 0.551399
C50   C     C_R   0.240001 0.117553 0.908261 0.551260
C51   C     C_R   0.572306 0.777485 0.917662 0.545590
C52   C     C_R   0.099981 0.277219 0.584966 0.549170
C53   C     C_R   0.167905 0.790698 0.905168 0.581716
C54   C     C_R   0.670040 0.753390 0.138504 -0.034895
C55   C     C_R   0.693468 0.636894 0.343994 -0.030495
C56   C     C_R   0.675742 0.656475 0.167582 -0.114142
C57   C     C_R   0.633728 0.575123 0.251306 0.064153
C58   C     C_3   0.382205 0.520178 0.872926 -0.002284
C59   C     C_3   0.422910 0.454648 0.930305 -0.326661
C60   C     C_3   0.257040 0.834640 0.615928 -0.018253
C61   C     C_3   0.221097 0.929964 0.570841 -0.341918
C62   C     C_3   0.844549 0.940670 0.238936 -0.007245
C63   C     C_3   0.920664 0.974777 0.288404 -0.355274
C64   C     C_3   0.730912 0.369794 0.332716 0.030017
C65   C     C_3   0.731377 0.286760 0.379676 -0.336467
C66   C     C_3   0.621508 0.888715 0.368729 0.026818
C67   C     C_R   0.695133 0.838958 0.168870 -0.150440
C68   C     C_3   0.657748 0.967351 0.409914 -0.341219
C69   C     C_3   0.438853 0.189032 0.240149 0.006384
C70   C     C_3   0.544381 0.206876 0.280485 -0.349118
C71   C     C_R   0.718666 0.829680 0.228965 0.276597
C72   C     C_1   0.240741 0.152158 0.124406 -0.028841
Cr1   Cr    Cr6+3 0.189770 0.415650 0.511620 1.039351
Cr2   Cr    Cr6+3 0.930400 0.667320 0.496770 1.069460
Cr3   Cr    Cr6+3 0.879870 0.417010 0.491650 1.035365
Cr4   Cr    Cr6+3 0.149500 0.973980 0.985330 1.062551
Cr5   Cr    Cr6+3 0.457000 0.976510 0.994660 1.034248
Cr6   Cr    Cr6+3 0.411170 0.724270 0.995270 1.024419
H1    H     H_    0.667214 0.586531 0.143725 0.186985
H2    H     H_    0.265350 0.467648 0.770832 0.159475
H3    H     H_    0.102911 0.929135 0.722288 0.182025
H4    H     H_    0.256976 0.447774 0.670015 0.147718
H5    H     H_    0.051935 0.164668 0.235518 0.070497
H6    H     H_    0.317246 0.707230 0.266112 0.152522
H7    H     H_    0.428975 0.584147 0.873358 0.160235
H8    H     H_    0.421125 0.459886 0.839647 0.117593
H9    H     H_    0.380526 0.388045 0.930663 0.150765
H10   H     H_    0.530408 0.414230 0.937909 0.110022
H11   H     H_    0.388896 0.512287 0.965279 0.180456
H12   H     H_    0.067612 0.657602 0.234540 0.136976
H13   H     H_    0.316630 0.755139 0.596981 0.116268
H14   H     H_    0.316388 0.852944 0.653150 0.128601
H15   H     H_    0.164162 0.011147 0.588517 0.174973
H16   H     H_    0.310598 0.936265 0.557285 0.097877
H17   H     H_    0.162287 0.913563 0.533049 0.172061
H18   H     H_    0.801093 0.012933 0.207124 0.126451
H19   H     H_    0.914642 0.868519 0.218822 0.127386
H20   H     H_    0.964325 0.903874 0.320939 0.187052
H21   H     H_    0.999547 0.996252 0.272704 0.090368
H22   H     H_    0.855359 0.049365 0.308401 0.139885
H23   H     H_    0.527382 0.676360 0.730215 0.093316
H24   H     H_    0.827391 0.378931 0.337919 0.140075
H25   H     H_    0.720310 0.332599 0.290890 0.140796
H26   H     H_    0.633519 0.283296 0.379891 0.149375
H27   H     H_    0.801743 0.201283 0.373049 0.069398
H28   H     H_    0.759524 0.312479 0.422413 0.203264
H29   H     H_    0.568739 0.845367 0.391414 0.101756
H30   H     H_    0.555774 0.940278 0.331493 0.155032
H31   H     H_    0.714505 0.009352 0.389439 0.158713
H32   H     H_    0.568406 0.032799 0.422298 0.102845
H33   H     H_    0.717448 0.918490 0.448913 0.165595
H34   H     H_    0.368528 0.233160 0.863976 0.141432
H35   H     H_    0.423165 0.242839 0.200701 0.167934
H36   H     H_    0.472931 0.098099 0.229902 0.148495
H37   H     H_    0.563857 0.153331 0.320081 0.153070
H38   H     H_    0.634648 0.184082 0.259851 0.113685
H39   H     H_    0.511953 0.297067 0.291135 0.209338
H40   H     H_    0.923833 0.157643 0.729482 0.172626
H41   H     H_    0.368667 0.262126 0.763434 0.110403
H42   H     H_    0.288428 0.247510 0.668816 0.136853
H43   H     H_    0.690057 0.914940 0.146362 0.125258
H44   H     H_    0.083191 0.950572 0.822368 0.173216
I1    I     I_    0.843991 0.766500 0.737322 -0.316549
I2    I     I_    0.917804 0.184484 0.848762 -0.378246
I3    I     I_    0.861579 0.166324 0.601288 -0.347173
I4    I     I_    0.534826 0.482147 0.202127 -0.446176
O1    O     O_R   0.196340 0.303200 0.448500 -0.490951
O2    O     O_R   0.555390 0.700940 0.062700 -0.506476
O3    O     O_R   0.295020 0.731920 0.049950 -0.483014
O4    O     O_R   0.199310 0.519670 0.454880 -0.488204
O5    O     O_R   0.094290 0.884230 0.921550 -0.500759
O6    O     O_R   0.168980 0.069410 0.926940 -0.473502
O7    O     O_R   0.358400 0.089990 0.927950 -0.524177
O8    O     O_R   0.544850 0.873850 0.939920 -0.483947
O9    O     O_R   0.536020 0.701900 0.936430 -0.532565
O10   O     O_R   0.277070 0.732810 0.932890 -0.499687
O11   O     O_3   0.339220 0.891590 0.991750 -0.262183
O12   O     O_R   0.811960 0.658090 0.547150 -0.491639
O13   O     O_R   0.045660 0.691380 0.441680 -0.498729
O14   O     O_R   0.811930 0.659460 0.430950 -0.464616
O15   O     O_R   0.757900 0.507620 0.421760 -0.494946
O16   O     O_R   0.988630 0.322990 0.439840 -0.527634
O17   O     O_R   0.196380 0.301720 0.573850 -0.528154
O18   O     O_R   0.199350 0.518300 0.571080 -0.522737
O19   O     O_R   0.045700 0.689900 0.567030 -0.450278
O20   O     O_3   0.244664 0.569026 0.863149 -0.554866
O21   O     O_3   0.142490 0.827424 0.632782 -0.531813
O22   O     O_3   0.744504 0.913744 0.259744 -0.534685
O23   O     O_R   0.757930 0.506140 0.547110 -0.494962
O24   O     O_3   0.626061 0.473943 0.335841 -0.515794
O25   O     O_3   0.735961 0.810909 0.350673 -0.487645
O26   O     O_3   0.324026 0.220265 0.266713 -0.540396
O27   O     O_R   0.988670 0.321620 0.556040 -0.463943
O28   O     O_3   0.000020 0.499990 0.500010 -0.264331
O29   O     O_R   0.113660 0.883270 0.047820 -0.509722
O30   O     O_R   0.186930 0.068530 0.043990 -0.490174
O31   O     O_R   0.377770 0.089040 0.054220 -0.512922
O32   O     O_R   0.562800 0.872960 0.056970 -0.500577

loop_
_geom_bond_atom_site_label_1
_geom_bond_atom_site_label_2
_ccdc_geom_bond_type
C24   C52   S    
C64   H25   S    
C66   C68   S    
Cr6   O11   S    
C8    C13   T    
C62   H18   S    
C35   C53   S    
C41   C42   A    
Cr2   O19   S    
C16   O16   A    
C24   C27   A    
C66   H29   S    
Cr6   O2    S    
C25   H40   S    
C39   C41   A    
Cr4   O11   S    
C64   H24   S    
Cr2   O12   S    
C69   H35   S    
C28   O19   A    
C37   C38   A    
C56   H1    S    
C22   C32   A    
C19   C21   T    
Cr6   O3    S    
Cr5   O11   S    
C31   I2    S    
C63   H20   S    
Cr1   O17   S    
C30   C31   A    
Cr4   O5    S    
C61   H15   S    
C27   C29   A    
C47   O30   A    
C70   H39   S    
C62   H19   S    
C67   H43   S    
C17   C20   S    
Cr2   O28   S    
C18   C19   S    
C59   H11   S    
C10   H6    S    
C37   C42   A    
C9    C13   S    
C59   H10   S    
C63   H21   S    
Cr3   O15   S    
C51   O9    A    
C17   I1    S    
C29   C33   A    
C40   O12   A    
Cr1   O28   S    
C41   C46   A    
C28   O18   A    
C60   O21   S    
C15   C51   S    
C29   C30   A    
C35   C43   A    
C9    C10   D    
C1    O13   A    
Cr5   O32   S    
C22   C50   S    
C71   O22   S    
C62   O22   S    
C38   H4    S    
C2    C6    S    
C53   O10   A    
Cr5   O7    S    
C58   H8    S    
C65   H27   S    
C44   C46   A    
C18   H23   S    
C11   C14   T    
C60   H14   S    
C2    O26   S    
C15   C20   T    
C37   H2    S    
C54   C56   A    
C69   H36   S    
C52   O17   A    
C22   C31   A    
C12   O24   S    
C45   C56   A    
C1    O4    A    
C66   H30   S    
C57   I4    S    
C5    C7    T    
C61   H16   S    
C54   C67   A    
C63   H22   S    
C70   H38   S    
C25   C26   A    
C27   H42   S    
C48   O32   A    
Cr4   O30   S    
C64   O24   S    
C60   C61   S    
C26   I3    S    
C48   C54   S    
C62   C63   S    
Cr3   O16   S    
C4    O14   A    
C46   H3    S    
Cr3   O27   S    
C23   C34   A    
C45   C57   A    
C61   H17   S    
C17   C18   D    
C6    C72   T    
C34   C45   A    
C68   H32   S    
C35   C44   A    
C50   O6    A    
C53   O5    A    
C12   C57   A    
C7    C16   S    
C33   H41   S    
C4    C55   S    
C3    H5    S    
Cr6   O9    S    
C58   C59   S    
Cr5   O8    S    
C58   H7    S    
C65   H28   S    
C4    O15   A    
C47   O31   A    
C60   H13   S    
C25   C30   A    
C23   O25   S    
Cr1   O4    S    
C32   H34   S    
C69   O26   S    
C49   O29   A    
C36   C39   A    
C24   C26   A    
C3    C5    S    
C50   O7    A    
C9    H12   S    
C58   O20   S    
C23   C55   A    
C70   H37   S    
Cr2   O13   S    
Cr4   O29   S    
C64   C65   S    
C36   C38   A    
C2    C3    D    
C52   O27   A    
C66   O25   S    
C43   O20   S    
Cr1   O1    S    
C32   C33   A    
Cr4   O6    S    
Cr3   O28   S    
C21   C40   S    
Cr2   O14   S    
C48   O2    A    
Cr3   O23   S    
C49   O3    A    
C34   C71   A    
C44   H44   S    
C51   O8    A    
C40   O23   A    
C67   C71   A    
C68   H31   S    
C69   C70   S    
C16   O1    A    
C59   H9    S    
C47   C72   S    
C12   C55   A    
C10   C11   S    
C28   C36   S    
C42   C43   A    
C39   O21   S    
C1    C14   S    
C65   H26   S    
Cr6   O10   S    
C8    C49   S    
C68   H33   S    
Cr5   O31   S    
Cr1   O18   S    
