data_mof_unit_13389.cif
_audit_creation_date              2012-12-11T17:02:15-0500
_audit_creation_method            fapswitch 2.2
_symmetry_space_group_name_H-M    P1
_symmetry_Int_Tables_number       1
_space_group_crystal_system       triclinic
_cell_length_a                    21.671932
_cell_length_b                    7.061619
_cell_length_c                    14.903313
_cell_angle_alpha                 89.996637
_cell_angle_beta                  106.562822
_cell_angle_gamma                 89.997923
_cell_volume                      2186.15203375

loop_
_atom_site_label
_atom_site_type_symbol
_atom_type_description
_atom_site_fract_x
_atom_site_fract_y
_atom_site_fract_z
_atom_type_partial_charge
O1    O     O_R   0.585850 0.505770 0.002130 -0.539015
O2    O     O_R   0.414150 0.005770 0.997870 -0.539019
O3    O     O_R   0.467530 0.173560 0.861970 -0.539158
O4    O     O_R   0.532470 0.673560 0.138030 -0.539175
C1    C     C_R   0.456330 0.344457 0.825069 0.672910
C2    C     C_R   0.543673 0.844439 0.174932 0.672909
O5    O     O_R   0.588690 0.175900 0.993250 -0.541751
O6    O     O_R   0.411310 0.675900 0.006750 -0.541749
O7    O     O_R   0.536170 0.007950 0.130090 -0.536425
O8    O     O_R   0.463830 0.507950 0.869910 -0.536421
C3    C     C_R   0.615120 0.344817 0.997729 0.694934
C4    C     C_R   0.384882 0.844823 0.002282 0.694962
O9    O     O_3   0.482630 0.339970 0.044740 -0.372236
O10   O     O_3   0.517370 0.839970 0.955260 -0.372215
V1    V     V_3+5 0.503220 0.064200 0.991700 1.405643
V2    V     V_3+5 0.496780 0.564200 0.008300 1.405628
C5    C     C_R   0.275969 0.003623 0.955730 0.118091
C6    C     C_R   0.724035 0.503590 0.044305 0.118077
C7    C     C_R   0.315710 0.853170 0.998995 -0.140950
C8    C     C_R   0.684296 0.353154 0.001034 -0.140957
C9    C     C_R   0.286127 0.704023 0.034308 -0.189079
C10   C     C_R   0.713883 0.204019 0.965721 -0.189063
H1    H     H_    0.314145 0.582754 0.066818 0.134766
H2    H     H_    0.685868 0.082757 0.933214 0.134761
C11   C     C_R   0.220783 0.714427 0.032722 -0.169310
C12   C     C_R   0.779224 0.214435 0.967297 -0.169307
H3    H     H_    0.200645 0.600393 0.063902 0.126617
H4    H     H_    0.799364 0.100413 0.936114 0.126633
C13   C     C_R   0.183166 0.875492 0.996848 -0.106192
C14   C     C_R   0.816835 0.375497 0.003162 -0.106205
C15   C     C_R   0.211744 0.014948 0.955414 0.061449
C16   C     C_R   0.788257 0.514928 0.044606 0.061470
C17   C     C_3   0.214505 0.224196 0.968745 -0.400438
C18   C     C_3   0.785489 0.724185 0.031296 -0.400461
C19   C     C_3   0.284698 0.212834 0.968178 -0.026815
C20   C     C_3   0.715301 0.712813 0.031889 -0.026815
H5    H     H_    0.208926 0.265545 0.037965 0.142426
H6    H     H_    0.791054 0.765586 0.962073 0.142426
H7    H     H_    0.182105 0.299837 0.907910 0.183306
H8    H     H_    0.817897 0.799787 0.092129 0.183318
H9    H     H_    0.319710 0.251762 0.036032 0.139004
H10   H     H_    0.680279 0.751798 0.964049 0.139031
C21   C     C_R   0.929162 0.887822 0.722863 -0.036174
C22   C     C_R   0.070848 0.387732 0.277129 -0.036084
C23   C     C_R   0.571204 0.849314 0.276688 -0.027807
C24   C     C_R   0.428798 0.349423 0.723315 -0.027709
C25   C     C_R   0.937261 0.951197 0.567130 -0.177620
C26   C     C_R   0.062701 0.450278 0.432903 -0.177622
C27   C     C_R   0.967169 0.931094 0.662987 0.152793
C28   C     C_R   0.032806 0.430384 0.337032 0.152766
C29   C     C_R   0.862707 0.861441 0.686121 -0.262622
C30   C     C_R   0.137324 0.361746 0.313850 -0.262592
C31   C     C_R   0.831692 0.882155 0.589308 0.086380
C32   C     C_R   0.168322 0.382198 0.410678 0.086395
C33   C     C_R   0.870410 0.930278 0.530401 0.102388
C34   C     C_R   0.129568 0.429724 0.469618 0.102397
C35   C     C_R   0.763631 0.860200 0.549434 0.070911
C36   C     C_R   0.236394 0.360504 0.450540 0.070913
C37   C     C_R   0.735401 0.892912 0.451440 0.057609
C38   C     C_R   0.264598 0.392907 0.548562 0.057613
C39   C     C_R   0.776264 0.943935 0.396478 -0.188743
C40   C     C_R   0.223701 0.443411 0.603555 -0.188724
C41   C     C_R   0.842274 0.960046 0.435157 -0.192743
C42   C     C_R   0.157681 0.459238 0.564884 -0.192758
C43   C     C_R   0.723008 0.804189 0.603963 -0.191088
C44   C     C_R   0.277054 0.305014 0.395976 -0.191061
C45   C     C_R   0.657437 0.778290 0.564374 -0.207419
C46   C     C_R   0.342635 0.279288 0.435561 -0.207432
C47   C     C_R   0.629407 0.806731 0.469036 0.141726
C48   C     C_R   0.370641 0.307410 0.530927 0.141736
C49   C     C_R   0.667500 0.868178 0.411280 0.083982
C50   C     C_R   0.332508 0.368366 0.588717 0.083995
C51   C     C_R   0.563526 0.769078 0.430547 -0.167315
C52   C     C_R   0.436538 0.269935 0.569408 -0.167319
C53   C     C_R   0.535027 0.785831 0.334623 -0.171594
C54   C     C_R   0.465018 0.286409 0.665349 -0.171667
C55   C     C_R   0.636134 0.895992 0.314902 -0.220421
C56   C     C_R   0.363849 0.395900 0.685118 -0.220372
H11   H     H_    0.871622 0.997975 0.389871 0.121380
H12   H     H_    0.128307 0.496722 0.610197 0.121408
H13   H     H_    0.660995 0.946979 0.266791 0.106471
H14   H     H_    0.338958 0.446559 0.733253 0.106424
H15   H     H_    0.484867 0.747725 0.305359 0.106180
H16   H     H_    0.515197 0.248486 0.694599 0.106145
H17   H     H_    0.628487 0.732031 0.608824 0.122171
H18   H     H_    0.371615 0.233415 0.391082 0.122156
H19   H     H_    0.966351 0.986557 0.521066 0.125437
H20   H     H_    0.033583 0.485154 0.478994 0.125440
H21   H     H_    0.836432 0.833222 0.736077 0.100806
H22   H     H_    0.163621 0.333987 0.263873 0.100740
H23   H     H_    0.759085 0.970886 0.322520 0.122917
H24   H     H_    0.240860 0.470137 0.677532 0.122893
H25   H     H_    0.740378 0.774503 0.677695 0.120520
H26   H     H_    0.259706 0.275597 0.322217 0.120502
H27   H     H_    0.534482 0.720403 0.474370 0.118129
H28   H     H_    0.465614 0.221637 0.525558 0.118123
O11   O     O_R   0.036080 0.231270 0.130120 -0.539943
O12   O     O_R   0.963920 0.731270 0.869880 -0.539958
O13   O     O_R   0.911300 0.558970 0.006750 -0.541340
O14   O     O_R   0.088700 0.058970 0.993250 -0.541340
C57   C     C_R   0.884746 0.389760 0.001183 0.689862
C58   C     C_R   0.115254 0.889755 0.998820 0.689870
O15   O     O_R   0.032450 0.561140 0.138040 -0.537426
O16   O     O_R   0.967550 0.061140 0.861960 -0.537409
O17   O     O_R   0.085870 0.728910 0.002130 -0.541039
O18   O     O_R   0.914130 0.228910 0.997870 -0.541029
C59   C     C_R   0.044230 0.392682 0.175130 0.702175
C60   C     C_R   0.955771 0.892698 0.824868 0.702154
O19   O     O_3   0.017320 0.394650 0.955270 -0.372389
O20   O     O_3   0.982680 0.894650 0.044730 -0.372378
V3    V     V_3+5 0.996780 0.670490 0.008300 1.414961
V4    V     V_3+5 0.003220 0.170490 0.991700 1.414971
C61   C     C_3   0.039090 0.958803 0.698039 -0.786004
H29   H     H_    0.058775 0.932512 0.774224 0.191141
H30   H     H_    0.063279 0.859344 0.661194 0.205104
H31   H     H_    0.051327 0.106133 0.683398 0.210775
C62   C     C_3   0.960864 0.457630 0.302000 -0.786083
H32   H     H_    0.941207 0.431715 0.225780 0.191126
H33   H     H_    0.936755 0.357656 0.338716 0.205025
H34   H     H_    0.948500 0.604732 0.316816 0.210843
C63   C     C_3   0.297554 0.307234 0.883080 -0.740690
H35   H     H_    0.264022 0.253976 0.816810 0.202254
H36   H     H_    0.291759 0.462825 0.886518 0.212073
H37   H     H_    0.347530 0.276290 0.882760 0.216431
C64   C     C_3   0.702463 0.807144 0.117013 -0.740649
H38   H     H_    0.736031 0.753933 0.183269 0.202319
H39   H     H_    0.708213 0.962749 0.113554 0.212038
H40   H     H_    0.652506 0.776091 0.117386 0.216392

loop_
_geom_bond_atom_site_label_1
_geom_bond_atom_site_label_2
_ccdc_geom_bond_type
C44   C46   A    
C2    C23   S    
C28   C62   S    
C46   H18   S    
C20   H10   S    
C20   C64   S    
O1    C3    A    
O16   C60   A    
O2    C4    A    
C54   H16   S    
C2    O7    A    
C24   C54   A    
C25   C27   A    
C41   H11   S    
O5    C3    A    
C17   H7    S    
C52   C54   A    
C18   H8    S    
O15   V3    S    
C7    C9    A    
O19   V3    S    
C35   C37   A    
C38   C50   A    
C36   C38   A    
O12   C60   A    
C14   C57   S    
C58   O17   A    
C38   C40   A    
C39   C41   A    
O20   V3    S    
C63   H37   S    
C50   C56   A    
C17   C19   S    
C30   H22   S    
C36   C44   A    
C43   C45   A    
C33   C41   A    
C48   C52   A    
C64   H40   S    
C40   C42   A    
C26   H20   S    
C47   C51   A    
C18   C20   S    
C44   H26   S    
C61   H31   S    
C22   C30   A    
C26   C28   A    
O17   V3    S    
C25   C33   A    
C47   C49   A    
O6    V2    S    
C42   H12   S    
O14   C58   A    
C30   C32   A    
C31   C33   A    
C11   C13   A    
C32   C34   A    
C3    C8    S    
C45   H17   S    
C37   C39   A    
C53   H15   S    
C52   H28   S    
C19   C63   S    
O4    C2    A    
O19   V4    S    
C24   C56   A    
O11   V4    S    
C31   C35   A    
C21   C27   A    
O18   V4    S    
C48   C50   A    
C17   H5    S    
C40   H24   S    
C29   C31   A    
C16   C18   S    
O4    V2    S    
C56   H14   S    
C55   H13   S    
O6    C4    A    
O13   V3    S    
C15   C17   S    
C27   C61   S    
O1    V2    S    
O2    V1    S    
C63   H35   S    
O13   C57   A    
C8    C10   A    
C12   C14   A    
C9    H1    S    
C64   H38   S    
C5    C15   A    
C10   H2    S    
C62   H34   S    
C6    C16   A    
C51   C53   A    
C49   C55   A    
O3    V1    S    
O16   V4    S    
C61   H29   S    
C32   C36   A    
C22   C59   S    
C22   C28   A    
C57   O18   A    
C26   C34   A    
C9    C11   A    
O12   V3    S    
C18   H6    S    
C35   C43   A    
O3    C1    A    
O15   C59   A    
O14   V4    S    
C11   H3    S    
C1    C24   S    
C12   H4    S    
C23   C53   A    
C62   H33   S    
O7    V1    S    
C1    O8    A    
C13   C15   A    
O8    V2    S    
C62   H32   S    
C29   H21   S    
C14   C16   A    
C21   C29   A    
C34   C42   A    
C4    C7    S    
O5    V1    S    
C43   H25   S    
C5    C7    A    
C13   C58   S    
C6    C8    A    
C21   C60   S    
C19   H9    S    
O20   V4    S    
C63   H36   S    
O11   C59   A    
C46   C48   A    
C10   C12   A    
O9    V2    S    
C64   H39   S    
C51   H27   S    
O10   V1    S    
C23   C55   A    
C5    C19   S    
C45   C47   A    
C6    C20   S    
C39   H23   S    
C37   C49   A    
C61   H30   S    
C25   H19   S    
