data_mof_unit_30525.cif
_audit_creation_date              2012-12-11T15:34:50-0500
_audit_creation_method            fapswitch 2.2
_symmetry_space_group_name_H-M    P1
_symmetry_Int_Tables_number       1
_space_group_crystal_system       triclinic
_cell_length_a                    30.683487
_cell_length_b                    7.243707
_cell_length_c                    25.873783
_cell_angle_alpha                 89.831652
_cell_angle_beta                  111.844832
_cell_angle_gamma                 89.136885
_cell_volume                      5336.9980666

loop_
_atom_site_label
_atom_site_type_symbol
_atom_type_description
_atom_site_fract_x
_atom_site_fract_y
_atom_site_fract_z
_atom_type_partial_charge
O1    O     O_R   0.295360 0.592990 0.320420 -0.513088
O2    O     O_R   0.704640 0.407010 0.679580 -0.514330
O3    O     O_R   0.204640 0.092990 0.179580 -0.532558
O4    O     O_R   0.795360 0.907010 0.820420 -0.539297
O5    O     O_R   0.294060 0.265620 0.213230 -0.527008
O6    O     O_R   0.705940 0.734380 0.786770 -0.546820
O7    O     O_R   0.205940 0.765620 0.286770 -0.516735
O8    O     O_R   0.794060 0.234380 0.713230 -0.520347
C1    C     C_R   0.304133 0.431757 0.199772 0.788584
C2    C     C_R   0.696674 0.568222 0.801422 0.775401
C3    C     C_R   0.196206 0.932991 0.300691 0.793474
C4    C     C_R   0.803932 0.066888 0.699597 0.788616
O9    O     O_R   0.300850 0.263360 0.322080 -0.542470
O10   O     O_R   0.699150 0.736640 0.677920 -0.544036
O11   O     O_R   0.199150 0.763360 0.177920 -0.535237
O12   O     O_R   0.800850 0.236640 0.822080 -0.526491
O13   O     O_R   0.211480 0.091820 0.289210 -0.551355
O14   O     O_R   0.788520 0.908180 0.710790 -0.551132
O15   O     O_R   0.288520 0.591820 0.210790 -0.537587
O16   O     O_R   0.711480 0.408180 0.789210 -0.505513
C5    C     C_R   0.313642 0.430476 0.343034 0.743591
C6    C     C_R   0.686388 0.569520 0.656987 0.743170
C7    C     C_R   0.186799 0.933325 0.156875 0.751991
C8    C     C_R   0.812942 0.066393 0.843308 0.763364
O17   O     O_3   0.220670 0.426670 0.239090 -0.380860
O18   O     O_3   0.779330 0.573330 0.760910 -0.381593
O19   O     O_3   0.279330 0.926670 0.260910 -0.365050
O20   O     O_3   0.720670 0.073330 0.739090 -0.362913
V1    V     V_3+5 0.255440 0.152290 0.252020 1.491286
V2    V     V_3+5 0.744560 0.847710 0.747980 1.479290
V3    V     V_3+5 0.244560 0.652290 0.247980 1.509720
V4    V     V_3+5 0.755440 0.347710 0.752020 1.545309
C9    C     C_R   0.850099 0.045497 0.899235 -0.088421
C10   C     C_R   0.148960 0.951965 0.101391 -0.081814
C11   C     C_R   0.648409 0.567442 0.601263 -0.069259
C12   C     C_R   0.351607 0.432414 0.398838 -0.070991
C13   C     C_R   0.871280 0.881311 0.986847 -0.135120
C14   C     C_R   0.127307 0.106838 0.012368 -0.139765
C15   C     C_R   0.624393 0.634325 0.502985 -0.137762
C16   C     C_R   0.375722 0.363683 0.497077 -0.136947
C17   C     C_R   0.837390 0.960156 0.939900 -0.251628
C18   C     C_R   0.161197 0.024626 0.058766 -0.252842
C19   C     C_R   0.657955 0.639526 0.556632 -0.238821
C20   C     C_R   0.342379 0.356593 0.443280 -0.241282
C21   C     C_R   0.898230 0.069106 0.908744 0.189607
C22   C     C_R   0.100933 0.935775 0.093455 0.190142
C23   C     C_R   0.602969 0.501466 0.592469 0.187682
C24   C     C_R   0.396738 0.502483 0.408010 0.190591
C25   C     C_R   0.933519 0.011187 0.961025 -0.000388
C26   C     C_R   0.065400 0.992568 0.041338 -0.001151
C27   C     C_R   0.565753 0.526478 0.538915 0.010543
C28   C     C_R   0.433948 0.477429 0.461479 0.014491
C29   C     C_R   0.919164 0.896034 0.996205 0.067134
C30   C     C_R   0.079686 0.102404 0.005094 0.068189
C31   C     C_R   0.578753 0.573259 0.493214 0.067724
C32   C     C_R   0.421039 0.428847 0.507054 0.067367
C33   C     C_R   0.982555 0.051532 0.978466 0.017786
C34   C     C_R   0.016348 0.954472 0.024635 0.018491
C35   C     C_R   0.516577 0.505008 0.528177 0.025908
C36   C     C_R   0.483051 0.500230 0.472196 0.027664
C37   C     C_R   0.000411 0.812785 0.049834 -0.185058
C38   C     C_R   0.998689 0.193727 0.953583 -0.187659
C39   C     C_R   0.500130 0.505627 0.428887 -0.175728
C40   C     C_R   0.499354 0.500620 0.571389 -0.175581
C41   C     C_R   0.952711 0.788965 0.038309 0.275728
C42   C     C_R   0.046369 0.212947 0.963898 0.278517
C43   C     C_R   0.546295 0.553553 0.438300 0.270990
C44   C     C_R   0.453269 0.451049 0.561965 0.268856
H1    H     H_    0.197772 0.033953 0.064077 0.148045
H2    H     H_    0.800686 0.938825 0.932663 0.133787
H3    H     H_    0.308076 0.301662 0.436732 0.132202
H4    H     H_    0.692531 0.691189 0.562978 0.129949
H5    H     H_    0.859654 0.802851 0.014892 0.172922
H6    H     H_    0.138704 0.178632 0.982957 0.173668
H7    H     H_    0.634320 0.680260 0.469091 0.173041
H8    H     H_    0.365937 0.315870 0.530899 0.174105
H9    H     H_    0.024720 0.714120 0.077533 0.177423
H10   H     H_    0.974609 0.294804 0.926735 0.177919
H11   H     H_    0.478295 0.468255 0.387068 0.174277
H12   H     H_    0.520958 0.540177 0.613062 0.175355
C45   C     C_R   0.069046 0.796138 0.452495 0.718880
C46   C     C_R   0.923423 0.142017 0.535658 0.699897
C47   C     C_R   0.425948 0.610856 0.047455 0.730037
C48   C     C_R   0.590073 0.396060 0.977014 0.708627
N1    N     N_R   0.068263 0.937834 0.416641 -0.553881
N2    N     N_R   0.927183 0.010937 0.575950 -0.545443
N3    N     N_R   0.428306 0.458756 0.079640 -0.545028
N4    N     N_R   0.580867 0.522510 0.934296 -0.548113
C49   C     C_R   0.026793 0.037397 0.395711 0.676244
C50   C     C_R   0.968473 0.909412 0.594204 0.719310
C51   C     C_R   0.459111 0.316377 0.083576 0.689101
C52   C     C_R   0.553245 0.671545 0.936221 0.702996
C53   C     C_R   0.999592 0.068115 0.428689 -0.129732
C54   C     C_R   0.991252 0.864125 0.557389 -0.118916
C55   C     C_R   0.491639 0.326360 0.056337 -0.120577
C56   C     C_R   0.518973 0.656662 0.960559 -0.140205
C57   C     C_R   0.007848 0.951424 0.475257 -0.115371
C58   C     C_R   0.981432 0.975270 0.509519 -0.118444
C59   C     C_R   0.489003 0.482787 0.021888 -0.084080
C60   C     C_R   0.520959 0.499969 0.994160 -0.093385
C61   C     C_R   0.042177 0.808763 0.486780 -0.076917
C62   C     C_R   0.947824 0.120052 0.498764 -0.080704
C63   C     C_R   0.454956 0.624162 0.015953 -0.068172
C64   C     C_R   0.557506 0.368274 0.003419 -0.069240
C65   C     C_R   0.966237 0.215015 0.417968 0.218045
C66   C     C_R   0.024657 0.717643 0.568326 0.240966
C67   C     C_R   0.527054 0.188680 0.063038 0.222445
C68   C     C_R   0.483405 0.793428 0.952648 0.234026
C69   C     C_R   0.940342 0.240373 0.452662 0.227045
C70   C     C_R   0.049721 0.688358 0.532877 0.231557
C71   C     C_R   0.560775 0.213567 0.038503 0.259646
C72   C     C_R   0.451359 0.776254 0.979738 0.253610
O21   O     O_2   0.092549 0.638559 0.451844 -0.495898
O22   O     O_2   0.899352 0.300091 0.534016 -0.497576
O23   O     O_2   0.395786 0.749188 0.046725 -0.456057
O24   O     O_2   0.632428 0.311668 0.998045 -0.482075
O25   O     O_2   0.009577 0.089620 0.341770 -0.442646
O26   O     O_2   0.991713 0.879018 0.648991 -0.446556
O27   O     O_2   0.458147 0.167962 0.114525 -0.462693
O28   O     O_2   0.562446 0.838404 0.920482 -0.431041
C73   C     C_R   0.898920 0.892116 0.651820 0.293151
C74   C     C_R   0.105643 0.107807 0.357230 0.318559
C75   C     C_R   0.593457 0.638323 0.847221 0.344319
C76   C     C_R   0.407983 0.544749 0.160597 0.288243
C77   C     C_R   0.871992 0.928306 0.684250 -0.284847
C78   C     C_R   0.132824 0.085846 0.323960 -0.247301
C79   C     C_R   0.625074 0.661943 0.819824 -0.280313
C80   C     C_R   0.376846 0.540316 0.188859 -0.320826
H13   H     H_    0.878703 0.848427 0.722038 0.173858
H14   H     H_    0.129262 0.182801 0.290713 0.167687
H15   H     H_    0.615808 0.755148 0.784366 0.163660
H16   H     H_    0.385322 0.614314 0.227589 0.192675
C81   C     C_R   0.834071 0.052469 0.666512 -0.132270
C82   C     C_R   0.166815 0.944864 0.334928 -0.155999
C83   C     C_R   0.666625 0.556748 0.834944 -0.146166
C84   C     C_R   0.335512 0.438830 0.168152 -0.147331
C85   C     C_R   0.820084 0.129493 0.612629 0.178692
C86   C     C_R   0.177613 0.838580 0.383983 0.171603
C87   C     C_R   0.675235 0.418193 0.876155 0.211761
C88   C     C_R   0.323971 0.346539 0.116958 0.211678
C89   C     C_R   0.847176 0.092154 0.579688 0.228393
C90   C     C_R   0.149582 0.858859 0.416479 0.242056
C91   C     C_R   0.640635 0.381486 0.898222 0.235356
C92   C     C_R   0.355167 0.350212 0.088278 0.234687
C93   C     C_R   0.892199 0.002219 0.603252 0.176381
C94   C     C_R   0.106744 0.963746 0.395630 0.128684
C95   C     C_R   0.605498 0.516802 0.894434 0.191271
C96   C     C_R   0.397351 0.448447 0.110202 0.250066
N5    N     N_2   0.938702 0.647013 0.066811 -0.516562
H17   H     H_    0.961446 0.627032 0.107482 0.291263
C97   C     C_3   0.927536 0.474902 0.036741 -0.527012
H18   H     H_    0.959309 0.415278 0.031709 0.198448
H19   H     H_    0.899447 0.496677 0.995041 0.203849
H20   H     H_    0.914810 0.374806 0.060298 0.218989
N6    N     N_2   0.060674 0.352916 0.935054 -0.514752
H21   H     H_    0.037008 0.377873 0.895101 0.291706
C98   C     C_3   0.074981 0.521916 0.966132 -0.522509
H22   H     H_    0.044827 0.586515 0.973725 0.196617
H23   H     H_    0.087517 0.620472 0.941977 0.220390
H24   H     H_    0.104123 0.494250 0.006649 0.203194
N7    N     N_2   0.560150 0.575732 0.391883 -0.529400
H25   H     H_    0.533998 0.630631 0.357030 0.272193
C99   C     C_3   0.581805 0.412648 0.378972 -0.536969
H26   H     H_    0.556158 0.298848 0.366042 0.201854
H27   H     H_    0.612921 0.367261 0.415643 0.214044
H28   H     H_    0.593584 0.444300 0.344254 0.211041
N8    N     N_2   0.439233 0.430300 0.608293 -0.527307
H29   H     H_    0.465587 0.379678 0.643693 0.275807
C100  C     C_3   0.416273 0.592278 0.619735 -0.527219
H30   H     H_    0.441064 0.709052 0.631935 0.199518
H31   H     H_    0.404481 0.561659 0.654505 0.213130
H32   H     H_    0.384997 0.632882 0.582596 0.213301
N9    N     N_2   0.778018 0.239021 0.590814 -0.512718
H33   H     H_    0.779015 0.341968 0.563673 0.290835
C101  C     C_3   0.734643 0.137379 0.570364 -0.465126
H34   H     H_    0.732898 0.051701 0.534169 0.221274
H35   H     H_    0.704358 0.236059 0.557000 0.195929
H36   H     H_    0.731384 0.046675 0.603281 0.179465
N10   N     N_2   0.217923 0.718722 0.402131 -0.510142
H37   H     H_    0.214790 0.604536 0.424324 0.287683
C102  C     C_3   0.262521 0.809461 0.428010 -0.456428
H38   H     H_    0.264217 0.879009 0.466874 0.220479
H39   H     H_    0.267979 0.913037 0.399428 0.177738
H40   H     H_    0.291510 0.705497 0.438574 0.193439
N11   N     N_2   0.717724 0.310345 0.893475 -0.494706
H41   H     H_    0.716196 0.181626 0.909645 0.289710
C103  C     C_3   0.758897 0.408481 0.928324 -0.517595
H42   H     H_    0.755431 0.447389 0.968158 0.208566
H43   H     H_    0.763995 0.534805 0.906966 0.181839
H44   H     H_    0.790554 0.318569 0.937749 0.192340
N12   N     N_2   0.279500 0.261157 0.092931 -0.512695
H45   H     H_    0.278513 0.142609 0.070626 0.292984
C104  C     C_3   0.239739 0.386394 0.067821 -0.507610
H46   H     H_    0.222642 0.358325 0.022582 0.209887
H47   H     H_    0.250206 0.533710 0.072903 0.195770
H48   H     H_    0.213886 0.365666 0.087874 0.194542
Br1   Br    Br    0.813833 0.099030 0.499784 -0.558085
Br2   Br    Br    0.180509 0.812818 0.495766 -0.493794
Br3   Br    Br    0.626694 0.123609 0.900622 -0.440825
Br4   Br    Br    0.339022 0.233295 0.017020 -0.505850
Br5   Br    Br    0.086874 0.892987 0.159564 -0.596028
Br6   Br    Br    0.913010 0.121530 0.843584 -0.598402
Br7   Br    Br    0.401747 0.668056 0.351630 -0.617105
Br8   Br    Br    0.597551 0.342768 0.650177 -0.592304
Br9   Br    Br    0.959944 0.401419 0.361585 -0.486249
Br10  Br    Br    0.033150 0.541458 0.627927 -0.464504
Br11  Br    Br    0.532521 0.963897 0.106349 -0.525902
Br12  Br    Br    0.473535 0.997270 0.900336 -0.508200
N13   N     N_2   0.906738 0.387832 0.441229 -0.463603
H49   H     H_    0.918916 0.515145 0.435503 0.286109
C105  C     C_3   0.861078 0.346674 0.399998 -0.348907
H50   H     H_    0.862990 0.333965 0.358135 0.199769
H51   H     H_    0.835864 0.459736 0.398740 0.205412
H52   H     H_    0.847910 0.215777 0.410693 0.227774
N14   N     N_2   0.085580 0.548679 0.546711 -0.443286
H53   H     H_    0.107115 0.543586 0.588236 0.300952
C106  C     C_3   0.069780 0.368462 0.524156 -0.389771
H54   H     H_    0.045697 0.310339 0.542836 0.195681
H55   H     H_    0.100487 0.273301 0.533289 0.210694
H56   H     H_    0.051391 0.377868 0.478392 0.208127
N15   N     N_2   0.596648 0.076628 0.046493 -0.435231
H57   H     H_    0.584781 0.943304 0.038837 0.289092
C107  C     C_3   0.637484 0.093829 0.097442 -0.380547
H58   H     H_    0.628742 0.060296 0.134283 0.197167
H59   H     H_    0.651218 0.236328 0.101819 0.208667
H60   H     H_    0.665510 0.996725 0.096496 0.203204
N16   N     N_2   0.414730 0.911142 0.969639 -0.437687
H61   H     H_    0.424628 0.046289 0.969133 0.298615
C108  C     C_3   0.371435 0.867274 0.924348 -0.351606
H62   H     H_    0.376767 0.865481 0.884185 0.191542
H63   H     H_    0.344112 0.973037 0.921651 0.230148
H64   H     H_    0.358699 0.730434 0.931550 0.202835
N17   N     N_2   0.925434 0.723830 0.663061 -0.456142
H65   H     H_    0.937817 0.681882 0.704242 0.285851
C109  C     C_3   0.903442 0.575879 0.625506 -0.387305
H66   H     H_    0.896336 0.618268 0.581787 0.232060
H67   H     H_    0.927307 0.453031 0.635753 0.239015
H68   H     H_    0.869973 0.537821 0.629792 0.167081
N18   N     N_2   0.082984 0.281519 0.358650 -0.450149
H69   H     H_    0.083166 0.315609 0.397398 0.285647
C110  C     C_3   0.088756 0.438916 0.327239 -0.361314
H70   H     H_    0.069002 0.559766 0.334278 0.224899
H71   H     H_    0.126431 0.474970 0.341070 0.163824
H72   H     H_    0.074213 0.409312 0.281970 0.207140
N19   N     N_2   0.547625 0.719021 0.822361 -0.442578
H73   H     H_    0.545489 0.832063 0.797113 0.286637
C111  C     C_3   0.510649 0.588668 0.796756 -0.481172
H74   H     H_    0.476208 0.662875 0.780861 0.213174
H75   H     H_    0.516154 0.519376 0.761333 0.187008
H76   H     H_    0.509658 0.483144 0.827517 0.223737
N20   N     N_2   0.449424 0.650822 0.182110 -0.459963
H77   H     H_    0.444671 0.772583 0.200093 0.288099
C112  C     C_3   0.490252 0.548046 0.218129 -0.471333
H78   H     H_    0.521267 0.638829 0.231436 0.214267
H79   H     H_    0.484572 0.498050 0.255772 0.182878
H80   H     H_    0.497820 0.428607 0.195874 0.224990

loop_
_geom_bond_atom_site_label_1
_geom_bond_atom_site_label_2
_ccdc_geom_bond_type
O17   V3    S    
C59   C63   A    
C25   C29   A    
O1    C5    A    
C98   H22   S    
N3    C51   A    
O19   V1    S    
C9    C21   A    
C100  H30   S    
C90   C94   A    
O3    C7    A    
C107  H58   S    
C10   C18   A    
C60   C64   A    
C92   C96   A    
C11   C23   A    
N11   C103  S    
C57   C58   A    
N11   H41   S    
C107  H60   S    
C25   C33   A    
N20   H77   S    
N8    C100  S    
C5    C12   S    
C45   C61   A    
C102  H38   S    
C106  H56   S    
C81   C85   A    
C6    C11   S    
C76   C96   A    
C24   Br7   S    
C35   C40   A    
C26   C30   A    
C47   C63   A    
C36   C39   A    
C50   O26   S    
O9    V1    S    
C99   H27   S    
C79   C83   A    
C14   C18   A    
C108  H64   S    
N14   C106  S    
O16   V4    S    
C112  H78   S    
O4    C8    A    
C55   C59   A    
N20   C112  S    
N6    C98   S    
C54   C58   A    
O1    V3    S    
O13   V1    S    
C31   C43   A    
C20   H3    S    
O2    V4    S    
C110  H70   S    
C71   N15   S    
C97   H20   S    
C66   C70   A    
O3    V1    S    
N16   H61   S    
C103  H44   S    
C13   H5    S    
C28   C36   A    
C53   C65   A    
C73   C77   A    
C87   C91   A    
C1    O15   A    
C22   Br5   S    
C15   C31   A    
N18   H69   S    
C2    O16   A    
C21   Br6   S    
C16   C32   A    
C92   Br4   S    
C109  H67   S    
C109  H66   S    
C50   C54   A    
C10   C22   A    
C15   H7    S    
C11   C19   A    
N17   H65   S    
C16   C20   A    
C67   Br11  S    
C84   C88   A    
C76   C80   A    
C13   C29   A    
C7    C10   S    
C34   C37   A    
O11   C7    A    
C82   C86   A    
C56   C68   A    
C97   H18   S    
O15   V3    S    
C35   C36   A    
O12   C8    A    
C72   N16   S    
N9    H33   S    
N19   H73   S    
C97   H19   S    
C49   C53   A    
C40   H12   S    
N5    C97   S    
C89   Br1   S    
O10   V2    S    
C69   N13   S    
C86   N10   S    
C80   H16   S    
N7    C99   S    
N7    H25   S    
C101  H36   S    
O5    V1    S    
C111  H75   S    
C52   C56   A    
C39   C43   A    
O7    V3    S    
N3    C96   S    
C38   C42   A    
N12   H45   S    
C26   C34   A    
C47   O23   S    
C33   C38   A    
C99   H28   S    
C2    C83   S    
C46   O22   S    
C101  H35   S    
C86   C90   A    
C102  H39   S    
C37   H9    S    
N8    H29   S    
C75   N19   S    
C78   H14   S    
N1    C49   A    
O18   V4    S    
C15   C19   A    
C27   C31   A    
C104  H47   S    
C106  H54   S    
C58   C62   A    
O6    V2    S    
C18   H1    S    
C68   C72   A    
C63   C72   A    
C110  H71   S    
O8    V4    S    
C74   C78   A    
O7    C3    A    
N14   H53   S    
N12   C104  S    
C105  H50   S    
O5    C1    A    
C108  H62   S    
C77   H13   S    
C64   C71   A    
N15   H57   S    
C43   N7    S    
C53   C57   A    
C75   C79   A    
C74   N18   S    
C14   C30   A    
C21   C25   A    
C1    C84   S    
O8    C4    A    
C104  H48   S    
C57   C61   A    
N13   H49   S    
C46   C62   A    
O9    C5    A    
N18   C110  S    
N4    C52   A    
N1    C94   S    
O11   V3    S    
N17   C109  S    
N9    C101  S    
C55   C67   A    
O14   V2    S    
N16   C108  S    
C75   C95   A    
C91   C95   A    
C98   H24   S    
C73   N17   S    
C4    C81   S    
N19   C111  S    
N2    C50   A    
C90   Br2   S    
C109  H68   S    
C73   C93   A    
C48   O24   S    
C3    C82   S    
O12   V4    S    
C45   O21   S    
C12   C24   A    
N2    C93   S    
C40   C44   A    
C29   C41   A    
C112  H79   S    
C14   H6    S    
C111  H76   S    
C77   C81   A    
C68   Br12  S    
C19   H4    S    
C85   C89   A    
C54   C66   A    
C102  H40   S    
C105  H51   S    
C67   C71   A    
C38   H10   S    
C48   N4    A    
C61   C70   A    
C49   O25   S    
C3    O13   A    
C47   N3    A    
C66   Br10  S    
C112  H80   S    
C23   C27   A    
C111  H74   S    
C107  H59   S    
C65   Br9   S    
C39   H11   S    
C89   C93   A    
C76   N20   S    
C91   Br3   S    
C22   C26   A    
C8    C9    S    
C59   C60   A    
N15   C107  S    
C83   C87   A    
C9    C17   A    
C13   C17   A    
C110  H72   S    
C79   H15   S    
C80   C84   A    
C85   N9    S    
C52   O28   S    
C103  H42   S    
C108  H63   S    
C101  H34   S    
C32   C44   A    
N5    H17   S    
C46   N2    A    
C87   N11   S    
O10   C6    A    
C33   C34   A    
C42   N6    S    
C65   C69   A    
C48   C64   A    
C56   C60   A    
O20   V2    S    
O2    C6    A    
C100  H32   S    
N4    C95   S    
C23   Br8   S    
C70   N14   S    
C51   O27   S    
C74   C94   A    
C37   C41   A    
C41   N5    S    
C106  H55   S    
O4    V2    S    
C103  H43   S    
C99   H26   S    
C12   C20   A    
O6    C2    A    
C51   C55   A    
N10   H37   S    
C44   N8    S    
C16   H8    S    
C24   C28   A    
C105  H52   S    
C27   C35   A    
C78   C82   A    
C98   H23   S    
C104  H46   S    
C4    O14   A    
N6    H21   S    
C88   N12   S    
N13   C105  S    
C62   C69   A    
C88   C92   A    
C30   C42   A    
C45   N1    A    
C28   C32   A    
C17   H2    S    
N10   C102  S    
C100  H31   S    
