data_mof_unit_62574.cif
_audit_creation_date              2012-12-10T16:58:20-0500
_audit_creation_method            fapswitch 2.2
_symmetry_space_group_name_H-M    P1
_symmetry_Int_Tables_number       1
_space_group_crystal_system       triclinic
_cell_length_a                    21.727631
_cell_length_b                    21.738892
_cell_length_c                    22.163147
_cell_angle_alpha                 60.327071
_cell_angle_beta                  119.020987
_cell_angle_gamma                 90.032757
_cell_volume                      7547.80091757

loop_
_atom_site_label
_atom_site_type_symbol
_atom_type_description
_atom_site_fract_x
_atom_site_fract_y
_atom_site_fract_z
_atom_type_partial_charge
C1    C     C_R   0.620397 0.498265 0.503342 0.783346
C2    C     C_R   0.804123 0.293916 0.673817 -0.140759
C3    C     C_R   0.862466 0.291534 0.664087 -0.136133
C4    C     C_R   0.419800 0.580319 0.339700 0.815342
C5    C     C_R   0.866012 0.356628 0.606571 -0.171741
C6    C     C_R   0.810723 0.425822 0.557469 0.093391
C7    C     C_R   0.748552 0.427210 0.563031 0.098389
C8    C     C_R   0.689737 0.495141 0.508268 -0.097094
C9    C     C_R   0.694926 0.560793 0.453075 -0.202780
C10   C     C_R   0.757044 0.560020 0.450080 -0.198635
C11   C     C_R   0.815071 0.493518 0.501946 -0.103559
C12   C     C_3   0.290618 0.709569 0.082498 0.134480
C13   C     C_3   0.709129 0.219340 0.028707 -0.156285
C14   C     C_3   0.695565 0.303947 0.972183 -0.156293
C15   C     C_1   0.625521 0.374311 0.750237 -0.175440
C16   C     C_R   0.379454 0.501684 0.496407 0.783980
C17   C     C_1   0.875555 0.124692 0.249750 -0.175038
C18   C     C_3   0.722566 0.206364 0.972748 -0.157684
C19   C     C_3   0.709688 0.290289 0.917602 0.188040
C20   C     C_3   0.806368 0.194310 0.027820 -0.158761
C21   C     C_3   0.792224 0.207988 0.082381 0.188577
C22   C     C_3   0.792787 0.278940 0.971263 -0.156939
C23   C     C_3   0.196158 0.721321 0.972909 -0.146450
C24   C     C_3   0.779346 0.291911 0.027225 -0.155635
C25   C     C_1   0.663538 0.336329 0.825744 -0.072849
C26   C     C_1   0.838051 0.162231 0.174241 -0.073028
C27   C     C_R   0.253564 0.480986 0.379461 -0.171060
C28   C     C_R   0.580242 0.419661 0.660323 0.816354
C29   C     C_R   0.198061 0.461575 0.332124 -0.140892
C30   C     C_R   0.140173 0.449155 0.342700 -0.134066
C31   C     C_R   0.135958 0.458769 0.398412 -0.172592
C32   C     C_R   0.190200 0.481066 0.444933 0.094381
C33   C     C_R   0.252123 0.488145 0.438887 0.096542
C34   C     C_3   0.207865 0.791919 0.917417 0.159343
C35   C     C_R   0.310081 0.503341 0.491545 -0.100273
C36   C     C_R   0.304006 0.515830 0.544799 -0.200477
C37   C     C_R   0.241964 0.512134 0.547946 -0.207812
C38   C     C_R   0.184956 0.495420 0.498299 -0.099907
C39   C     C_R   0.998076 0.883202 0.496072 0.797675
C40   C     C_3   0.291906 0.752215 0.971219 -0.164421
C41   C     C_R   0.079947 0.919844 0.660303 0.816185
C42   C     C_R   0.001868 0.116952 0.503458 0.783551
C43   C     C_R   0.920047 0.080004 0.339667 0.816469
C44   C     C_R   0.001351 0.619065 0.499761 0.841691
C45   C     C_3   0.206582 0.749286 0.028448 -0.190316
C46   C     C_R   0.881200 0.497403 0.500383 0.806998
C47   C     C_R   0.002552 0.380913 0.500240 0.768406
C48   C     C_R   0.118810 0.497898 0.499689 0.765372
C49   C     C_R   0.023417 0.871939 0.382282 -0.157508
C50   C     C_R   0.045219 0.862433 0.336980 -0.143936
C51   C     C_R   0.057451 0.793669 0.348346 -0.130385
C52   C     C_3   0.301505 0.779999 0.026322 0.205083
C53   C     C_R   0.045220 0.734857 0.402693 -0.161762
C54   C     C_R   0.020434 0.743957 0.447107 0.041487
C55   C     C_R   0.013651 0.812128 0.440474 0.098098
C56   C     C_3   0.217376 0.820762 0.971422 -0.164563
C57   C     C_R   0.996078 0.818774 0.491187 -0.127085
C58   C     C_R   0.980073 0.761121 0.542213 -0.254025
C59   C     C_R   0.982724 0.695543 0.545719 0.137342
C60   C     C_R   0.003017 0.686571 0.498571 -0.109357
C61   C     C_R   0.139010 0.125346 0.621565 -0.171750
C62   C     C_R   0.205680 0.133069 0.669736 -0.141554
C63   C     C_R   0.207784 0.201411 0.659304 -0.133855
C64   C     C_1   0.374623 0.625607 0.249833 -0.174956
C65   C     C_R   0.142753 0.261674 0.602898 -0.172894
C66   C     C_R   0.073946 0.254405 0.555590 0.094391
C67   C     C_1   0.336684 0.663523 0.174360 -0.076971
C68   C     C_R   0.072749 0.186502 0.561546 0.097253
C69   C     C_R   0.005053 0.181520 0.508223 -0.099826
C70   C     C_R   0.939551 0.241173 0.454275 -0.200695
C71   C     C_R   0.940199 0.306340 0.451149 -0.206145
C72   C     C_R   0.006428 0.313376 0.501542 -0.102268
C73   C     C_1   0.124445 0.875140 0.750161 -0.176442
C74   C     C_3   0.280837 0.680999 0.028217 -0.189997
C75   C     C_3   0.362274 0.812423 0.058512 -0.417183
C76   C     C_3   0.357789 0.882792 0.986565 -0.842219
C77   C     C_1   0.161981 0.837593 0.825633 -0.063441
C78   C     C_R   0.747599 0.360908 0.624001 -0.170471
Cu1   Cu    Cu3+1 0.500040 0.438210 0.499990 0.946577
Cu2   Cu    Cu3+1 0.499960 0.561790 0.500010 0.949827
Cu3   Cu    Cu3+1 0.061810 0.999860 0.500010 0.945315
Cu4   Cu    Cu3+1 0.938190 0.999990 0.499990 0.950059
Cu5   Cu    Cu3+1 0.958570 0.541460 0.417120 0.939738
Cu6   Cu    Cu3+1 0.041430 0.458560 0.582880 0.951331
H1    H     H_    0.905484 0.239110 0.701699 0.136201
H2    H     H_    0.348128 0.527442 0.585182 0.156201
H3    H     H_    0.326634 0.753988 0.946974 0.132061
H4    H     H_    0.296608 0.491314 0.367849 0.149036
H5    H     H_    0.200264 0.455667 0.287432 0.134917
H6    H     H_    0.097962 0.432647 0.307033 0.136527
H7    H     H_    0.090417 0.447616 0.405189 0.146340
H8    H     H_    0.237995 0.523272 0.588719 0.154260
H9    H     H_    0.966203 0.766603 0.580558 0.157982
H10   H     H_    0.013191 0.926863 0.369909 0.146828
H11   H     H_    0.053081 0.908526 0.293233 0.132363
H12   H     H_    0.911857 0.351666 0.600453 0.149918
H13   H     H_    0.075761 0.786049 0.314263 0.134978
H14   H     H_    0.056139 0.682334 0.409907 0.145707
H15   H     H_    0.191132 0.878612 0.947336 0.130929
H16   H     H_    0.887676 0.237681 0.413366 0.155800
H17   H     H_    0.140060 0.070814 0.632964 0.148179
H18   H     H_    0.256031 0.085932 0.714940 0.135369
H19   H     H_    0.259931 0.207614 0.695593 0.136652
H20   H     H_    0.147377 0.313887 0.596216 0.146786
H21   H     H_    0.888431 0.351308 0.409829 0.155086
H22   H     H_    0.171952 0.747470 0.052809 0.139876
H23   H     H_    0.760260 0.611917 0.407669 0.155597
H24   H     H_    0.152067 0.697562 0.949789 0.134743
H25   H     H_    0.307136 0.623143 0.052379 0.141050
H26   H     H_    0.650051 0.612827 0.411075 0.153442
H27   H     H_    0.704054 0.360103 0.634784 0.147102
H28   H     H_    0.802337 0.243522 0.719742 0.134273
H29   H     H_    0.364665 0.870135 0.946989 0.249703
H30   H     H_    0.303542 0.926326 0.947405 0.250256
H31   H     H_    0.402658 0.904821 0.012108 0.244706
H32   H     H_    0.356342 0.825940 0.098018 0.206489
H33   H     H_    0.417260 0.770004 0.097657 0.204774
H34   H     H_    0.649516 0.349508 0.948381 0.131590
H35   H     H_    0.998980 0.622330 0.658118 0.220663
H36   H     H_    0.909389 0.660993 0.575901 0.214500
H37   H     H_    0.675167 0.194360 0.053258 0.132380
H38   H     H_    0.803167 0.326649 0.050556 0.131162
H39   H     H_    0.826735 0.303922 0.946691 0.131773
H40   H     H_    0.852422 0.148736 0.051649 0.129735
H41   H     H_    0.698743 0.171631 0.949409 0.131810
N1    N     N_3   0.963514 0.638245 0.596401 -0.574163
O1    O     O_R   0.590210 0.447820 0.500000 -0.586920
O2    O     O_R   0.034940 0.555150 0.570020 -0.556725
O3    O     O_R   0.874830 0.535020 0.430000 -0.583612
O4    O     O_R   0.590150 0.552170 0.500020 -0.583204
O5    O     O_R   0.944810 0.465010 0.569970 -0.579808
O6    O     O_R   0.965060 0.444870 0.429980 -0.589543
O7    O     O_R   0.035040 0.374860 0.569950 -0.596399
O8    O     O_R   0.055190 0.535000 0.430030 -0.595308
O9    O     O_R   0.125170 0.465000 0.570000 -0.592056
O10   O     O_R   0.439580 0.508290 0.379070 -0.584800
O11   O     O_R   0.439510 0.612640 0.379090 -0.580437
O12   O     O_R   0.947780 0.909820 0.499990 -0.584273
O13   O     O_R   0.409850 0.447830 0.499980 -0.587355
O14   O     O_R   0.409790 0.552180 0.500000 -0.583467
O15   O     O_R   0.560490 0.387360 0.620910 -0.585791
O16   O     O_R   0.560420 0.491710 0.620930 -0.578004
O17   O     O_R   0.052170 0.909710 0.500000 -0.588642
O18   O     O_R   0.112650 0.939420 0.620930 -0.585382
O19   O     O_R   0.008260 0.939530 0.620910 -0.579076
O20   O     O_R   0.052220 0.090030 0.500010 -0.587198
O21   O     O_R   0.947830 0.090140 0.500000 -0.583075
O22   O     O_R   0.991740 0.060320 0.379090 -0.586413
O23   O     O_R   0.887350 0.060430 0.379070 -0.578679
O24   O     O_R   0.964960 0.625150 0.430050 -0.596221

loop_
_geom_bond_atom_site_label_1
_geom_bond_atom_site_label_2
_ccdc_geom_bond_type
Cu6   O2    S    
C66   C68   A    
C21   C26   S    
C63   C65   A    
Cu6   O9    S    
C34   C56   S    
C23   C45   S    
C27   H4    S    
C12   C74   S    
C3    H1    S    
C1    C8    S    
C48   O9    A    
Cu1   O13   S    
C35   C36   A    
C75   H33   S    
C30   H6    S    
C52   C75   S    
C5    H12   S    
C46   O3    A    
C29   H5    S    
Cu4   O21   S    
C15   C28   S    
C7    C8    A    
C54   C60   A    
C53   C54   A    
C27   C33   A    
C59   N1    S    
Cu5   O6    S    
Cu1   O10   S    
C2    H28   S    
C37   C38   A    
C13   C18   S    
C34   C40   S    
C17   C26   T    
C40   H3    S    
C48   O8    A    
C36   C37   A    
C58   H9    S    
Cu5   O3    S    
C69   C70   A    
C16   C35   S    
C30   C31   A    
H36   N1    S    
C50   H11   S    
C15   C25   T    
C27   C29   A    
Cu2   O11   S    
C39   C57   S    
C76   H31   S    
C18   C19   S    
C14   C24   S    
Cu5   O8    S    
C43   O22   A    
C4    O11   A    
Cu3   O18   S    
C66   C72   A    
Cu5   Cu6   S    
C45   C56   S    
C8    C9    A    
C14   H34   S    
C76   H30   S    
C71   H21   S    
C78   H27   S    
C40   C52   S    
C32   C38   A    
C49   H10   S    
C9    C10   A    
C38   C48   S    
C43   O23   A    
C4    O10   A    
Cu5   O24   S    
Cu3   O22   S    
C39   O12   A    
C59   C60   A    
C13   C14   S    
C47   O7    A    
C10   H23   S    
C16   O14   A    
C74   H25   S    
C42   O21   A    
C12   C52   S    
C70   H16   S    
Cu3   Cu4   S    
C51   H13   S    
C12   C67   S    
Cu6   O7    S    
Cu2   O4    S    
C64   C67   T    
C22   H39   S    
C19   C22   S    
C41   O18   A    
C63   H19   S    
C1    O4    A    
C6    C11   A    
C68   C69   A    
C36   H2    S    
C58   C59   A    
Cu2   O14   S    
C42   C69   S    
C44   O24   A    
C51   C53   A    
C61   H17   S    
C75   C76   S    
C17   C43   S    
C29   C30   A    
C2    C78   A    
C13   H37   S    
C31   C32   A    
C23   C34   S    
C62   C63   A    
C24   H38   S    
C50   C51   A    
C13   C21   S    
C70   C71   A    
C7    C78   A    
C39   O17   A    
Cu3   O20   S    
Cu2   O16   S    
C55   C57   A    
C22   C24   S    
C16   O13   A    
C28   O16   A    
C23   C74   S    
C42   O20   A    
C46   O5    A    
Cu4   O19   S    
C45   H22   S    
C9    H26   S    
Cu1   O1    S    
C54   C55   A    
C44   O2    A    
C37   H8    S    
C14   C19   S    
C1    O1    A    
C20   C22   S    
C12   C45   S    
C3    C5    A    
C6    C7    A    
C28   O15   A    
C53   H14   S    
C4    C64   S    
Cu6   O5    S    
C31   H7    S    
C65   H20   S    
C47   O6    A    
C32   C33   A    
C76   H29   S    
C2    C3    A    
C71   C72   A    
C34   C77   S    
C49   C55   A    
C61   C68   A    
C57   C58   A    
Cu1   O15   S    
C44   C60   S    
C23   H24   S    
C18   H41   S    
C33   C35   A    
C40   C74   S    
C18   C20   S    
C65   C66   A    
C61   C62   A    
C19   C25   S    
C47   C72   S    
C20   H40   S    
Cu4   O23   S    
C10   C11   A    
C41   C73   S    
Cu1   Cu2   S    
H35   N1    S    
Cu3   O17   S    
C41   O19   A    
C20   C21   S    
Cu4   O12   S    
C49   C50   A    
C21   C24   S    
C5    C6    A    
C73   C77   T    
C11   C46   S    
C75   H32   S    
C56   H15   S    
C52   C56   S    
C62   H18   S    
