data_mof_unit_55555.cif
_audit_creation_date              2012-10-26T21:13:38-0400
_audit_creation_method            fapswitch 2.2
_symmetry_space_group_name_H-M    P1
_symmetry_Int_Tables_number       1
_space_group_crystal_system       triclinic
_cell_length_a                    9.0742
_cell_length_b                    10.866766
_cell_length_c                    9.53718
_cell_angle_alpha                 89.468067
_cell_angle_beta                  90.00307
_cell_angle_gamma                 90.188799
_cell_volume                      940.389057818

loop_
_atom_site_label
_atom_site_type_symbol
_atom_type_description
_atom_site_fract_x
_atom_site_fract_y
_atom_site_fract_z
_atom_type_partial_charge
Br1   Br    Br    0.433493 0.872262 0.188288 -0.469004
C1    C     C_R   0.500796 0.262565 0.500429 0.543076
C2    C     C_R   0.568582 0.592284 0.925281 0.191395
C3    C     C_3   0.727795 0.626323 0.918839 -0.271973
C4    C     C_R   0.220651 0.500140 0.499983 0.576484
C5    C     C_3   0.728144 0.625899 0.078048 -0.263605
C6    C     C_R   0.495174 0.737713 0.498843 0.601041
C7    C     C_R   0.779345 0.500260 0.500027 0.552002
C8    C     C_1   0.065546 0.500346 0.500013 -0.017362
C9    C     C_1   0.934447 0.500388 0.500040 -0.035647
C10   C     C_R   0.534659 0.061621 0.620484 -0.041514
C11   C     C_R   0.507503 0.129798 0.498955 -0.021478
C12   C     C_R   0.481574 0.940016 0.368559 0.143741
C13   C     C_R   0.488900 0.067832 0.371869 -0.114695
C14   C     C_R   0.496470 0.871337 0.495407 0.055727
C15   C     C_R   0.525583 0.935213 0.619265 -0.028949
C16   C     C_3   0.456329 0.930980 0.762631 0.132172
C17   C     C_3   0.469658 0.070855 0.763641 -0.225346
C18   C     C_R   0.568895 0.592056 0.072569 0.216665
C19   C     C_R   0.420116 0.416055 0.075335 0.003660
C20   C     C_R   0.420179 0.416004 0.926373 0.008819
Cu1   Cu    Cu3+1 0.499990 0.499980 0.640670 1.007931
Cu2   Cu    Cu3+1 0.500010 0.500020 0.359330 1.000587
H1    H     H_    0.471704 0.118656 0.274988 0.164264
H2    H     H_    0.797541 0.552620 0.873931 0.165329
H3    H     H_    0.182887 0.003973 0.606536 0.334482
H4    H     H_    0.745182 0.719367 0.872197 0.152115
H5    H     H_    0.797882 0.551845 0.123806 0.157214
H6    H     H_    0.745892 0.718692 0.123239 0.172598
H7    H     H_    0.527118 0.884952 0.842331 0.137784
H8    H     H_    0.363284 0.121381 0.763604 0.154702
H9    H     H_    0.551385 0.104595 0.841256 0.129574
H10   H     H_    0.357743 0.346658 0.131906 0.123886
H11   H     H_    0.357860 0.346627 0.871213 0.116083
N1    N     N_R   0.500920 0.500930 0.147930 -0.232808
N2    N     N_R   0.500930 0.500890 0.852020 -0.230032
O1    O     O_R   0.500000 0.319640 0.618810 -0.516252
O2    O     O_2   0.187332 0.942389 0.883264 -0.253090
O3    O     O_3   0.183021 0.912954 0.613101 -0.502552
O4    O     O_R   0.500020 0.319680 0.381230 -0.523706
O5    O     O_R   0.288380 0.499980 0.618770 -0.470445
O6    O     O_R   0.288400 0.500020 0.381190 -0.490893
O7    O     O_R   0.499980 0.680320 0.618770 -0.475952
O8    O     O_R   0.500000 0.680360 0.381190 -0.460894
O9    O     O_R   0.711600 0.499980 0.618810 -0.509395
O10   O     O_R   0.711620 0.500020 0.381230 -0.508467
O11   O     O_2   0.262047 0.743429 0.790978 -0.210987
S1    S     S_3+6 0.267505 0.880009 0.765880 0.033716

loop_
_geom_bond_atom_site_label_1
_geom_bond_atom_site_label_2
_ccdc_geom_bond_type
C4    O6    A    
C10   C17   S    
C2    C18   A    
C5    C18   S    
C6    O7    A    
Cu1   N2    S    
C8    C9    T    
O2    S1    D    
Cu1   O7    S    
C16   S1    S    
C10   C11   A    
C1    C11   S    
C5    H6    S    
C6    C14   S    
C16   C17   S    
Cu2   O10   S    
C18   N1    A    
C6    O8    A    
C4    C8    S    
C16   H7    S    
C19   N1    A    
C1    O1    A    
Cu2   O6    S    
C2    N2    A    
C19   H10   S    
C3    C5    S    
C17   H8    S    
C11   C13   A    
C3    H2    S    
Cu2   N1    S    
C12   C14   A    
C7    O10   A    
H3    O3    S    
Cu1   O5    S    
C17   H9    S    
C14   C15   A    
Cu2   O4    S    
O11   S1    D    
C1    O4    A    
C3    H4    S    
Br1   C12   S    
C19   C20   A    
C7    C9    S    
Cu1   O9    S    
C10   C15   A    
C13   H1    S    
C20   N2    A    
C4    O5    A    
C7    O9    A    
O3    S1    S    
C20   H11   S    
C12   C13   A    
Cu1   O1    S    
Cu1   Cu2   S    
C5    H5    S    
Cu2   O8    S    
C2    C3    S    
C15   C16   S    
