data_mof_unit_35180.cif
_audit_creation_date              2012-12-11T16:04:57-0500
_audit_creation_method            fapswitch 2.2
_symmetry_space_group_name_H-M    P1
_symmetry_Int_Tables_number       1
_space_group_crystal_system       triclinic
_cell_length_a                    10.6374
_cell_length_b                    10.619272
_cell_length_c                    16.883297
_cell_angle_alpha                 98.808118
_cell_angle_beta                  98.781937
_cell_angle_gamma                 61.68579
_cell_volume                      1652.14952037

loop_
_atom_site_label
_atom_site_type_symbol
_atom_type_description
_atom_site_fract_x
_atom_site_fract_y
_atom_site_fract_z
_atom_type_partial_charge
C1    C     C_R   0.354820 0.775379 0.398585 0.550662
C2    C     C_3   0.415628 0.684885 0.252752 -0.113880
C3    C     C_3   0.348939 0.809285 0.318136 0.054699
C4    C     C_R   0.371256 0.347108 0.358567 0.539966
C5    C     C_3   0.410978 0.894430 0.287357 -0.124964
C6    C     C_3   0.270143 0.964178 0.233024 -0.112050
C7    C     C_3   0.209165 0.877689 0.264924 -0.123223
C8    C     C_3   0.274263 0.754583 0.198661 -0.115549
C9    C     C_3   0.334385 0.840716 0.166999 0.058426
C10   C     C_3   0.459779 0.258220 0.774810 -0.112070
C11   C     C_3   0.400824 0.399193 0.735277 -0.112211
C12   C     C_3   0.762616 0.291295 0.248412 -0.119953
C13   C     C_3   0.336511 0.333932 0.663045 0.054382
C14   C     C_3   0.395477 0.193755 0.701986 -0.110284
C15   C     C_3   0.252968 0.256948 0.740718 -0.104488
C16   C     C_R   0.777233 0.376754 0.401941 0.556520
C17   C     C_3   0.194240 0.398159 0.700559 -0.117760
C18   C     C_3   0.258429 0.462307 0.774346 -0.125154
C19   C     C_3   0.318192 0.321497 0.812808 0.051912
C20   C     C_1   0.768486 0.367777 0.715567 -0.046623
C21   C     C_1   0.813067 0.329875 0.782235 -0.049779
C22   C     C_1   0.357579 0.765490 0.714436 -0.051962
C23   C     C_3   0.831709 0.342523 0.324201 0.056063
C24   C     C_1   0.325968 0.811629 0.782047 -0.047985
C25   C     C_R   0.958507 0.284748 0.102535 0.556102
C26   C     C_R   0.320128 0.300731 0.119766 0.532730
C27   C     C_R   0.298311 0.884806 0.086268 0.532119
C28   C     C_R   0.379319 0.716199 0.631667 0.536937
C29   C     C_R   0.878521 0.302287 0.862219 0.552764
C30   C     C_R   0.308338 0.294358 0.892032 0.543950
C31   C     C_R   0.282231 0.880173 0.859759 0.544444
C32   C     C_R   0.366574 0.345293 0.584869 0.533435
C33   C     C_R   0.718308 0.410562 0.635705 0.534532
C34   C     C_3   0.982231 0.236358 0.302262 -0.150272
C35   C     C_1   0.346289 0.337782 0.274674 -0.065885
C36   C     C_1   0.334201 0.328373 0.203367 -0.064136
C37   C     C_3   0.914525 0.184063 0.224695 -0.123521
C38   C     C_3   0.981688 0.353200 0.257256 -0.137590
C39   C     C_3   0.829843 0.459964 0.280223 -0.102954
C40   C     C_3   0.762419 0.407479 0.203675 -0.114648
C41   C     C_3   0.913698 0.301376 0.181623 0.056439
C42   C     C_3   0.475846 0.772061 0.219836 -0.128543
Cr1   Cr    Cr6+3 0.608340 0.611040 0.520430 1.017653
Cr2   Cr    Cr6+3 0.287650 0.601120 0.489350 1.020327
Cr3   Cr    Cr6+3 0.604040 0.287870 0.490280 1.019956
Cr4   Cr    Cr6+3 0.054020 0.052700 0.970850 1.022192
Cr5   Cr    Cr6+3 0.059230 0.375120 0.993390 1.018923
Cr6   Cr    Cr6+3 0.374950 0.061200 0.992340 1.024306
H1    H     H_    0.672013 0.266307 0.246912 0.129401
H2    H     H_    0.069396 0.169399 0.345773 0.112902
H3    H     H_    0.070421 0.380337 0.258831 0.116367
H4    H     H_    0.794624 0.573960 0.303937 0.132795
H5    H     H_    0.674464 0.474374 0.160525 0.119975
H6    H     H_    0.474931 0.569623 0.263834 0.110897
H7    H     H_    0.583728 0.730156 0.198979 0.114265
H8    H     H_    0.449671 0.084286 0.670641 0.137806
H9    H     H_    0.191607 0.198385 0.745354 0.126051
H10   H     H_    0.464628 0.952947 0.325759 0.129835
H11   H     H_    0.216120 0.078715 0.221149 0.108784
H12   H     H_    0.102874 0.917454 0.287363 0.121596
H13   H     H_    0.220179 0.695867 0.160890 0.125680
H14   H     H_    0.462295 0.457714 0.731171 0.087437
H15   H     H_    0.568281 0.203182 0.806878 0.131129
H16   H     H_    0.086355 0.453298 0.667891 0.142171
H17   H     H_    0.204452 0.571405 0.806113 0.130972
H18   H     H_    0.944957 0.073296 0.196606 0.132041
O1    O     O_R   0.751220 0.499230 0.435170 -0.519069
O2    O     O_R   0.412990 0.180750 0.091610 -0.505720
O3    O     O_R   0.366620 0.943130 0.065760 -0.500954
O4    O     O_R   0.477220 0.727600 0.436870 -0.499174
O5    O     O_R   0.160510 0.906330 0.879210 -0.508933
O6    O     O_R   0.930190 0.179050 0.889450 -0.488474
O7    O     O_R   0.909140 0.398170 0.896710 -0.502877
O8    O     O_R   0.186190 0.363460 0.918830 -0.499674
O9    O     O_R   0.401670 0.173200 0.913310 -0.513302
O10   O     O_R   0.356120 0.936130 0.900470 -0.492107
O11   O     O_3   0.162740 0.163010 0.985530 -0.273636
O12   O     O_R   0.297880 0.469080 0.560050 -0.514862
O13   O     O_R   0.258650 0.745120 0.411470 -0.511500
O14   O     O_R   0.297070 0.467240 0.395960 -0.495564
O15   O     O_R   0.488830 0.252610 0.387790 -0.516405
O16   O     O_R   0.724400 0.302390 0.420980 -0.497097
O17   O     O_R   0.752100 0.501210 0.612190 -0.508515
O18   O     O_R   0.478040 0.729440 0.600970 -0.503379
O19   O     O_R   0.259530 0.747110 0.588490 -0.493509
O20   O     O_R   0.489720 0.254590 0.564810 -0.520474
O21   O     O_R   0.725220 0.304230 0.585080 -0.484922
O22   O     O_3   0.500010 0.500010 0.500020 -0.289334
O23   O     O_R   0.171830 0.913880 0.057510 -0.529490
O24   O     O_R   0.940690 0.186050 0.054730 -0.500812
O25   O     O_R   0.920470 0.405720 0.075010 -0.515386
O26   O     O_R   0.196690 0.370460 0.084120 -0.518891

loop_
_geom_bond_atom_site_label_1
_geom_bond_atom_site_label_2
_ccdc_geom_bond_type
C14   H8    S    
C5    C42   S    
C11   C18   S    
C28   O18   A    
C34   C37   S    
Cr1   O17   S    
Cr5   O26   S    
Cr6   O10   S    
C13   C32   S    
Cr3   O16   S    
Cr6   O3    S    
C11   H14   S    
C6    C9    S    
C12   H1    S    
C7    C8    S    
Cr4   O23   S    
C18   H17   S    
C15   C19   S    
C12   C23   S    
C25   O24   A    
C5    H10   S    
Cr1   O22   S    
Cr3   O21   S    
C4    O14   A    
C3    C7    S    
C17   H16   S    
C38   C39   S    
C30   O8    A    
C29   O7    A    
C26   O26   A    
C18   C19   S    
C12   C37   S    
C4    O15   A    
C10   H15   S    
C8    C9    S    
Cr4   O6    S    
C27   O3    A    
C8    H13   S    
C29   O6    A    
C31   O5    A    
C39   H4    S    
C4    C35   S    
C22   C28   S    
C13   C14   S    
Cr1   O18   S    
C15   H9    S    
Cr6   O9    S    
C2    C8    S    
C25   O25   A    
C34   H2    S    
Cr2   O14   S    
Cr3   O22   S    
Cr5   O7    S    
C38   C41   S    
C10   C14   S    
C25   C41   S    
C39   C40   S    
C38   H3    S    
C21   C29   S    
C1    C3    S    
C35   C36   T    
Cr6   O11   S    
C12   C40   S    
C42   H7    S    
C10   C19   S    
C23   C34   S    
C32   O20   A    
C37   H18   S    
C16   O16   A    
C17   C18   S    
C9    C42   S    
C16   O1    A    
Cr6   O2    S    
C33   O17   A    
Cr4   O5    S    
C20   C33   S    
C26   C36   S    
C40   C41   S    
Cr1   O4    S    
C2    H6    S    
C1    O13   A    
C22   C24   T    
Cr5   O11   S    
Cr2   O19   S    
C7    H12   S    
C9    C27   S    
C15   C17   S    
C34   C38   S    
Cr5   O25   S    
C6    H11   S    
Cr2   O13   S    
Cr3   O15   S    
Cr5   O8    S    
C3    C5    S    
Cr4   O11   S    
C6    C7    S    
Cr4   O24   S    
C16   C23   S    
C1    O4    A    
C13   C17   S    
C26   O2    A    
Cr2   O12   S    
Cr3   O20   S    
C33   O21   A    
C24   C31   S    
C30   O9    A    
C11   C13   S    
C31   O10   A    
C5    C6    S    
C2    C42   S    
C23   C39   S    
C27   O23   A    
C37   C41   S    
C10   C11   S    
C32   O12   A    
C20   C21   T    
Cr1   O1    S    
C40   H5    S    
C28   O19   A    
C14   C15   S    
C2    C3    S    
Cr2   O22   S    
C19   C30   S    
