data_mof_unit_7631.cif
_audit_creation_date              2012-12-10T16:50:59-0500
_audit_creation_method            fapswitch 2.2
_symmetry_space_group_name_H-M    P1
_symmetry_Int_Tables_number       1
_space_group_crystal_system       triclinic
_cell_length_a                    7.894365
_cell_length_b                    8.730911
_cell_length_c                    10.858715
_cell_angle_alpha                 88.589907
_cell_angle_beta                  88.581949
_cell_angle_gamma                 94.701527
_cell_volume                      745.423592146

loop_
_atom_site_label
_atom_site_type_symbol
_atom_type_description
_atom_site_fract_x
_atom_site_fract_y
_atom_site_fract_z
_atom_type_partial_charge
C1    C     C_R   0.544432 0.794710 0.488773 0.937809
C2    C     C_R   0.997641 0.597020 0.043035 -0.207499
C3    C     C_R   0.115994 0.726849 0.045189 -0.161671
C4    C     C_R   0.994956 0.605251 0.914567 -0.205791
C5    C     C_R   0.265816 0.708249 0.110815 0.193075
C6    C     C_R   0.836492 0.624926 0.861732 0.149148
C7    C     C_R   0.385024 0.617463 0.058943 -0.016948
C8    C     C_R   0.685053 0.573421 0.927992 0.017593
C9    C     C_R   0.390668 0.616322 0.929207 0.012736
C10   C     C_R   0.684726 0.574287 0.059450 0.044188
C11   C     C_R   0.522329 0.568452 0.125662 -0.153015
C12   C     C_R   0.453131 0.206903 0.497207 0.934955
C13   C     C_R   0.528762 0.560878 0.868020 -0.159369
C14   C     C_2   0.560840 0.959750 0.466445 -0.013686
C15   C     C_2   0.425867 0.044176 0.491517 -0.020127
C16   C     C_R   0.509216 0.515321 0.738474 0.909567
C17   C     C_R   0.502588 0.521165 0.260051 0.885281
C18   C     C_R   0.283986 0.712134 0.865518 0.204028
C19   C     C_R   0.847646 0.602073 0.113768 0.183285
C20   C     C_R   0.122656 0.729134 0.916558 -0.184184
H1    H     H_    0.038698 0.502827 0.872917 0.180304
H2    H     H_    0.064372 0.832769 0.073899 0.215329
H3    H     H_    0.083192 0.836855 0.881247 0.217645
H4    H     H_    0.048709 0.491444 0.075963 0.174299
H5    H     H_    0.011885 0.387997 0.408139 0.221490
H6    H     H_    0.988578 0.609935 0.592799 0.228929
I1    I     I_    0.407214 0.927829 0.805479 -0.314659
I2    I     I_    0.909845 0.712664 0.280760 -0.241145
I3    I     I_    0.367392 0.907934 0.196472 -0.309432
I4    I     I_    0.817985 0.815222 0.736432 -0.298199
I5    I     I_    0.777344 0.056278 0.354507 -0.208172
I6    I     I_    0.161607 0.968801 0.524760 -0.185425
N1    N     N_2   0.950330 0.457950 0.466250 -0.147025
N2    N     N_2   0.049670 0.542050 0.533750 -0.151375
O1    O     O_R   0.389250 0.738570 0.508280 -0.589466
O2    O     O_R   0.610750 0.261430 0.491720 -0.588813
O3    O     O_R   0.678390 0.711630 0.486650 -0.575132
O4    O     O_R   0.321610 0.288370 0.513350 -0.596039
O5    O     O_R   0.355430 0.513480 0.694040 -0.615837
O6    O     O_R   0.644570 0.486520 0.305960 -0.600942
O7    O     O_R   0.644570 0.486540 0.672410 -0.611909
O8    O     O_R   0.355430 0.513460 0.327590 -0.612598
Zn1   Zn    Zn3+2 0.306940 0.517990 0.514440 1.024772
Zn2   Zn    Zn3+2 0.693060 0.482010 0.485560 1.034026

loop_
_geom_bond_atom_site_label_1
_geom_bond_atom_site_label_2
_ccdc_geom_bond_type
C2    C4    A    
C12   C15   S    
C8    C13   A    
C4    H1    S    
C12   O2    A    
O1    Zn1   S    
C10   C19   A    
O6    Zn2   S    
C5    I3    S    
C20   H3    S    
C1    O3    A    
C14   I5    S    
O3    Zn2   S    
C2    C3    A    
C5    C7    A    
C3    C20   A    
C7    C11   A    
C19   I2    S    
C6    C8    A    
C4    C6    A    
C6    I4    S    
N1    N2    D    
C18   C20   A    
C2    H4    S    
O7    Zn2   S    
O2    Zn2   S    
C10   C11   A    
N2    Zn1   S    
C16   O5    A    
C4    C20   A    
C12   O4    A    
C9    C18   A    
O4    Zn1   S    
C1    O1    A    
C8    C10   A    
O8    Zn1   S    
C13   C16   S    
C7    C9    A    
C9    C13   A    
C17   O8    A    
C11   C17   S    
C3    H2    S    
O5    Zn1   S    
C1    C14   S    
C2    C19   A    
C14   C15   D    
N1    Zn2   S    
C16   O7    A    
H6    N2    S    
C18   I1    S    
H5    N1    S    
C3    C5    A    
C17   O6    A    
C15   I6    S    
