data_mof_unit_10569.cif
_audit_creation_date              2012-12-10T16:53:29-0500
_audit_creation_method            fapswitch 2.2
_symmetry_space_group_name_H-M    P1
_symmetry_Int_Tables_number       1
_space_group_crystal_system       triclinic
_cell_length_a                    8.007206
_cell_length_b                    8.635127
_cell_length_c                    13.516124
_cell_angle_alpha                 94.748991
_cell_angle_beta                  78.578798
_cell_angle_gamma                 91.05998
_cell_volume                      912.895721589

loop_
_atom_site_label
_atom_site_type_symbol
_atom_type_description
_atom_site_fract_x
_atom_site_fract_y
_atom_site_fract_z
_atom_type_partial_charge
C1    C     C_R   0.542046 0.792567 0.495883 0.910286
C2    C     C_1   0.568210 0.491291 0.118930 0.067792
C3    C     C_2   0.558342 0.948523 0.473503 0.082425
C4    C     C_2   0.442121 0.051502 0.525583 0.061661
C5    C     C_R   0.458127 0.207408 0.503586 0.898300
C6    C     C_R   0.470330 0.505350 0.686818 0.895155
C7    C     C_R   0.529846 0.495984 0.313205 0.903738
C8    C     C_1   0.552225 0.492871 0.207947 -0.013118
C9    C     C_1   0.448704 0.514019 0.792223 -0.041404
C10   C     C_2   0.573076 0.492149 0.014558 -0.131966
C11   C     C_2   0.429743 0.524138 0.985836 -0.135616
C12   C     C_1   0.433570 0.520529 0.881359 0.052703
H1    H     H_    0.311525 0.550294 0.039594 0.193735
H2    H     H_    0.691096 0.465315 0.960769 0.194358
H3    H     H_    0.852857 0.775121 0.297827 0.395945
H4    H     H_    0.345479 0.194850 0.750547 0.340925
H5    H     H_    0.245232 0.233601 0.274003 0.369892
H6    H     H_    0.030862 0.724561 0.779633 0.377421
N1    N     N_2   0.954190 0.457600 0.473930 0.115105
N2    N     N_2   0.045810 0.542400 0.526070 0.119182
O1    O     O_R   0.388300 0.738660 0.506400 -0.581016
O2    O     O_2   0.871895 0.038085 0.390338 -0.209668
O3    O     O_3   0.745470 0.817139 0.285090 -0.552211
O4    O     O_2   0.130323 0.959591 0.609194 -0.154904
O5    O     O_2   0.360928 0.900457 0.696754 -0.303664
O6    O     O_3   0.251182 0.183515 0.712856 -0.513576
O7    O     O_2   0.917058 0.308102 0.300056 -0.193578
O8    O     O_2   0.110066 0.527969 0.291515 -0.336236
O9    O     O_3   0.202825 0.263138 0.346954 -0.509109
O10   O     O_2   0.812593 0.721514 0.650337 -0.268463
O11   O     O_2   0.887804 0.471069 0.707728 -0.297681
O12   O     O_R   0.611700 0.261340 0.493600 -0.592845
O13   O     O_3   0.093066 0.701399 0.709076 -0.439673
O14   O     O_R   0.679920 0.711490 0.489690 -0.588892
O15   O     O_R   0.320080 0.288510 0.510310 -0.536441
O16   O     O_R   0.333200 0.515510 0.649910 -0.543844
O17   O     O_R   0.666800 0.484490 0.350090 -0.570823
O18   O     O_R   0.624820 0.488340 0.633200 -0.565598
O19   O     O_R   0.375180 0.511660 0.366800 -0.569834
O20   O     O_2   0.643004 0.101907 0.303118 -0.263872
S1    S     S_3+6 0.708105 0.982583 0.360973 0.083351
S2    S     S_3+6 0.293298 0.017561 0.638302 0.086575
S3    S     S_3+6 0.046467 0.391726 0.350926 0.177466
S4    S     S_3+6 0.952550 0.607726 0.648964 0.189824
Zn1   Zn    Zn3+2 0.305280 0.518140 0.511160 1.208695
Zn2   Zn    Zn3+2 0.694720 0.481860 0.488840 1.189498

loop_
_geom_bond_atom_site_label_1
_geom_bond_atom_site_label_2
_ccdc_geom_bond_type
O5    S2    D    
C11   C12   S    
C6    O18   A    
C1    O1    A    
O14   Zn2   S    
N1    S3    S    
O4    S2    D    
O8    S3    D    
N1    N2    D    
O3    S1    S    
O19   Zn1   S    
C5    O12   A    
C6    C9    S    
H3    O3    S    
C7    O17   A    
N1    Zn2   S    
C7    C8    S    
O9    S3    S    
C11   H1    S    
O10   S4    D    
C4    S2    S    
C5    O15   A    
O20   S1    D    
N2    S4    S    
C6    O16   A    
C1    O14   A    
O1    Zn1   S    
H4    O6    S    
H6    O13   S    
O18   Zn2   S    
O2    S1    D    
C10   C11   D    
C3    C4    D    
C2    C10   S    
O7    S3    D    
O16   Zn1   S    
H5    O9    S    
O6    S2    S    
O11   S4    D    
C7    O19   A    
C3    S1    S    
O17   Zn2   S    
C9    C12   T    
O13   S4    S    
O12   Zn2   S    
C2    C8    T    
N2    Zn1   S    
C10   H2    S    
C4    C5    S    
C1    C3    S    
O15   Zn1   S    
