data_mof_unit_48239.cif
_audit_creation_date              2012-12-10T18:02:07-0500
_audit_creation_method            fapswitch 2.2
_symmetry_space_group_name_H-M    P1
_symmetry_Int_Tables_number       1
_space_group_crystal_system       triclinic
_cell_length_a                    10.870355
_cell_length_b                    9.483799
_cell_length_c                    23.57225
_cell_angle_alpha                 89.930451
_cell_angle_beta                  91.12163
_cell_angle_gamma                 89.919287
_cell_volume                      2429.64666035

loop_
_atom_site_label
_atom_site_type_symbol
_atom_type_description
_atom_site_fract_x
_atom_site_fract_y
_atom_site_fract_z
_atom_type_partial_charge
C1    C     C_R   0.261894 0.500065 0.499418 0.835532
C2    C     C_R   0.738083 0.499952 0.499901 0.793866
C3    C     C_R   0.529821 0.379535 0.237876 -0.184692
C4    C     C_R   0.442648 0.421328 0.762170 -0.202223
C5    C     C_R   0.542528 0.382493 0.296627 0.308813
C6    C     C_R   0.429289 0.425597 0.703512 0.305229
C7    C     C_R   0.496594 0.500407 0.327097 -0.234962
C8    C     C_R   0.516699 0.499239 0.671290 -0.222044
C9    C     C_R   0.448248 0.618729 0.295570 0.078060
C10   C     C_R   0.617109 0.569761 0.699047 0.069117
C11   C     C_R   0.466952 0.625187 0.235917 0.156489
C12   C     C_R   0.622928 0.573479 0.759523 0.177292
C13   C     C_R   0.497107 0.499640 0.206993 0.212551
C14   C     C_R   0.535609 0.495922 0.790397 0.220308
C15   C     C_R   0.063919 0.372037 0.500635 -0.113405
C16   C     C_R   0.935987 0.627997 0.497982 -0.182116
C17   C     C_R   0.936453 0.371974 0.500866 -0.155524
C18   C     C_R   0.063460 0.628058 0.497685 -0.185018
C19   C     C_R   0.871860 0.499949 0.499556 -0.032478
C20   C     C_R   0.128053 0.500083 0.499089 -0.000681
C21   C     C_R   0.411017 0.074748 0.470876 0.083791
C22   C     C_R   0.588564 0.925299 0.529413 -0.002555
C23   C     C_R   0.588467 0.074338 0.529478 0.041021
C24   C     C_R   0.410916 0.925752 0.470952 -0.017690
C25   C     C_R   0.499312 0.500107 0.390508 0.847795
C26   C     C_R   0.504706 0.499842 0.608926 0.897000
C27   C     C_R   0.618301 0.420710 0.881974 0.589331
C28   C     C_R   0.395518 0.524015 0.114432 0.579550
C29   C     C_R   0.439954 0.565222 0.877226 0.556110
C30   C     C_R   0.603977 0.448277 0.120146 0.565540
C31   C     C_R   0.419427 0.544053 0.935454 -0.046387
C32   C     C_R   0.604622 0.424288 0.061269 -0.040410
C33   C     C_R   0.514886 0.483004 0.968585 -0.090171
C34   C     C_R   0.506598 0.480795 0.028144 -0.085782
C35   C     C_R   0.619077 0.425369 0.941942 -0.126268
C36   C     C_R   0.401138 0.536331 0.054724 -0.134832
C37   C     C_R   0.307011 0.580787 0.961144 0.045730
C38   C     C_R   0.702066 0.351819 0.034484 0.060153
C39   C     C_R   0.304503 0.596302 0.020793 0.302011
C40   C     C_R   0.717410 0.370505 0.975663 0.337239
Cu1   Cu    Cu3+1 0.500000 0.640660 0.500000 0.959501
Cu2   Cu    Cu3+1 0.500000 0.359340 0.500000 1.047577
H1    H     H_    0.554112 0.284880 0.215010 0.188547
H2    H     H_    0.377153 0.363314 0.787064 0.185895
H3    H     H_    0.112019 0.271938 0.501847 0.156816
H4    H     H_    0.887892 0.728107 0.496997 0.159633
H5    H     H_    0.888734 0.271863 0.502176 0.164228
H6    H     H_    0.111194 0.728165 0.496416 0.153979
H7    H     H_    0.340109 0.131220 0.447354 0.112920
H8    H     H_    0.659416 0.868934 0.552967 0.105464
H9    H     H_    0.659077 0.130514 0.553169 0.108203
H10   H     H_    0.339409 0.869753 0.447851 0.115855
N1    N     N_R   0.534143 0.497595 0.851385 -0.462768
N2    N     N_R   0.499171 0.492508 0.145784 -0.460726
N3    N     N_R   0.500000 0.852070 0.500000 -0.163532
N4    N     N_R   0.500000 0.147930 0.500000 -0.149747
O1    O     O_R   0.319640 0.618740 0.500000 -0.598048
O2    O     O_R   0.680360 0.381260 0.500000 -0.571335
O3    O     O_R   0.680360 0.618740 0.500000 -0.602520
O4    O     O_R   0.319640 0.381260 0.500000 -0.577311
O5    O     O_R   0.499960 0.618810 0.417880 -0.588066
O6    O     O_R   0.500040 0.381190 0.582120 -0.534450
O7    O     O_R   0.500040 0.618810 0.582120 -0.589820
O8    O     O_R   0.499960 0.381190 0.417880 -0.504562
O9    O     O_2   0.698009 0.338045 0.854191 -0.456878
O10   O     O_2   0.288033 0.539913 0.141200 -0.477046
O11   O     O_2   0.366844 0.652285 0.846327 -0.532192
O12   O     O_2   0.708031 0.432213 0.151555 -0.516005
C41   C     C_3   0.186846 0.583665 0.926360 -0.299123
C42   C     C_3   0.166227 0.445935 0.893273 -0.602937
H11   H     H_    0.244061 0.418134 0.866033 0.217822
H12   H     H_    0.151863 0.357195 0.923153 0.283051
H13   H     H_    0.084826 0.456628 0.864610 0.290735
H14   H     H_    0.106150 0.594583 0.953981 0.276053
H15   H     H_    0.183472 0.675877 0.897462 0.259073
C43   C     C_3   0.780543 0.241844 0.066103 -0.278684
C44   C     C_3   0.701905 0.126484 0.092781 -0.794458
H16   H     H_    0.644085 0.168678 0.127029 0.258894
H17   H     H_    0.641473 0.076967 0.059906 0.248448
H18   H     H_    0.762715 0.043773 0.111512 0.269981
H19   H     H_    0.841821 0.185237 0.036806 0.227682
H20   H     H_    0.842204 0.291385 0.098288 0.275438
S1    S     S_3+6 0.194846 0.715759 0.050061 0.064320
O13   O     O_2   0.252729 0.797717 0.098102 -0.248804
O14   O     O_2   0.151493 0.819351 0.005641 -0.260327
O15   O     O_3   0.072211 0.627209 0.074045 -0.428570
H21   H     H_    0.094005 0.526128 0.071236 0.369496
S2    S     S_3+6 0.868867 0.364223 0.948373 0.009070
O16   O     O_2   0.883279 0.485696 0.908111 -0.283274
O17   O     O_2   0.963829 0.378460 0.995185 -0.329511
O18   O     O_3   0.892350 0.212062 0.913547 -0.451402
H22   H     H_    0.847887 0.139427 0.935278 0.337581
S3    S     S_3+6 0.622712 0.237677 0.328216 0.018608
O19   O     O_2   0.531360 0.138222 0.353537 -0.291119
O20   O     O_2   0.694605 0.159166 0.284452 -0.285757
O21   O     O_3   0.721200 0.293582 0.379285 -0.496453
H23   H     H_    0.771796 0.366630 0.360841 0.332437
S4    S     S_3+6 0.297787 0.343259 0.672428 0.026032
O22   O     O_2   0.336685 0.213352 0.641018 -0.240309
O23   O     O_2   0.207809 0.301339 0.717043 -0.274023
O24   O     O_3   0.227922 0.454750 0.626661 -0.540346
H24   H     H_    0.207336 0.538695 0.649579 0.342151
C45   C     C_3   0.370774 0.732913 0.323763 -0.354516
C46   C     C_3   0.251056 0.673132 0.346908 -0.782708
H25   H     H_    0.195457 0.625512 0.311855 0.272378
H26   H     H_    0.268423 0.591836 0.379835 0.228612
H27   H     H_    0.196691 0.759350 0.366138 0.231839
H28   H     H_    0.424256 0.789823 0.356844 0.230152
H29   H     H_    0.341913 0.817156 0.294032 0.213767
C47   C     C_3   0.723414 0.627728 0.664519 -0.437515
C48   C     C_3   0.817141 0.511907 0.652819 -0.764818
H30   H     H_    0.854686 0.468189 0.693332 0.278059
H31   H     H_    0.773670 0.425582 0.627763 0.236459
H32   H     H_    0.894358 0.556013 0.628290 0.253195
H33   H     H_    0.691963 0.674009 0.623788 0.214162
H34   H     H_    0.771070 0.716591 0.685764 0.217164
C49   C     C_3   0.462445 0.764973 0.203598 -0.377729
C50   C     C_3   0.558703 0.869112 0.226368 -0.740071
H35   H     H_    0.542401 0.897306 0.271206 0.278071
H36   H     H_    0.652260 0.822856 0.223174 0.270274
H37   H     H_    0.554909 0.967436 0.200740 0.253978
H38   H     H_    0.483468 0.751351 0.158180 0.230465
H39   H     H_    0.369024 0.811892 0.204207 0.244270
C51   C     C_3   0.717325 0.663807 0.791252 -0.366690
C52   C     C_3   0.678350 0.818648 0.791189 -0.767901
H40   H     H_    0.664672 0.859214 0.747351 0.248699
H41   H     H_    0.590936 0.831024 0.814329 0.278839
H42   H     H_    0.750402 0.882901 0.812898 0.265368
H43   H     H_    0.728910 0.631636 0.836115 0.246145
H44   H     H_    0.810309 0.651040 0.773400 0.219378

loop_
_geom_bond_atom_site_label_1
_geom_bond_atom_site_label_2
_ccdc_geom_bond_type
C24   H10   S    
C38   C40   A    
S3    O19   D    
C37   C41   S    
C8    C26   S    
Cu1   Cu2   S    
C48   H30   S    
Cu1   O5    S    
C49   H38   S    
Cu2   O2    S    
C46   H26   S    
C23   N4    A    
C38   C43   S    
C44   H16   S    
C24   N3    A    
C30   N2    A    
C3    H1    S    
O24   H24   S    
C6    S4    S    
C15   C17   A    
C50   H35   S    
Cu1   N3    S    
Cu2   N4    S    
C29   O11   S    
C52   H42   S    
C31   C33   A    
C10   C47   S    
C42   H11   S    
C32   C38   A    
Cu2   O6    S    
C18   C20   A    
C3    C13   A    
C22   H8    S    
C26   O6    A    
S3    O20   D    
C29   C31   A    
C21   H7    S    
C46   H25   S    
C44   H17   S    
C15   C20   A    
C43   C44   S    
Cu1   O3    S    
C4    C6    A    
C1    O4    A    
C43   H20   S    
O18   H22   S    
C5    C7    A    
C28   N2    A    
O15   H21   S    
C17   C19   A    
C6    C8    A    
C4    H2    S    
C27   C35   A    
C47   C48   S    
C50   H37   S    
C32   C34   A    
C28   O10   S    
C26   O7    A    
C27   O9    S    
C1    O1    A    
C21   N4    A    
C23   H9    S    
S1    O13   D    
C12   C51   S    
S2    O18   S    
C9    C45   S    
O21   H23   S    
S1    O15   S    
C42   H13   S    
C27   N1    A    
C33   C34   A    
C51   H44   S    
C41   H14   S    
C48   H31   S    
C25   O5    A    
C9    C11   A    
C45   H28   S    
C10   C12   A    
C16   C18   A    
S1    O14   D    
C12   C14   A    
S3    O21   S    
S4    O23   D    
C16   H4    S    
C52   H40   S    
C15   H3    S    
Cu2   O4    S    
C11   C49   S    
C47   H34   S    
C13   N2    S    
C44   H18   S    
C7    C9    A    
C1    C20   S    
C2    C19   S    
C2    O3    A    
C36   C39   A    
C17   H5    S    
S2    O17   D    
C3    C5    A    
C18   H6    S    
C43   H19   S    
Cu2   O8    S    
C5    S3    S    
C2    O2    A    
C22   N3    A    
S4    O24   S    
C7    C25   S    
C45   H29   S    
C40   S2    S    
C35   C40   A    
C49   H39   S    
Cu1   O1    S    
C37   C39   A    
C49   C50   S    
C30   C32   A    
C11   C13   A    
C29   N1    A    
C16   C19   A    
C33   C35   A    
C51   H43   S    
C41   H15   S    
C48   H32   S    
C34   C36   A    
C4    C14   A    
C41   C42   S    
C50   H36   S    
C39   S1    S    
C31   C37   A    
C14   N1    S    
S2    O16   D    
C28   C36   A    
C8    C10   A    
S4    O22   D    
C21   C24   A    
C45   C46   S    
C52   H41   S    
Cu1   O7    S    
C22   C23   A    
C42   H12   S    
C47   H33   S    
C25   O8    A    
C46   H27   S    
C30   O12   S    
C51   C52   S    
