data_mof_unit_18248.cif
_audit_creation_date              2012-12-10T18:42:40-0500
_audit_creation_method            fapswitch 2.2
_symmetry_space_group_name_H-M    P1
_symmetry_Int_Tables_number       1
_space_group_crystal_system       triclinic
_cell_length_a                    10.828121
_cell_length_b                    15.137648
_cell_length_c                    13.874173
_cell_angle_alpha                 90.390949
_cell_angle_beta                  90.471313
_cell_angle_gamma                 90.512205
_cell_volume                      2273.92548698

loop_
_atom_site_label
_atom_site_type_symbol
_atom_type_description
_atom_site_fract_x
_atom_site_fract_y
_atom_site_fract_z
_atom_type_partial_charge
C1    C     C_R   0.499301 0.329787 0.499729 0.774298
C2    C     C_R   0.500107 0.669865 0.500251 0.779973
C3    C     C_R   0.871729 0.496666 0.501072 -0.084634
C4    C     C_R   0.128461 0.504517 0.499120 -0.070841
C5    C     C_R   0.939549 0.460462 0.578505 -0.009403
C6    C     C_R   0.060845 0.541889 0.422259 0.010033
C7    C     C_R   0.497304 0.095322 0.586776 -0.175117
C8    C     C_R   0.560657 0.903893 0.428072 -0.175564
C9    C     C_R   0.496229 0.187063 0.586683 -0.203984
C10   C     C_R   0.560646 0.812113 0.427845 -0.205419
C11   C     C_R   0.497652 0.233110 0.499367 -0.024583
C12   C     C_R   0.499537 0.765862 0.500533 -0.020182
C13   C     C_R   0.497087 0.186025 0.412001 -0.199918
C14   C     C_R   0.436891 0.811743 0.572739 -0.180490
C15   C     C_R   0.494553 0.094199 0.412006 -0.174408
C16   C     C_R   0.433933 0.903510 0.571559 -0.175780
C17   C     C_R   0.495886 0.047908 0.499429 0.114291
C18   C     C_R   0.496591 0.950556 0.499585 0.105164
C19   C     C_R   0.596735 0.540815 0.109245 -0.298013
C20   C     C_R   0.440787 0.432270 0.890901 -0.301512
C21   C     C_R   0.592684 0.541863 0.210563 -0.021139
C22   C     C_R   0.439093 0.434988 0.789660 -0.014212
C23   C     C_R   0.262304 0.502308 0.499588 0.791046
C24   C     C_R   0.737774 0.497980 0.500445 0.793266
C25   C     C_R   0.409463 0.455252 0.208327 0.684967
C26   C     C_R   0.566249 0.563397 0.790850 0.679258
C27   C     C_R   0.406816 0.457889 0.106265 -0.376812
C28   C     C_R   0.562954 0.565420 0.893330 -0.400844
C29   C     C_R   0.502193 0.499069 0.054590 0.098983
C30   C     C_R   0.502096 0.498715 0.945205 0.118493
C31   C     C_R   0.257178 0.705772 0.284106 -0.112070
C32   C     C_R   0.754503 0.297640 0.726782 -0.126164
C33   C     C_R   0.197617 0.663144 0.360028 -0.114157
C34   C     C_R   0.809659 0.338773 0.647877 -0.101991
C35   C     C_R   0.120152 0.589780 0.341645 0.128731
C36   C     C_R   0.881118 0.415844 0.661489 0.133550
C37   C     C_R   0.100116 0.561713 0.245999 -0.095072
C38   C     C_R   0.898337 0.450003 0.755058 -0.153670
C39   C     C_R   0.159688 0.604650 0.170281 -0.141025
C40   C     C_R   0.841385 0.409452 0.833484 -0.151983
C41   C     C_R   0.238697 0.676280 0.189360 -0.124400
C42   C     C_R   0.769260 0.333429 0.819318 -0.108425
C43   C     C_R   0.932790 0.536280 0.423725 -0.249386
C44   C     C_R   0.067447 0.465308 0.576563 -0.242874
Cu1   Cu    Cu3+1 0.500000 0.499990 0.596430 0.983175
Cu2   Cu    Cu3+1 0.500000 0.500010 0.403570 0.973975
H1    H     H_    0.285423 0.709005 0.130711 0.124802
H2    H     H_    0.725514 0.301915 0.880113 0.122017
H3    H     H_    0.490775 0.059643 0.343472 0.119345
H4    H     H_    0.381396 0.937383 0.626351 0.123700
H5    H     H_    0.674551 0.572219 0.074660 0.134663
H6    H     H_    0.394528 0.377723 0.925771 0.136462
H7    H     H_    0.665036 0.575769 0.250717 0.137233
H8    H     H_    0.389645 0.384124 0.749649 0.137404
H9    H     H_    0.329028 0.428776 0.068190 0.143386
H10   H     H_    0.605730 0.619780 0.932154 0.121547
H11   H     H_    0.318048 0.761444 0.298805 0.132547
H12   H     H_    0.700764 0.237795 0.716375 0.120299
H13   H     H_    0.213096 0.686448 0.433166 0.095436
H14   H     H_    0.796818 0.310732 0.576419 0.103070
H15   H     H_    0.040305 0.505639 0.230312 0.122804
H16   H     H_    0.954516 0.508684 0.766945 0.120995
H17   H     H_    0.145398 0.581906 0.096870 0.122145
H18   H     H_    0.853301 0.436910 0.905234 0.121318
H19   H     H_    0.880338 0.566014 0.365625 0.143583
H20   H     H_    0.119807 0.435861 0.634916 0.154990
H21   H     H_    0.500582 0.061758 0.655372 0.121562
H22   H     H_    0.612169 0.938117 0.372958 0.124397
H23   H     H_    0.494920 0.221826 0.655105 0.141268
H24   H     H_    0.610283 0.777256 0.371991 0.139586
H25   H     H_    0.498262 0.219953 0.343580 0.135583
H26   H     H_    0.388029 0.776559 0.628708 0.144552
N1    N     N_R   0.500000 0.500020 0.258690 -0.203898
N2    N     N_R   0.500000 0.499980 0.741310 -0.196431
O1    O     O_R   0.500010 0.371450 0.581430 -0.597435
O2    O     O_R   0.499990 0.628550 0.418570 -0.594773
O3    O     O_R   0.500010 0.371460 0.418560 -0.576143
O4    O     O_R   0.499990 0.628540 0.581440 -0.528983
O5    O     O_R   0.319640 0.500000 0.581430 -0.604204
O6    O     O_R   0.680360 0.500000 0.418570 -0.603659
O7    O     O_R   0.319640 0.500010 0.418560 -0.516218
O8    O     O_R   0.680360 0.499990 0.581440 -0.539591
O9    O     O_3   0.314563 0.415312 0.258888 -0.557040
C45   C     C_3   0.292897 0.326794 0.229233 0.045118
H27   H     H_    0.301597 0.284199 0.293673 0.172413
H28   H     H_    0.359348 0.300800 0.175174 0.103831
C46   C     C_3   0.161295 0.316983 0.190829 -0.843672
H29   H     H_    0.147150 0.359748 0.127126 0.232988
H30   H     H_    0.143229 0.247208 0.169477 0.208842
H31   H     H_    0.094703 0.336112 0.247595 0.255199
O10   O     O_3   0.628108 0.627186 0.737478 -0.553048
C47   C     C_3   0.736721 0.659778 0.782861 0.023947
H32   H     H_    0.786976 0.607539 0.822947 0.129285
H33   H     H_    0.713242 0.714667 0.832896 0.141177
C48   C     C_3   0.822790 0.696010 0.706262 -0.767293
H34   H     H_    0.776273 0.749262 0.665363 0.250156
H35   H     H_    0.907851 0.723320 0.740857 0.189676
H36   H     H_    0.848893 0.642472 0.655481 0.249933

loop_
_geom_bond_atom_site_label_1
_geom_bond_atom_site_label_2
_ccdc_geom_bond_type
C21   H7    S    
C46   H29   S    
C27   C29   A    
C1    O3    A    
C44   H20   S    
C48   H34   S    
C1    C11   S    
C45   C46   S    
C32   H12   S    
C2    C12   S    
Cu2   O2    S    
C28   H10   S    
C48   H36   S    
C39   C41   A    
C20   C30   A    
Cu1   Cu2   S    
C3    C43   A    
C19   C21   A    
C9    H23   S    
C27   H9    S    
C5    C36   S    
C21   N1    A    
C6    C35   S    
C7    C9    A    
C24   O8    A    
C33   C35   A    
C24   O6    A    
Cu1   O8    S    
C7    C17   A    
C31   C33   A    
Cu1   O4    S    
C31   C41   A    
C25   N1    A    
C40   C42   A    
C33   H13   S    
C38   C40   A    
C34   H14   S    
C3    C24   S    
C1    O1    A    
C45   H27   S    
C22   H8    S    
O10   C47   S    
C4    C23   S    
C13   H25   S    
C26   O10   S    
C47   C48   S    
C8    C18   A    
C4    C44   A    
Cu1   N2    S    
C32   C34   A    
C29   C30   S    
C2    O4    A    
Cu2   O7    S    
O9    C45   S    
C43   H19   S    
C47   H33   S    
C17   C18   S    
C41   H1    S    
Cu1   O5    S    
C42   H2    S    
C9    C11   A    
C10   C12   A    
C10   H24   S    
C4    C6    A    
C5    C44   A    
C20   C22   A    
C8    H22   S    
C6    C43   A    
C13   C15   A    
C14   C16   A    
C22   N2    A    
C19   C29   A    
C2    O2    A    
C15   C17   A    
C20   H6    S    
C23   O7    A    
C35   C37   A    
C14   H26   S    
C8    C10   A    
C45   H28   S    
C3    C5    A    
Cu2   O3    S    
C37   H15   S    
C48   H35   S    
C25   C27   A    
C39   H17   S    
C26   C28   A    
C40   H18   S    
Cu1   O1    S    
C31   H11   S    
C28   C30   A    
C12   C14   A    
C37   C39   A    
Cu2   O6    S    
C11   C13   A    
C36   C38   A    
C47   H32   S    
C26   N2    A    
C34   C36   A    
C15   H3    S    
C16   H4    S    
C7    H21   S    
C19   H5    S    
C16   C18   A    
C46   H31   S    
C25   O9    S    
C46   H30   S    
C32   C42   A    
C23   O5    A    
Cu2   N1    S    
C38   H16   S    
