data_mof_unit_25974.cif
_audit_creation_date              2013-03-05T16:12:06-0500
_audit_creation_method            fapswitch 2.2
_symmetry_space_group_name_H-M    P1
_symmetry_Int_Tables_number       1
_space_group_crystal_system       triclinic
_cell_length_a                    9.888762
_cell_length_b                    10.645916
_cell_length_c                    16.929585
_cell_angle_alpha                 90.408603
_cell_angle_beta                  82.555423
_cell_angle_gamma                 89.570076
_cell_volume                      1767.128811

loop_
_atom_site_label
_atom_site_type_symbol
_atom_site_description
_atom_site_fract_x
_atom_site_fract_y
_atom_site_fract_z
_atom_type_partial_charge
O1    O     O_R   0.385380 0.683250 0.500010 -0.631736
O2    O     O_R   0.614620 0.316750 0.499990 -0.631724
O3    O     O_R   0.614710 0.683220 0.500000 -0.607947
O4    O     O_R   0.385290 0.316780 0.500000 -0.607955
C1    C     C_R   0.499670 0.739838 0.500223 0.899572
C2    C     C_R   0.500330 0.260162 0.499777 0.899520
O5    O     O_R   0.371780 0.500040 0.615800 -0.578513
O6    O     O_R   0.628220 0.499960 0.384200 -0.578541
O7    O     O_R   0.601110 0.500010 0.615800 -0.632255
O8    O     O_R   0.398890 0.499990 0.384200 -0.632232
C3    C     C_R   0.478076 0.498391 0.652334 0.938783
C4    C     C_R   0.521923 0.501607 0.347666 0.938768
Zn1   Zn    Zn3+2 0.346870 0.500020 0.500000 0.983617
Zn2   Zn    Zn3+2 0.653130 0.499980 0.500000 0.983596
C5    C     C_R   0.457718 0.509876 0.737382 -0.138156
C6    C     C_R   0.542277 0.490197 0.262616 -0.138161
C7    C     C_R   0.411350 0.408496 0.786669 0.274494
C8    C     C_R   0.588493 0.591665 0.213370 0.274581
C9    C     C_R   0.406862 0.424460 0.868712 -0.217870
C10   C     C_R   0.592943 0.575789 0.131324 -0.217800
C11   C     C_R   0.447815 0.537984 0.900321 0.122912
C12   C     C_R   0.552106 0.462257 0.099670 0.122942
C13   C     C_R   0.483651 0.640002 0.851236 -0.157529
C14   C     C_R   0.516419 0.360158 0.148714 -0.157555
C15   C     C_R   0.490246 0.625421 0.769644 -0.249324
C16   C     C_R   0.509857 0.374654 0.230310 -0.249389
C17   C     C_2   0.468408 0.546799 0.983315 -0.205565
C18   C     C_2   0.531521 0.453475 0.016673 -0.205527
H1    H     H_    0.476414 0.296621 0.268610 0.154250
H2    H     H_    0.523798 0.703390 0.731314 0.154212
H3    H     H_    0.559648 0.366504 0.984437 0.165298
H4    H     H_    0.440277 0.633775 0.015544 0.165291
H5    H     H_    0.514453 0.728080 0.875666 0.153439
H6    H     H_    0.485713 0.272072 0.124250 0.153443
H7    H     H_    0.624652 0.652955 0.092003 0.178208
H8    H     H_    0.375053 0.347362 0.908068 0.178266
C19   C     C_R   0.596294 0.935368 0.538395 -0.200403
C20   C     C_R   0.403706 0.064632 0.461605 -0.200359
H9    H     H_    0.669976 0.885287 0.568804 0.146740
H10   H     H_    0.330024 0.114713 0.431196 0.146750
C21   C     C_R   0.596631 0.064097 0.538265 -0.168686
C22   C     C_R   0.403369 0.935903 0.461735 -0.168575
H11   H     H_    0.670155 0.113774 0.568792 0.154241
H12   H     H_    0.329845 0.886225 0.431208 0.154254
C23   C     C_R   0.500556 0.127720 0.499723 0.012223
C24   C     C_R   0.499444 0.872280 0.500277 0.012246
C25   C     C_R   0.941778 0.424428 0.448229 0.051660
C26   C     C_R   0.058222 0.575570 0.551772 0.051669
C27   C     C_R   0.085027 0.424795 0.448702 -0.115136
C28   C     C_R   0.914973 0.575205 0.551298 -0.115143
H13   H     H_    0.150131 0.364754 0.407846 0.139968
H14   H     H_    0.849869 0.635244 0.592155 0.139959
N1    N     N_R   0.142790 0.500030 0.500020 -0.097472
N2    N     N_R   0.857210 0.499970 0.499980 -0.097474
N3    N     N_R   0.377266 0.288053 0.755289 0.187721
O9    O     O_R   0.388798 0.186639 0.796475 -0.418002
O10   O     O_R   0.323044 0.279348 0.689496 -0.411884
N4    N     N_R   0.622468 0.712101 0.244803 0.187694
O11   O     O_R   0.610692 0.813563 0.203701 -0.418031
O12   O     O_R   0.676846 0.720763 0.310546 -0.411898
C29   C     C_R   0.887349 0.341011 0.390617 0.140048
C30   C     C_R   0.878214 0.382615 0.312975 -0.112052
C31   C     C_R   0.833872 0.300900 0.256755 -0.155633
C32   C     C_R   0.800240 0.176993 0.277444 -0.106109
C33   C     C_R   0.813671 0.133881 0.353889 -0.130270
C34   C     C_R   0.859231 0.215085 0.409984 -0.149003
H15   H     H_    0.904396 0.478330 0.296266 0.152041
H16   H     H_    0.825193 0.333771 0.197228 0.153897
H17   H     H_    0.765038 0.114114 0.234034 0.170379
H18   H     H_    0.789467 0.037440 0.369559 0.176102
H19   H     H_    0.871697 0.180301 0.468604 0.127864
C35   C     C_R   0.112650 0.658975 0.609390 0.140038
C36   C     C_R   0.121779 0.617359 0.687030 -0.112058
C37   C     C_R   0.166126 0.699060 0.743255 -0.155601
C38   C     C_R   0.199771 0.822967 0.722574 -0.106085
C39   C     C_R   0.186345 0.866092 0.646131 -0.130319
C40   C     C_R   0.140780 0.784901 0.590031 -0.148998
H20   H     H_    0.095589 0.521643 0.703733 0.152072
H21   H     H_    0.174803 0.666179 0.802780 0.153884
H22   H     H_    0.234977 0.885835 0.765987 0.170371
H23   H     H_    0.210560 0.962533 0.630467 0.176088
H24   H     H_    0.128320 0.819696 0.531412 0.127865

loop_
_geom_bond_atom_site_label_1
_geom_bond_atom_site_label_2
_geom_bond_distance
_ccdc_geom_bond_type
N3    O9    1.301651 A    
C2    C23   1.409947 S    
C36   C37   1.398915 A    
O7    Zn2   1.961282 S    
C25   C27   1.417652 A    
O5    C3    1.286899 A    
C30   C31   1.398918 A    
C30   H15   1.083725 S    
O1    C1    1.285109 A    
C9    C11   1.401881 A    
C14   C16   1.381975 A    
C20   C22   1.370481 A    
C9    H8    1.083477 S    
C5    C15   1.398846 A    
N4    O12   1.300317 A    
C33   H18   1.083008 S    
C22   C24   1.394436 A    
O4    Zn1   1.984610 S    
C20   C23   1.395846 A    
C10   H7    1.083464 S    
C3    C5    1.431977 S    
C29   C34   1.403659 A    
C8    N4    1.443267 S    
C4    C6    1.431961 S    
C13   H5    1.083726 S    
C28   H14   1.083315 S    
C36   H20   1.083722 S    
C38   H22   1.082651 S    
C7    N3    1.443296 S    
C26   C28   1.417653 A    
C11   C17   1.448099 S    
C12   C18   1.448112 S    
C21   H11   1.083808 S    
O2    C2    1.285110 A    
C22   H12   1.083809 S    
C26   C35   1.469855 S    
Zn1   N1    2.018054 S    
C6    C16   1.398821 A    
C26   N1    1.379743 A    
C37   C38   1.398678 A    
C39   C40   1.398998 A    
O4    C2    1.282975 A    
C27   H13   1.083316 S    
N4    O11   1.301654 A    
C14   H6    1.083723 S    
C38   C39   1.398316 A    
C35   C40   1.403654 A    
C34   H19   1.083269 S    
O6    C4    1.286897 A    
C28   N2    1.359464 A    
C32   H17   1.082656 S    
O7    C3    1.291728 A    
O3    Zn2   1.984610 S    
O8    C4    1.291717 A    
C25   N2    1.379743 A    
Zn2   N2    2.018055 S    
C10   C12   1.401881 A    
C37   H21   1.082781 S    
N3    O10   1.300301 A    
C12   C14   1.392133 A    
O1    Zn1   1.990281 S    
C15   H2    1.084510 S    
C5    C7    1.411542 A    
C31   H16   1.082784 S    
O6    Zn2   2.007277 S    
C17   H4    1.087222 S    
C18   H3    1.087231 S    
C35   C36   1.403770 A    
O3    C1    1.282974 A    
O8    Zn1   1.961282 S    
C39   H23   1.083003 S    
C25   C29   1.469858 S    
C1    C24   1.409946 S    
C32   C33   1.398320 A    
C11   C13   1.392131 A    
C19   H9    1.084191 S    
C20   H10   1.084191 S    
C40   H24   1.083266 S    
C27   N1    1.359464 A    
C7    C9    1.393055 A    
C8    C10   1.393044 A    
C13   C15   1.381970 A    
C19   C21   1.370481 A    
C29   C30   1.403773 A    
O2    Zn2   1.990281 S    
C31   C32   1.398686 A    
O5    Zn1   2.007277 S    
C16   H1    1.084499 S    
C6    C8    1.411502 A    
C33   C34   1.399002 A    
C17   C18   1.336244 D    
C21   C23   1.394436 A    
C19   C24   1.395845 A    
