data_mof_unit_58497.cif
_audit_creation_date              2012-12-10T16:53:08-0500
_audit_creation_method            fapswitch 2.2
_symmetry_space_group_name_H-M    P1
_symmetry_Int_Tables_number       1
_space_group_crystal_system       triclinic
_cell_length_a                    10.854171
_cell_length_b                    10.94884
_cell_length_c                    9.709461
_cell_angle_alpha                 89.35855
_cell_angle_beta                  89.467645
_cell_angle_gamma                 90.519259
_cell_volume                      1153.70739288

loop_
_atom_site_label
_atom_site_type_symbol
_atom_type_description
_atom_site_fract_x
_atom_site_fract_y
_atom_site_fract_z
_atom_type_partial_charge
C1    C     C_R   0.505645 0.266050 0.500208 0.785069
C2    C     C_R   0.061488 0.523754 0.631351 -0.117750
C3    C     C_R   0.128790 0.524366 0.505244 -0.137494
C4    C     C_R   0.065871 0.518428 0.380511 -0.203194
C5    C     C_R   0.939169 0.506962 0.379070 0.671491
C6    C     C_R   0.873156 0.488480 0.502854 -0.146448
C7    C     C_2   0.477138 0.940477 0.390522 0.312817
C8    C     C_2   0.469761 0.864720 0.500964 0.396670
C9    C     C_2   0.456809 0.069774 0.413236 -0.241734
C10   C     C_2   0.527764 0.136380 0.497211 0.304976
C11   C     C_2   0.462684 0.408955 0.929258 0.478291
C12   C     C_R   0.262910 0.511310 0.501221 0.864652
C13   C     C_2   0.497183 0.403369 0.077728 -0.045851
C14   C     C_R   0.494238 0.734510 0.499132 0.784438
C15   C     C_R   0.737952 0.492956 0.500267 0.871728
C16   C     C_R   0.111594 0.559876 0.759439 0.525712
C17   C     C_R   0.053757 0.524837 0.882731 0.550497
C18   C     C_R   0.944379 0.457946 0.879950 0.545185
C19   C     C_R   0.885547 0.438920 0.755077 -0.303569
C20   C     C_R   0.938135 0.482880 0.629646 -0.129863
Cu1   Cu    Cu3+1 0.500020 0.500020 0.638630 1.130153
Cu2   Cu    Cu3+1 0.499980 0.499980 0.361370 1.108037
H1    H     H_    0.114777 0.522967 0.282845 0.251605
H2    H     H_    0.556212 0.562779 0.889902 0.198207
H3    H     H_    0.505533 0.314377 0.126568 0.216191
H4    H     H_    0.478626 0.580382 0.105156 0.250595
H5    H     H_    0.800905 0.386539 0.758815 0.251611
H6    H     H_    0.382842 0.112516 0.355806 0.170783
N1    N     N_2   0.498640 0.498660 0.846910 -0.307299
N2    N     N_2   0.498610 0.498630 0.153040 -0.275489
O1    O     O_R   0.500020 0.321960 0.617040 -0.502667
O2    O     O_R   0.499980 0.321920 0.382900 -0.609030
O3    O     O_R   0.319670 0.500020 0.617100 -0.491874
O4    O     O_R   0.319630 0.499980 0.382950 -0.586221
O5    O     O_R   0.500020 0.678080 0.617100 -0.508854
O6    O     O_R   0.499980 0.678040 0.382960 -0.558834
O7    O     O_R   0.680370 0.500020 0.617050 -0.607568
O8    O     O_R   0.680330 0.499980 0.382900 -0.492826
S1    S     S_3+6 0.667648 0.083029 0.569989 0.071548
O9    O     O_2   0.642454 0.020570 0.706010 -0.194523
O10   O     O_2   0.729489 0.994964 0.474484 -0.254741
O11   O     O_3   0.762903 0.202363 0.594907 -0.563909
H7    H     H_    0.838897 0.166431 0.633124 0.391644
S2    S     S_3+6 0.368797 0.283179 0.880075 0.075346
O12   O     O_2   0.292763 0.242549 0.002800 -0.255385
O13   O     O_2   0.282938 0.312487 0.764722 -0.287452
O14   O     O_3   0.460068 0.167002 0.834978 -0.478344
H8    H     H_    0.403045 0.097675 0.818432 0.418397
F1    F     F_    0.208822 0.638464 0.766181 -0.573288
F2    F     F_    0.104773 0.554812 0.004903 -0.571697
F3    F     F_    0.891889 0.415877 0.998643 -0.541415
F4    F     F_    0.882209 0.511874 0.255398 -0.546655
S3    S     S_3+6 0.512914 0.898089 0.219104 0.066388
O15   O     O_2   0.633365 0.831395 0.215192 -0.228998
O16   O     O_2   0.412115 0.817275 0.165011 -0.257630
O17   O     O_3   0.524606 0.024157 0.119058 -0.474204
H9    H     H_    0.549840 0.994065 0.027292 0.416455
F5    F     F_    0.431798 0.910003 0.624412 -0.613684

loop_
_geom_bond_atom_site_label_1
_geom_bond_atom_site_label_2
_ccdc_geom_bond_type
C17   F2    S    
C5    F4    S    
Cu1   N1    S    
C7    C8    D    
Cu1   O5    S    
C11   C13   S    
C9    C10   D    
C19   C20   A    
S2    O14   S    
C17   C18   A    
C6    C15   S    
Cu1   O7    S    
C11   S2    S    
S1    O10   D    
C15   O7    A    
Cu1   Cu2   S    
C16   F1    S    
Cu1   O1    S    
C13   H3    S    
C16   C17   A    
C15   O8    A    
Cu2   O2    S    
C6    C20   A    
C19   H5    S    
S2    O13   D    
C18   F3    S    
H4    N2    S    
S1    O11   S    
C2    C3    A    
S3    O16   D    
C14   O6    A    
C5    C6    A    
Cu2   O4    S    
S2    O12   D    
Cu1   O3    S    
O11   H7    S    
C7    S3    S    
C2    C20   A    
C3    C4    A    
Cu2   O8    S    
C13   N2    D    
C1    O1    A    
C2    C16   A    
O17   H9    S    
C11   N1    D    
C18   C19   A    
S3    O17   S    
S1    O9    D    
C7    C9    S    
C4    H1    S    
H2    N1    S    
C10   S1    S    
C8    C14   S    
C3    C12   S    
Cu2   N2    S    
C8    F5    S    
C12   O3    A    
S3    O15   D    
C12   O4    A    
C14   O5    A    
C1    O2    A    
Cu2   O6    S    
C1    C10   S    
O14   H8    S    
C9    H6    S    
C4    C5    A    
