data_mof_unit_24879.cif
_audit_creation_date              2012-12-11T15:50:34-0500
_audit_creation_method            fapswitch 2.2
_symmetry_space_group_name_H-M    P1
_symmetry_Int_Tables_number       1
_space_group_crystal_system       triclinic
_cell_length_a                    18.893046
_cell_length_b                    10.999078
_cell_length_c                    18.773086
_cell_angle_alpha                 89.835987
_cell_angle_beta                  91.255217
_cell_angle_gamma                 90.159331
_cell_volume                      3900.19500456

loop_
_atom_site_label
_atom_site_type_symbol
_atom_type_description
_atom_site_fract_x
_atom_site_fract_y
_atom_site_fract_z
_atom_type_partial_charge
C1    C     C_R   0.274014 0.038047 0.855078 0.546995
C2    C     C_R   0.761918 0.563593 0.929328 0.019711
C3    C     C_R   0.229629 0.547343 0.352994 0.549575
C4    C     C_R   0.470853 0.823454 0.647596 0.544413
C5    C     C_R   0.532884 0.823194 0.354730 0.547812
C6    C     C_R   0.970637 0.323386 0.647487 0.543759
C7    C     C_R   0.032169 0.323501 0.354294 0.537619
C8    C     C_R   0.260198 0.639675 0.642519 0.545696
C9    C     C_R   0.738706 0.641817 0.358500 0.547080
C10   C     C_R   0.759509 0.137518 0.643562 0.544059
C11   C     C_R   0.225446 0.190513 0.363022 0.571719
C12   C     C_3   0.458885 0.912470 0.029840 -0.131060
C13   C     C_R   0.741177 0.077378 0.072622 0.018229
C14   C     C_3   0.515601 0.942432 0.973992 -0.121601
C15   C     C_3   0.958885 0.412472 0.029842 -0.131351
C16   C     C_3   0.015602 0.442430 0.973993 -0.121350
C17   C     C_3   0.433913 0.802450 0.984881 -0.097668
C18   C     C_3   0.568874 0.858727 0.014004 -0.113171
C19   C     C_3   0.933910 0.302454 0.984883 -0.097806
C20   C     C_3   0.068873 0.358722 0.014005 -0.113016
C21   C     C_3   0.491393 0.831497 0.930390 0.056349
C22   C     C_3   0.511417 0.828474 0.068245 0.053084
C23   C     C_3   0.991390 0.331496 0.930391 0.056418
C24   C     C_R   0.261912 0.063611 0.929323 0.019710
C25   C     C_3   0.011416 0.328473 0.068246 0.052637
C26   C     C_R   0.305446 0.554444 0.039808 0.002581
C27   C     C_R   0.704895 0.516947 0.966495 0.015322
C28   C     C_R   0.805446 0.054440 0.039807 0.002333
C29   C     C_R   0.204887 0.016971 0.966489 0.015314
C30   C     C_R   0.310932 0.563217 0.966204 0.020569
C31   C     C_R   0.700206 0.527732 0.038207 0.022687
C32   C     C_R   0.810932 0.063213 0.966203 0.020691
C33   C     C_R   0.726530 0.040425 0.145410 0.543798
C34   C     C_R   0.200198 0.027756 0.038201 0.022261
C35   C     C_R   0.187327 0.615052 0.956094 -0.171677
C36   C     C_R   0.813485 0.623832 0.043978 -0.182535
C37   C     C_R   0.687328 0.115053 0.956094 -0.171628
C38   C     C_R   0.313479 0.123848 0.043973 -0.182907
C39   C     C_R   0.183128 0.614670 0.029560 -0.169267
C40   C     C_R   0.817451 0.616376 0.970260 -0.168831
C41   C     C_R   0.683130 0.114674 0.029560 -0.169237
C42   C     C_R   0.317444 0.116396 0.970255 -0.168877
C43   C     C_3   0.350885 0.444377 0.043959 -0.273272
C44   C     C_R   0.774017 0.538041 0.855080 0.546633
C45   C     C_3   0.638000 0.445534 0.959665 -0.275686
C46   C     C_3   0.850881 0.944368 0.043957 -0.273300
C47   C     C_3   0.137999 0.945537 0.959661 -0.275783
C48   C     C_3   0.357378 0.453705 0.963820 -0.279680
C49   C     C_3   0.631381 0.461978 0.040804 -0.276637
C50   C     C_3   0.857374 0.953697 0.963818 -0.279653
C51   C     C_3   0.131380 0.961981 0.040801 -0.276298
C52   C     C_R   0.251335 0.589394 0.923166 0.017944
C53   C     C_R   0.752263 0.585525 0.079351 0.019185
C54   C     C_R   0.751335 0.089393 0.923166 0.018065
C55   C     C_R   0.226529 0.540424 0.145410 0.546412
C56   C     C_R   0.252258 0.085540 0.079346 0.018377
C57   C     C_R   0.517195 0.829705 0.430117 0.021798
C58   C     C_R   0.505816 0.830508 0.579242 0.017711
C59   C     C_R   0.014538 0.331027 0.429110 0.018276
C60   C     C_R   0.004079 0.329333 0.578418 0.020570
C61   C     C_R   0.470794 0.822143 0.855236 0.542178
C62   C     C_R   0.530703 0.821456 0.143852 0.547609
C63   C     C_R   0.970793 0.322143 0.855237 0.542538
C64   C     C_R   0.030703 0.321456 0.143853 0.547821
C65   C     C_R   0.524981 0.723199 0.469721 0.042554
C66   C     C_3   0.544094 0.748591 0.969177 -0.130783
C67   C     C_R   0.520109 0.722842 0.542499 0.027238
C68   C     C_R   0.015949 0.223231 0.467630 0.025566
C69   C     C_R   0.012448 0.221392 0.540211 0.026950
C70   C     C_R   0.510344 0.941119 0.541801 -0.170761
C71   C     C_R   0.514770 0.940706 0.467166 -0.163041
C72   C     C_R   0.013885 0.440078 0.542248 -0.169042
C73   C     C_R   0.018660 0.440960 0.467541 -0.161721
C74   C     C_3   0.487024 0.605089 0.460923 -0.278067
C75   C     C_3   0.482404 0.602565 0.541103 -0.268900
C76   C     C_3   0.973735 0.110026 0.457679 -0.282156
C77   C     C_3   0.487016 0.718514 0.024180 -0.112316
C78   C     C_3   0.969834 0.106136 0.538040 -0.266086
C79   C     C_R   0.254244 0.595812 0.420118 0.018405
C80   C     C_R   0.748667 0.605351 0.581370 0.019617
C81   C     C_R   0.751731 0.088398 0.422447 0.014809
C82   C     C_R   0.246866 0.113116 0.583272 0.019509
C83   C     C_R   0.219308 0.692125 0.452229 0.021705
C84   C     C_R   0.797672 0.676930 0.544848 0.020864
C85   C     C_R   0.716394 0.184268 0.454334 0.015036
C86   C     C_R   0.295498 0.188542 0.548864 0.025023
C87   C     C_R   0.219339 0.699533 0.524905 0.046751
C88   C     C_3   0.044090 0.248587 0.969178 -0.130738
C89   C     C_R   0.794563 0.682099 0.472331 0.035882
C90   C     C_R   0.716181 0.191885 0.526884 0.050707
C91   C     C_R   0.286763 0.216537 0.477975 0.019990
C92   C     C_R   0.299271 0.530475 0.535918 -0.175149
C93   C     C_R   0.685242 0.569810 0.470537 -0.152102
C94   C     C_R   0.794362 0.019951 0.538608 -0.178304
C95   C     C_R   0.173833 0.113604 0.476021 -0.156138
C96   C     C_R   0.300893 0.524435 0.461961 -0.171262
C97   C     C_R   0.687669 0.564857 0.544866 -0.155230
C98   C     C_R   0.795681 0.012436 0.464778 -0.166304
C99   C     C_3   0.987012 0.218515 0.024182 -0.112482
C100  C     C_R   0.182332 0.086351 0.548611 -0.160634
C101  C     C_3   0.145059 0.739938 0.445980 -0.272912
C102  C     C_3   0.877377 0.675181 0.544291 -0.268548
C103  C     C_3   0.640979 0.226602 0.448104 -0.270161
C104  C     C_3   0.373657 0.171594 0.541509 -0.269220
C105  C     C_3   0.145007 0.744348 0.526504 -0.267654
C106  C     C_3   0.872755 0.680674 0.464127 -0.279929
C107  C     C_3   0.640783 0.231371 0.528388 -0.266190
C108  C     C_3   0.363942 0.199850 0.463644 -0.269534
C109  C     C_R   0.260669 0.635294 0.851306 0.542694
C110  C     C_R   0.241176 0.577377 0.072622 0.018219
C111  C     C_R   0.739936 0.634062 0.149594 0.545002
C112  C     C_R   0.760669 0.135294 0.851306 0.541972
C113  C     C_R   0.239935 0.134065 0.149594 0.553816
C114  C     C_R   0.254194 0.613594 0.567865 0.025928
C115  C     C_R   0.742686 0.619250 0.433803 0.023395
C116  C     C_R   0.751321 0.106642 0.569964 0.024719
C117  C     C_R   0.228555 0.172086 0.439385 0.017714
C118  C     C_R   0.270670 0.048790 0.646981 0.548150
C119  C     C_R   0.729095 0.045607 0.353698 0.555098
C120  C     C_R   0.770627 0.548847 0.647393 0.550404
Cr1   Cr    Cr6+3 0.229640 0.835880 0.747370 1.008628
Cr2   Cr    Cr6+3 0.614230 0.677220 0.250660 1.009758
Cr3   Cr    Cr6+3 0.885770 0.177220 0.749340 1.007808
Cr4   Cr    Cr6+3 0.114230 0.177220 0.250660 1.006241
Cr5   Cr    Cr6+3 0.770360 0.835880 0.252630 1.005147
Cr6   Cr    Cr6+3 0.729640 0.335880 0.747370 1.008071
Cr7   Cr    Cr6+3 0.270360 0.335880 0.252630 0.998977
Cr8   Cr    Cr6+3 0.387390 0.989720 0.750850 1.006158
Cr9   Cr    Cr6+3 0.612610 0.989720 0.249150 1.007766
Cr10  Cr    Cr6+3 0.887390 0.489720 0.750850 1.005200
Cr11  Cr    Cr6+3 0.112610 0.489720 0.249150 1.001526
Cr12  Cr    Cr6+3 0.385770 0.677220 0.749340 1.008231
H1    H     H_    0.377739 0.782344 0.971086 0.126980
H2    H     H_    0.915678 0.120239 0.557283 0.178878
H3    H     H_    0.520570 0.531702 0.439605 0.130406
H4    H     H_    0.427384 0.609178 0.559313 0.175826
H5    H     H_    0.434966 0.616036 0.433033 0.143168
H6    H     H_    0.514281 0.528823 0.566447 0.122358
H7    H     H_    0.922009 0.127474 0.430326 0.145283
H8    H     H_    0.998849 0.028088 0.562414 0.124469
H9    H     H_    0.331880 0.469311 0.567781 0.125182
H10   H     H_    0.640255 0.531968 0.441984 0.125851
H11   H     H_    0.826417 0.958587 0.570890 0.124311
H12   H     H_    0.624946 0.879693 0.027967 0.124922
H13   H     H_    0.127540 0.080364 0.447542 0.138968
H14   H     H_    0.332786 0.455455 0.437985 0.137414
H15   H     H_    0.645739 0.519895 0.573003 0.117038
H16   H     H_    0.825900 0.940204 0.441420 0.144497
H17   H     H_    0.141759 0.035407 0.575434 0.117599
H18   H     H_    0.143106 0.831662 0.420963 0.137741
H19   H     H_    0.901358 0.757991 0.568717 0.124586
H20   H     H_    0.636600 0.317410 0.422471 0.125786
H21   H     H_    0.405089 0.241337 0.571161 0.130339
H22   H     H_    0.141445 0.837507 0.547916 0.143248
H23   H     H_    0.877736 0.282351 0.971089 0.126918
H24   H     H_    0.893987 0.766616 0.441891 0.133502
H25   H     H_    0.634536 0.324057 0.549636 0.139745
H26   H     H_    0.391814 0.284075 0.447713 0.124156
H27   H     H_    0.108381 0.677373 0.550604 0.132989
H28   H     H_    0.891423 0.596470 0.437908 0.139458
H29   H     H_    0.605912 0.161892 0.552664 0.134021
H30   H     H_    0.374561 0.119901 0.429332 0.159270
H31   H     H_    0.424996 0.977284 0.058134 0.116785
H32   H     H_    0.527210 0.033709 0.951776 0.104968
H33   H     H_    0.925000 0.477287 0.058138 0.116136
H34   H     H_    0.124945 0.379684 0.027968 0.124849
H35   H     H_    0.027213 0.533706 0.951777 0.104983
H36   H     H_    0.580768 0.687569 0.941692 0.115148
H37   H     H_    0.474486 0.627439 0.045849 0.113589
H38   H     H_    0.080762 0.187561 0.941693 0.115171
H39   H     H_    0.974479 0.127441 0.045851 0.113592
H40   H     H_    0.140535 0.639446 0.924958 0.125007
H41   H     H_    0.857698 0.665069 0.072659 0.131324
H42   H     H_    0.640535 0.139448 0.924959 0.124957
H43   H     H_    0.357695 0.165079 0.072654 0.131497
H44   H     H_    0.131897 0.633732 0.051742 0.141569
H45   H     H_    0.504442 0.026661 0.569223 0.117002
H46   H     H_    0.865482 0.649121 0.946149 0.143390
H47   H     H_    0.631899 0.133739 0.051742 0.141543
H48   H     H_    0.365476 0.149139 0.946145 0.143388
H49   H     H_    0.820448 0.863944 0.061208 0.172856
H50   H     H_    0.148172 0.850639 0.943706 0.160288
H51   H     H_    0.320452 0.363951 0.061211 0.172512
H52   H     H_    0.648163 0.350633 0.943709 0.160292
H53   H     H_    0.411832 0.476930 0.946963 0.143081
H54   H     H_    0.587387 0.522419 0.056128 0.150903
H55   H     H_    0.911829 0.976918 0.946961 0.143103
H56   H     H_    0.513248 0.025975 0.438520 0.118593
H57   H     H_    0.087380 0.022408 0.056125 0.150793
H58   H     H_    0.332108 0.376854 0.934431 0.139558
H59   H     H_    0.635607 0.375392 0.071213 0.138567
H60   H     H_    0.832102 0.876848 0.934428 0.139472
H61   H     H_    0.135615 0.875396 0.071209 0.139430
H62   H     H_    0.105574 0.674616 0.424347 0.159639
H63   H     H_    0.899896 0.587912 0.563239 0.174607
H64   H     H_    0.603226 0.158092 0.426891 0.164358
H65   H     H_    0.389693 0.075959 0.550804 0.164177
H66   H     H_    0.401393 0.460483 0.073813 0.126544
H67   H     H_    0.013099 0.525287 0.570773 0.113628
H68   H     H_    0.596079 0.491181 0.927355 0.125482
H69   H     H_    0.901391 0.960469 0.073810 0.126399
H70   H     H_    0.096073 0.991171 0.927352 0.125544
H71   H     H_    0.023406 0.526792 0.440006 0.122013
H72   H     H_    0.004938 0.034139 0.435445 0.132707
O1    O     O_R   0.214300 0.709080 0.827500 -0.530073
O2    O     O_R   0.543340 0.717710 0.330180 -0.519893
O3    O     O_R   0.956660 0.217710 0.669820 -0.524875
O4    O     O_R   0.043340 0.217710 0.330180 -0.527722
O5    O     O_R   0.320590 0.625770 0.672930 -0.511877
O6    O     O_R   0.679410 0.625770 0.327070 -0.510827
O7    O     O_R   0.820590 0.125770 0.672930 -0.513263
O8    O     O_R   0.179410 0.125770 0.327070 -0.510163
O9    O     O_3   0.334270 0.834280 0.749190 -0.248029
O10   O     O_3   0.665730 0.834280 0.250810 -0.249773
O11   O     O_3   0.834270 0.334280 0.749190 -0.247379
O12   O     O_R   0.785700 0.709080 0.172500 -0.535981
O13   O     O_3   0.165730 0.334280 0.250810 -0.270054
O14   O     O_R   0.236190 0.958390 0.823150 -0.501167
O15   O     O_R   0.763810 0.958390 0.176850 -0.504105
O16   O     O_R   0.736190 0.458390 0.823150 -0.501455
O17   O     O_R   0.263810 0.458390 0.176850 -0.503313
O18   O     O_R   0.332090 0.075280 0.831290 -0.530555
O19   O     O_R   0.667910 0.075280 0.168710 -0.529864
O20   O     O_R   0.832090 0.575280 0.831290 -0.530708
O21   O     O_R   0.167910 0.575280 0.168710 -0.527602
O22   O     O_R   0.446280 0.918040 0.826620 -0.506143
O23   O     O_R   0.714300 0.209080 0.827500 -0.530486
O24   O     O_R   0.553720 0.918040 0.173380 -0.504973
O25   O     O_R   0.946280 0.418040 0.826620 -0.505918
O26   O     O_R   0.053720 0.418040 0.173380 -0.503458
O27   O     O_R   0.457080 0.716270 0.831760 -0.521541
O28   O     O_R   0.542920 0.716270 0.168240 -0.526155
O29   O     O_R   0.957080 0.216270 0.831760 -0.521318
O30   O     O_R   0.042920 0.216270 0.168240 -0.525388
O31   O     O_R   0.320980 0.624440 0.823040 -0.498133
O32   O     O_R   0.679020 0.624440 0.176960 -0.498559
O33   O     O_R   0.820980 0.124440 0.823040 -0.498468
O34   O     O_R   0.285700 0.209080 0.172500 -0.532662
O35   O     O_R   0.179020 0.124440 0.176960 -0.493827
O36   O     O_R   0.213880 0.710510 0.665560 -0.520682
O37   O     O_R   0.786120 0.710510 0.334440 -0.521106
O38   O     O_R   0.713880 0.210510 0.665560 -0.520156
O39   O     O_R   0.286120 0.210510 0.334440 -0.522520
O40   O     O_R   0.235800 0.959720 0.673040 -0.506240
O41   O     O_R   0.764200 0.959720 0.326960 -0.511611
O42   O     O_R   0.735800 0.459720 0.673040 -0.505942
O43   O     O_R   0.264200 0.459720 0.326960 -0.526130
O44   O     O_R   0.331670 0.076720 0.669350 -0.524047
O45   O     O_R   0.445900 0.919370 0.676500 -0.509279
O46   O     O_R   0.668330 0.076720 0.330650 -0.525095
O47   O     O_R   0.831670 0.576720 0.669350 -0.527339
O48   O     O_R   0.168330 0.576720 0.330650 -0.523773
O49   O     O_R   0.554100 0.919370 0.323500 -0.507811
O50   O     O_R   0.945900 0.419370 0.676500 -0.510735
O51   O     O_R   0.054100 0.419370 0.323500 -0.509783
O52   O     O_R   0.456660 0.717710 0.669820 -0.525511

loop_
_geom_bond_atom_site_label_1
_geom_bond_atom_site_label_2
_ccdc_geom_bond_type
C38   C56   A    
Cr1   O40   S    
Cr2   O32   S    
C80   C120  S    
C34   C56   A    
Cr11  O48   S    
Cr3   O11   S    
C21   C66   S    
C36   C40   A    
C19   H23   S    
Cr1   O14   S    
Cr2   O2    S    
Cr5   O41   S    
Cr6   O23   S    
C95   H13   S    
C120  O47   A    
Cr1   O1    S    
C71   H56   S    
Cr9   O19   S    
C86   C104  S    
C102  H63   S    
C13   C41   A    
C84   C89   A    
Cr10  O47   S    
C105  H27   S    
C24   C42   A    
C95   C117  A    
C45   H68   S    
C15   C19   S    
C89   C115  A    
C73   H71   S    
C28   C46   S    
C34   C51   S    
C3    O43   A    
C29   C47   S    
C94   H11   S    
C60   C69   A    
C14   C21   S    
C30   C48   S    
C76   C78   S    
C90   C107  S    
C38   C42   A    
C86   C91   A    
C93   C115  A    
C35   C39   A    
C80   C97   A    
Cr5   O12   S    
C118  O44   A    
C15   C25   S    
C82   C118  S    
C99   H39   S    
C81   C98   A    
C94   C98   A    
C16   H35   S    
C15   C16   S    
C12   C22   S    
C101  H18   S    
C92   C96   A    
C84   C102  S    
C6    O50   A    
C104  H65   S    
C5    O49   A    
Cr9   O10   S    
C14   C18   S    
C24   C29   A    
C87   C114  A    
C36   C53   A    
C61   O27   A    
C5    O2    A    
Cr3   O29   S    
C63   O25   A    
C25   C99   S    
C39   C110  A    
C2    C44   S    
C49   H54   S    
C107  H29   S    
C42   H48   S    
C68   C69   A    
C65   C67   A    
Cr3   O7    S    
C12   C17   S    
Cr6   O38   S    
C54   C112  S    
C56   C113  S    
C91   C117  A    
C13   C28   A    
Cr5   O37   S    
C2    C27   A    
C44   O20   A    
C90   C116  A    
C104  H21   S    
C50   H60   S    
C43   C48   S    
C59   C73   A    
C48   H58   S    
C85   C103  S    
C8    C114  S    
Cr8   O9    S    
C55   O17   A    
Cr4   O30   S    
C53   C111  S    
C46   C50   S    
C23   C63   S    
C105  H22   S    
C37   H42   S    
C3    C79   S    
C36   H41   S    
C112  O23   A    
C18   C22   S    
Cr4   O4    S    
C14   H32   S    
C35   H40   S    
C97   H15   S    
C69   C78   S    
C120  O42   A    
C31   C49   S    
C47   H50   S    
C50   H55   S    
C32   C54   A    
C107  H25   S    
Cr6   O16   S    
C26   C43   S    
C33   O15   A    
C101  C105  S    
C74   H5    S    
C88   H38   S    
C74   C75   S    
C27   C31   A    
C80   C84   A    
C9    C115  S    
C6    C60   S    
C28   C32   A    
C26   C110  A    
Cr7   O39   S    
C111  O12   A    
C72   C73   A    
C51   H61   S    
C119  O46   A    
Cr8   O18   S    
Cr4   O35   S    
C94   C116  A    
C75   H4    S    
C58   C70   A    
C47   C51   S    
C46   H69   S    
Cr4   O8    S    
Cr10  O25   S    
C82   C86   A    
C113  O35   A    
C108  H30   S    
C29   C34   A    
C17   C21   S    
C65   C74   S    
Cr2   O10   S    
C47   H70   S    
C78   H8    S    
C1    O18   A    
Cr9   O49   S    
C25   C64   S    
Cr1   O9    S    
C89   C106  S    
C19   C23   S    
C64   O30   A    
C11   O8    A    
C22   C62   S    
C57   C71   A    
Cr5   O10   S    
Cr11  O21   S    
C87   C105  S    
C45   C49   S    
C9    O6    A    
C16   C20   S    
Cr7   O43   S    
C74   H3    S    
C27   C45   S    
Cr2   O6    S    
C111  O32   A    
Cr3   O3    S    
Cr10  O11   S    
C3    O48   A    
C109  O1    A    
C92   H9    S    
C78   H2    S    
C32   C50   S    
C6    O3    A    
C1    O14   A    
C8    O36   A    
C103  H20   S    
C1    C24   S    
C40   H46   S    
C37   C54   A    
C109  O31   A    
Cr11  O26   S    
Cr8   O22   S    
C113  O34   A    
C12   C14   S    
C9    O37   A    
C26   C30   A    
C16   C23   S    
C106  H24   S    
C23   C88   S    
C55   C110  S    
C17   H1    S    
C7    O4    A    
C83   C101  S    
C31   C53   A    
C67   C75   S    
C103  H64   S    
C4    O52   A    
Cr12  O52   S    
C8    O5    A    
C11   C117  S    
Cr12  O27   S    
C93   C97   A    
C104  C108  S    
C70   C71   A    
C10   C116  S    
C101  H62   S    
Cr7   O13   S    
C76   H7    S    
C66   C77   S    
C30   C52   A    
Cr9   O46   S    
C19   C99   S    
Cr8   O44   S    
Cr5   O15   S    
C7    O51   A    
C95   C100  A    
C21   C61   S    
C91   C108  S    
C41   H47   S    
C10   O7    A    
Cr12  O5    S    
C61   O22   A    
C22   C77   S    
C57   C65   A    
C39   H44   S    
Cr10  O50   S    
C75   H6    S    
C51   H57   S    
C83   C87   A    
C4    O45   A    
C85   C90   A    
C76   H72   S    
C70   H45   S    
C13   C33   S    
C49   H59   S    
C5    C57   S    
C100  H17   S    
C68   C76   S    
Cr1   O36   S    
Cr2   O28   S    
C102  H19   S    
C62   O28   A    
Cr8   O45   S    
C66   H36   S    
C11   O39   A    
C82   C100  A    
C20   H34   S    
C33   O19   A    
C18   H12   S    
C119  O41   A    
C79   C96   A    
C106  H28   S    
C64   O26   A    
C81   C119  S    
C12   H31   S    
C79   C83   A    
C17   C77   S    
C55   O21   A    
C38   H43   S    
Cr6   O42   S    
Cr4   O13   S    
C98   H16   S    
C52   C109  S    
C62   O24   A    
C20   C88   S    
Cr9   O24   S    
C43   H51   S    
C118  O40   A    
C102  C106  S    
C43   H66   S    
Cr11  O51   S    
Cr10  O20   S    
C37   C41   A    
C18   C66   S    
Cr12  O31   S    
C44   O16   A    
C88   C99   S    
Cr6   O11   S    
Cr7   O17   S    
C63   O29   A    
C10   O38   A    
C2    C40   A    
C58   C67   A    
C48   H53   S    
C108  H26   S    
Cr7   O34   S    
C77   H37   S    
C112  O33   A    
C20   C25   S    
C4    C58   S    
C35   C52   A    
C60   C72   A    
C15   H33   S    
C59   C68   A    
C103  C107  S    
Cr12  O9    S    
C96   H14   S    
C46   H49   S    
Cr3   O33   S    
Cr11  O13   S    
C92   C114  A    
C81   C85   A    
C93   H10   S    
C7    C59   S    
C45   H52   S    
C72   H67   S    
