data_mof_unit_48258.cif
_audit_creation_date              2012-12-11T19:09:45-0500
_audit_creation_method            fapswitch 2.2
_symmetry_space_group_name_H-M    P1
_symmetry_Int_Tables_number       1
_space_group_crystal_system       triclinic
_cell_length_a                    8.24453
_cell_length_b                    15.125763
_cell_length_c                    27.00338
_cell_angle_alpha                 99.082836
_cell_angle_beta                  92.375674
_cell_angle_gamma                 81.304258
_cell_volume                      3286.47079163

loop_
_atom_site_label
_atom_site_type_symbol
_atom_type_description
_atom_site_fract_x
_atom_site_fract_y
_atom_site_fract_z
_atom_type_partial_charge
Ba1   Ba    Ba6+2 0.860050 0.456430 0.522540 1.673775
Ba2   Ba    Ba6+2 0.329780 0.543490 0.477450 1.706392
C1    C     C_3   0.691102 0.138688 0.650440 -0.367694
C2    C     C_R   0.855625 0.567494 0.176350 0.579987
C3    C     C_2   0.732058 0.516417 0.270012 -0.115543
C4    C     C_3   0.189980 0.264578 0.654206 0.292988
C5    C     C_3   0.688500 0.513851 0.323895 -0.082778
C6    C     C_1   0.982713 0.480623 0.342084 0.023485
C7    C     C_2   0.022714 0.481144 0.294854 -0.155644
C8    C     C_2   0.891769 0.500515 0.255367 0.195338
C9    C     C_R   0.015839 0.501440 0.101618 -0.078563
C10   C     C_R   0.100533 0.436625 0.129304 -0.033736
C11   C     C_R   0.228379 0.373588 0.106322 -0.059784
C12   C     C_3   0.687751 0.228823 0.631951 0.343097
C13   C     C_R   0.891317 0.566607 0.125320 -0.031946
C14   C     C_2   0.837530 0.520319 0.358221 0.089659
C15   C     C_2   0.351573 0.479295 0.640066 -0.284058
C16   C     C_3   0.189143 0.241915 0.707064 -0.331922
C17   C     C_R   0.223671 0.435323 0.975941 0.019613
C18   C     C_R   0.006898 0.566108 0.971435 0.019965
C19   C     C_R   0.135049 0.500600 0.948333 0.049479
C20   C     C_R   0.348274 0.370968 0.950774 -0.100223
C21   C     C_R   0.383807 0.370511 0.900703 -0.060100
C22   C     C_R   0.298667 0.434738 0.873168 -0.031508
C23   C     C_3   0.477713 0.684855 0.631950 0.296826
C24   C     C_R   0.175020 0.500336 0.897000 -0.078021
C25   C     C_R   0.091210 0.565606 0.869449 -0.032202
C26   C     C_R   0.135357 0.566276 0.819282 0.591072
C27   C     C_R   0.334631 0.434052 0.822173 0.577520
C28   C     C_3   0.219894 0.266603 0.412792 0.298175
C29   C     C_2   0.456660 0.487889 0.728607 -0.071157
C30   C     C_3   0.498780 0.489685 0.674400 -0.052694
C31   C     C_1   0.206190 0.517572 0.656586 0.037370
C32   C     C_2   0.165895 0.516445 0.703675 -0.114982
C33   C     C_2   0.297443 0.500728 0.743229 0.192038
C34   C     C_3   0.435996 0.721589 0.686437 -0.364736
C35   C     C_R   0.184692 0.436019 0.027285 0.019928
C36   C     C_R   0.055918 0.501221 0.050299 0.049732
C37   C     C_R   0.966841 0.566273 0.022628 0.019715
C38   C     C_R   0.270421 0.373606 0.056846 -0.099077
C39   C     C_R   0.804809 0.630184 0.097605 -0.059610
C40   C     C_3   0.246450 0.164284 0.397457 -0.376733
C41   C     C_R   0.923182 0.629531 0.942160 -0.099299
C42   C     C_R   0.965115 0.629485 0.892673 -0.060353
C43   C     C_R   0.840410 0.629736 0.047550 -0.100115
C44   C     C_R   0.348052 0.175684 0.532508 -0.001832
C45   C     C_3   0.993655 0.742154 0.346666 0.294079
C46   C     C_R   0.576701 0.209662 0.489195 0.067294
C47   C     C_R   0.769375 0.775364 0.491738 -0.253425
C48   C     C_R   0.853937 0.832028 0.470547 0.018315
C49   C     C_R   0.789847 0.923657 0.472994 -0.156518
C50   C     C_R   0.638994 0.959522 0.497497 0.016208
C51   C     C_R   0.554594 0.898898 0.518769 -0.014091
C52   C     C_3   0.976392 0.736225 0.590173 0.304924
C53   C     C_R   0.570275 0.053393 0.502464 0.006674
C54   C     C_R   0.418588 0.083702 0.527811 -0.020924
C55   C     C_R   0.340696 0.021963 0.548117 -0.101705
C56   C     C_3   0.006378 0.761822 0.293629 -0.368048
C57   C     C_R   0.408324 0.932088 0.544345 -0.050389
C58   C     C_R   0.645473 0.118237 0.482623 -0.130612
C59   C     C_R   0.431099 0.237947 0.514905 -0.292875
C60   C     C_R   0.620389 0.806290 0.514824 0.009822
C61   C     C_3   0.967213 0.838052 0.605860 -0.385275
C62   C     C_3   0.715189 0.326235 0.369377 0.304936
C63   C     C_3   0.756286 0.286168 0.315226 -0.383633
C64   C     C_3   0.505336 0.772407 0.370130 0.327431
C65   C     C_3   0.505789 0.863428 0.353019 -0.386820
C66   C     C_R   0.055765 0.435617 0.179388 0.593657
Cl1   Cl    Cl    0.821657 0.583725 0.417862 -0.707257
H1    H     H_    0.333578 0.144952 0.365957 0.130268
H2    H     H_    0.615108 0.384356 0.370275 0.034653
H3    H     H_    0.703053 0.082957 0.618041 0.075987
H4    H     H_    0.848257 0.224161 0.314241 0.142227
H5    H     H_    0.808786 0.334837 0.296301 0.065750
H6    H     H_    0.582001 0.237493 0.605576 -0.028244
H7    H     H_    0.575629 0.138227 0.670133 0.122172
H8    H     H_    0.366343 0.662140 0.612718 0.030603
H9    H     H_    0.578362 0.626783 0.630396 0.028534
H10   H     H_    0.342839 0.783279 0.688419 0.138250
H11   H     H_    0.384636 0.670783 0.704042 0.072055
H12   H     H_    0.297440 0.130277 0.429301 0.061160
H13   H     H_    0.548065 0.738871 0.707723 0.123940
H14   H     H_    0.797204 0.127295 0.676583 0.133458
H15   H     H_    0.286959 0.183495 0.711306 0.117568
H16   H     H_    0.056397 0.672219 0.347947 0.091753
H17   H     H_    0.861986 0.746857 0.355292 0.007841
H18   H     H_    0.137586 0.755726 0.283672 0.144260
H19   H     H_    0.946691 0.712451 0.266895 0.129439
H20   H     H_    0.944268 0.831393 0.290666 0.124513
H21   H     H_    0.615075 0.759285 0.394591 0.014938
H22   H     H_    0.392727 0.776427 0.391998 0.104055
H23   H     H_    0.127755 0.140604 0.385447 0.124620
H24   H     H_    0.519411 0.915996 0.386165 0.076505
H25   H     H_    0.388340 0.883137 0.333016 0.139046
H26   H     H_    0.112287 0.331034 0.653590 0.087306
H27   H     H_    0.609878 0.859465 0.327427 0.130735
H28   H     H_    0.150895 0.469528 0.284922 0.153614
H29   H     H_    0.298272 0.323755 0.126795 0.120901
H30   H     H_    0.556176 0.481599 0.756008 0.113133
H31   H     H_    0.480190 0.319268 0.883607 0.122958
H32   H     H_    0.421078 0.318895 0.968471 0.069221
H33   H     H_    0.371807 0.323232 0.043049 0.068815
H34   H     H_    0.851469 0.719655 0.581866 0.004987
H35   H     H_    0.632753 0.524837 0.242731 0.124127
H36   H     H_    0.824041 0.681063 0.956265 0.068915
H37   H     H_    0.318274 0.269570 0.644963 -0.019911
H38   H     H_    0.896692 0.680050 0.872411 0.120942
H39   H     H_    0.037900 0.527587 0.713805 0.145846
H40   H     H_    0.765572 0.680823 0.029600 0.069096
H41   H     H_    0.365431 0.443045 0.602038 0.069749
H42   H     H_    0.226530 0.042095 0.567817 0.110219
H43   H     H_    0.756116 0.099973 0.461243 0.086326
H44   H     H_    0.825876 0.707158 0.493573 0.119349
H45   H     H_    0.053884 0.715607 0.556461 0.061351
H46   H     H_    0.861471 0.964683 0.456270 0.080096
H47   H     H_    0.213264 0.301894 0.734646 0.117973
H48   H     H_    0.342688 0.889124 0.561894 0.098948
H49   H     H_    0.066846 0.223905 0.714899 0.134576
H50   H     H_    0.136625 0.283918 0.445263 0.062852
H51   H     H_    0.803960 0.226819 0.612109 0.104315
H52   H     H_    0.643705 0.268465 0.294414 0.126005
H53   H     H_    0.707074 0.680792 0.114519 0.123065
H54   H     H_    0.377691 0.308497 0.518829 0.063654
H55   H     H_    0.339134 0.289588 0.423316 0.006476
H56   H     H_    0.887305 0.860934 0.638936 0.134017
H57   H     H_    0.915904 0.874491 0.574903 0.060571
H58   H     H_    0.092020 0.855357 0.615656 0.116514
H59   H     H_    0.826652 0.348695 0.388359 0.030131
N1    N     N_R   0.934849 0.501209 0.203004 -0.418494
N2    N     N_R   0.255416 0.500372 0.795632 -0.423916
O1    O     O_2   0.906490 0.548660 0.619040 -0.467753
O2    O     O_2   0.194801 0.822635 0.470372 -0.496963
O3    O     O_3   0.068659 0.805270 0.380200 -0.606055
O4    O     O_3   0.138490 0.548590 0.558860 -0.486005
O5    O     O_3   0.572560 0.389970 0.472910 -0.476648
O6    O     O_2   0.345680 0.723560 0.528460 -0.473429
O7    O     O_3   0.529313 0.753818 0.610345 -0.649868
O8    O     O_2   0.342509 0.571655 0.328925 -0.506261
O9    O     O_3   0.508575 0.704347 0.328031 -0.587677
O10   O     O_2   0.123416 0.375146 0.201571 -0.601451
O11   O     O_2   0.435414 0.373426 0.801312 -0.594800
O12   O     O_3   0.662219 0.259424 0.392115 -0.638832
O13   O     O_2   0.755087 0.628358 0.197126 -0.598687
O14   O     O_2   0.068051 0.626676 0.797020 -0.600896
O15   O     O_3   0.686290 0.382320 0.585720 -0.490355
O16   O     O_2   0.839993 0.429997 0.671520 -0.500500
O17   O     O_3   0.042649 0.693434 0.630060 -0.628460
O18   O     O_3   0.670679 0.299258 0.672915 -0.586530
O19   O     O_2   0.844020 0.276410 0.471510 -0.466846
O20   O     O_3   0.101490 0.335510 0.560360 -0.490767
O21   O     O_2   0.006929 0.175606 0.528664 -0.491062
O22   O     O_3   0.126031 0.197075 0.620579 -0.613680
O23   O     O_2   0.283210 0.451320 0.380930 -0.471147
O24   O     O_3   0.051220 0.451340 0.441130 -0.431135
O25   O     O_3   0.503420 0.617610 0.414270 -0.414961
O26   O     O_3   0.151952 0.306134 0.371846 -0.636215
O27   O     O_3   0.617160 0.609950 0.527080 -0.436814
O28   O     O_3   0.088220 0.664410 0.439630 -0.424413
P1    P     P_3+3 0.071960 0.575810 0.612130 1.000875
P2    P     P_3+3 0.664360 0.290070 0.457280 0.994259
P3    P     P_3+3 0.144514 0.219350 0.559568 0.926923
P4    P     P_3+3 0.117760 0.424110 0.387870 1.040122
P5    P     P_3+3 0.051363 0.782189 0.441093 0.971343
P6    P     P_3+3 0.674095 0.402338 0.651176 0.973042
P7    P     P_3+3 0.530709 0.723980 0.545111 0.954428
P8    P     P_3+3 0.509188 0.599640 0.348313 1.033792

loop_
_geom_bond_atom_site_label_1
_geom_bond_atom_site_label_2
_ccdc_geom_bond_type
C47   H44   S    
C53   C54   A    
Ba2   O25   S    
C9    C36   A    
Ba1   O15   S    
C19   C24   A    
O17   P1    S    
C15   H41   S    
Ba2   P4    S    
C2    O13   D    
O7    P7    S    
C51   C57   A    
C64   H21   S    
C46   P2    S    
C24   C25   A    
Ba2   O4    S    
C20   H32   S    
C23   H8    S    
C45   H16   S    
C17   C19   A    
C22   C24   A    
C32   C33   S    
C35   C38   A    
C36   C37   A    
C43   H40   S    
C55   C57   A    
O6    P7    D    
O25   P8    S    
C12   O18   S    
C40   H1    S    
C63   H4    S    
C54   C55   A    
Ba1   Ba2   S    
C41   H36   S    
C62   H2    S    
C11   H29   S    
C22   C27   A    
C11   C38   A    
C17   C35   A    
C9    C13   A    
C25   C42   A    
C64   O9    S    
C29   C30   S    
C34   H13   S    
C6    C7    D    
O21   P3    D    
C44   P3    S    
C65   H25   S    
C16   H15   S    
C21   C22   A    
Ba1   O19   S    
C26   O14   D    
C63   H52   S    
C7    C8    S    
C16   H49   S    
C40   H23   S    
O22   P3    S    
C50   C53   A    
C37   C43   A    
C4    O22   S    
C28   O26   S    
O4    P1    S    
C3    H35   S    
O26   P4    S    
C57   H48   S    
C53   C58   A    
C45   O3    S    
C66   N1    Am   
C40   H12   S    
C15   C31   D    
O3    P5    S    
C56   H20   S    
C46   C58   A    
C4    C16   S    
C44   C59   A    
C49   C50   A    
O18   P6    S    
C45   H17   S    
C52   H34   S    
Ba1   P1    S    
C17   C20   A    
C64   C65   S    
C13   C39   A    
C34   H11   S    
O27   P7    S    
C3    C5    S    
C18   C37   A    
C62   H59   S    
O16   P6    D    
Ba2   O6    S    
C63   H5    S    
C23   H9    S    
C39   H53   S    
O9    P8    S    
C23   O7    S    
C41   C42   A    
C35   C36   A    
C58   H43   S    
C10   C66   A    
C51   C60   A    
C52   C61   S    
C27   N2    Am   
Ba2   O28   S    
C27   O11   D    
C31   C32   D    
C4    H37   S    
C2    N1    Am   
Ba1   O20   S    
C48   C49   A    
C10   C11   A    
O1    P1    D    
C1    H7    S    
C33   N2    S    
C61   H56   S    
C1    C12   S    
O28   P5    S    
C5    C14   S    
C5    P8    S    
C28   H55   S    
C47   C48   A    
Ba2   O23   S    
C29   H30   S    
C1    H14   S    
C65   H27   S    
C29   C33   D    
C66   O10   D    
C16   H47   S    
Ba1   O4    S    
C18   C41   A    
C50   C51   A    
C56   H18   S    
C42   H38   S    
O20   P3    S    
C7    H28   S    
O5    P2    S    
C48   P5    S    
O24   P4    S    
Ba1   P2    S    
C14   Cl1   S    
O12   P2    S    
Ba1   O1    S    
C34   H10   S    
C56   H19   S    
C52   H45   S    
C9    C10   A    
C64   H22   S    
O15   P6    S    
C12   H51   S    
Ba2   O5    S    
C59   H54   S    
O23   P4    D    
O8    P8    D    
C32   H39   S    
C62   C63   S    
C2    C13   A    
Ba1   O27   S    
C1    H3    S    
C8    N1    S    
C3    C8    D    
C6    P4    S    
Ba2   O24   S    
C12   H6    S    
C45   C56   S    
C46   C59   A    
C55   H42   S    
C62   O12   S    
Ba2   O27   S    
C30   P6    S    
C21   H31   S    
C26   N2    Am   
Ba1   O24   S    
O19   P2    D    
C49   H46   S    
O2    P5    D    
C61   H57   S    
C23   C34   S    
C38   H33   S    
C60   P7    S    
C18   C19   A    
C6    C14   D    
C4    H26   S    
C28   H50   S    
C44   C54   A    
C25   C26   A    
C65   H24   S    
C15   C30   S    
C39   C43   A    
C20   C21   A    
C28   C40   S    
C47   C60   A    
Ba1   O5    S    
C61   H58   S    
C31   P1    S    
C52   O17   S    
