data_mof_unit_46373.cif
_audit_creation_date              2012-10-26T21:00:44-0400
_audit_creation_method            fapswitch 2.2
_symmetry_space_group_name_H-M    P1
_symmetry_Int_Tables_number       1
_space_group_crystal_system       triclinic
_cell_length_a                    10.789959
_cell_length_b                    9.529185
_cell_length_c                    10.779744
_cell_angle_alpha                 89.987868
_cell_angle_beta                  90.073191
_cell_angle_gamma                 89.963499
_cell_volume                      1108.36690051

loop_
_atom_site_label
_atom_site_type_symbol
_atom_type_description
_atom_site_fract_x
_atom_site_fract_y
_atom_site_fract_z
_atom_type_partial_charge
C1    C     C_R   0.262360 0.499998 0.503879 0.535248
C2    C     C_R   0.503965 0.499979 0.737457 0.521647
C3    C     C_R   0.703240 0.643972 0.129462 -0.100845
C4    C     C_R   0.704000 0.642467 0.870592 -0.106486
C5    C     C_R   0.796812 0.713031 0.064614 -0.114849
C6    C     C_R   0.797228 0.712202 0.935570 -0.109445
C7    C     C_R   0.607066 0.573510 0.934391 0.027874
C8    C     C_R   0.606829 0.573981 0.065586 0.029082
C9    C     C_R   0.512364 0.499964 0.128818 0.003510
C10   C     C_R   0.512501 0.499634 0.871102 0.003943
C11   C     C_R   0.424003 0.422340 0.063880 -0.147635
C12   C     C_R   0.737632 0.499995 0.503815 0.518865
C13   C     C_R   0.424028 0.422244 0.935922 -0.143965
C14   C     C_R   0.064614 0.406590 0.591388 0.289670
C15   C     C_R   0.935456 0.406849 0.591531 0.288002
C16   C     C_R   0.871317 0.500746 0.512431 -0.035946
C17   C     C_R   0.128628 0.500619 0.512422 -0.034145
C18   C     C_R   0.935934 0.597186 0.439478 -0.182769
C19   C     C_R   0.063822 0.597086 0.439437 -0.180536
C20   C     C_R   0.422931 0.074454 0.423026 0.031364
C21   C     C_R   0.577086 0.074310 0.576971 0.030784
C22   C     C_R   0.422927 0.925695 0.423030 0.025271
C23   C     C_R   0.577100 0.925549 0.576961 0.026208
C24   C     C_R   0.503961 0.500059 0.262523 0.538874
Cu1   Cu    Cu3+1 0.500000 0.640660 0.500000 0.933343
Cu2   Cu    Cu3+1 0.500000 0.359340 0.500000 0.958576
H1    H     H_    0.352880 0.364054 0.112669 0.127317
H2    H     H_    0.638853 0.130227 0.638680 0.137224
H3    H     H_    0.361134 0.869758 0.361353 0.113543
H4    H     H_    0.638900 0.869526 0.638647 0.115005
H5    H     H_    0.206651 0.355925 0.693744 0.320024
H6    H     H_    0.793991 0.357890 0.694894 0.315376
H7    H     H_    0.352907 0.363907 0.887075 0.135078
H8    H     H_    0.708848 0.643969 0.229510 0.134591
H9    H     H_    0.710404 0.641006 0.770555 0.123695
H10   H     H_    0.870171 0.765894 0.114764 0.115393
H11   H     H_    0.870925 0.764387 0.885556 0.128046
H12   H     H_    0.887292 0.670520 0.379942 0.135163
H13   H     H_    0.112401 0.670170 0.379723 0.139515
H14   H     H_    0.361164 0.130501 0.361318 0.116848
N1    N     N_R   0.500000 0.852070 0.500000 -0.227499
N2    N     N_R   0.500000 0.147940 0.500000 -0.227142
O1    O     O_R   0.319640 0.618740 0.499990 -0.497564
O2    O     O_3   0.876149 0.318339 0.673896 -0.647530
O3    O     O_R   0.680360 0.618740 0.500010 -0.520252
O4    O     O_R   0.319620 0.381170 0.499990 -0.492617
O5    O     O_R   0.680380 0.381170 0.500010 -0.488523
O6    O     O_R   0.500000 0.618810 0.319650 -0.509122
O7    O     O_R   0.500000 0.618810 0.680350 -0.502563
O8    O     O_R   0.499970 0.381240 0.319640 -0.498207
O9    O     O_R   0.500030 0.381240 0.680360 -0.512336
O10   O     O_3   0.124002 0.317397 0.673328 -0.639100

loop_
_geom_bond_atom_site_label_1
_geom_bond_atom_site_label_2
_ccdc_geom_bond_type
C7    C10   A    
C20   N2    A    
C23   H4    S    
C9    C24   S    
C13   H7    S    
C2    O7    A    
C11   C13   A    
C1    C17   S    
C23   N1    A    
C11   H1    S    
H5    O10   S    
Cu1   O1    S    
Cu2   O8    S    
C18   H12   S    
C6    H11   S    
C7    C8    A    
Cu2   O9    S    
C9    C11   A    
Cu1   O6    S    
C19   H13   S    
Cu2   O5    S    
C12   O5    A    
C15   C16   A    
C4    C6    A    
C22   H3    S    
C21   H2    S    
C20   C22   A    
C15   O2    S    
C3    C8    A    
C4    C7    A    
C21   C23   A    
C24   O8    A    
C5    C6    A    
C20   H14   S    
Cu1   O7    S    
C1    O4    A    
C4    H9    S    
C22   N1    A    
C2    O9    A    
Cu2   O4    S    
C21   N2    A    
C24   O6    A    
C5    H10   S    
Cu1   O3    S    
Cu2   N2    S    
C16   C18   A    
C18   C19   A    
H6    O2    S    
Cu1   N1    S    
C14   C15   A    
C8    C9    A    
C14   C17   A    
C3    H8    S    
C17   C19   A    
Cu1   Cu2   S    
C1    O1    A    
C14   O10   S    
C12   C16   S    
C12   O3    A    
C3    C5    A    
C10   C13   A    
C2    C10   S    
