data_mof_unit_65232.cif
_audit_creation_date              2012-12-10T18:19:37-0500
_audit_creation_method            fapswitch 2.2
_symmetry_space_group_name_H-M    P1
_symmetry_Int_Tables_number       1
_space_group_crystal_system       monoclinic
_cell_length_a                    38.941357
_cell_length_b                    32.241173
_cell_length_c                    21.770405
_cell_angle_alpha                 90.0
_cell_angle_beta                  124.139406
_cell_angle_gamma                 90.0
_cell_volume                      22622.8869767

loop_
_atom_site_label
_atom_site_type_symbol
_atom_type_description
_atom_site_fract_x
_atom_site_fract_y
_atom_site_fract_z
_atom_type_partial_charge
C1    C     C_R   0.920431 0.000013 0.420554 0.814382
C2    C     C_R   0.028436 0.974151 0.247309 -0.169524
C3    C     C_R   0.000075 0.999634 0.119209 0.890609
C4    C     C_R   0.499925 0.499634 0.880790 0.890565
C5    C     C_R   0.500075 0.499634 0.119209 0.890564
C6    C     C_R   0.000000 0.079543 0.000000 0.844477
C7    C     C_R   0.500000 0.579543 0.000000 0.844348
C8    C     C_R   0.500000 0.920688 0.000000 0.810742
C9    C     C_R   0.000000 0.420688 0.000000 0.810698
C10   C     C_R   0.579395 0.000044 0.079428 0.814766
C11   C     C_R   0.420605 0.000044 0.920572 0.814767
C12   C     C_R   0.079395 0.500044 0.079428 0.814751
C13   C     C_R   0.471563 0.474151 0.752691 -0.169500
C14   C     C_R   0.920605 0.500044 0.920572 0.814752
C15   C     C_R   0.500000 0.079461 0.000000 0.814366
C16   C     C_R   0.000000 0.579461 0.000000 0.814373
C17   C     C_R   0.481008 0.228275 0.028973 -0.151115
C18   C     C_R   0.518992 0.228275 0.971027 -0.151115
C19   C     C_R   0.981007 0.728275 0.028970 -0.151124
C20   C     C_R   0.018993 0.728275 0.971030 -0.151123
C21   C     C_R   0.500000 0.206396 1.000000 0.141450
C22   C     C_R   0.000000 0.706396 0.000000 0.141464
C23   C     C_R   0.019004 0.771716 0.971054 -0.145097
C24   C     C_R   0.528436 0.474151 0.247309 -0.169500
C25   C     C_R   0.980996 0.771716 0.028946 -0.145097
C26   C     C_R   0.519002 0.271716 0.971051 -0.145094
C27   C     C_R   0.480997 0.271716 0.028949 -0.145092
C28   C     C_R   0.057627 0.088058 0.722245 0.411676
C29   C     C_R   0.942373 0.088058 0.277755 0.411675
C30   C     C_R   0.557620 0.588062 0.722240 0.411578
C31   C     C_R   0.442381 0.588063 0.277761 0.411578
C32   C     C_R   0.000000 0.793578 0.000000 0.164212
C33   C     C_R   0.500000 0.293577 1.000000 0.164197
C34   C     C_1   0.500000 0.161599 1.000000 -0.044786
C35   C     C_R   0.971560 0.974984 0.687961 0.374080
C36   C     C_1   0.000000 0.661599 0.000000 -0.044795
C37   C     C_1   0.000000 0.838343 0.000000 0.009709
C38   C     C_1   0.500000 0.338343 1.000000 0.009711
C39   C     C_1   0.000000 0.875804 0.000000 -0.084164
C40   C     C_1   0.500000 0.375804 1.000000 -0.084156
C41   C     C_1   0.500000 0.124112 1.000000 -0.145319
C42   C     C_1   0.000000 0.624112 0.000000 -0.145332
C43   C     C_R   0.505740 0.772225 0.950933 -0.154694
C44   C     C_R   0.494260 0.772225 0.049067 -0.154694
C45   C     C_R   0.010022 0.272225 0.956596 -0.154715
C46   C     C_R   0.028440 0.974984 0.312039 0.374080
C47   C     C_R   0.989978 0.272225 0.043404 -0.154716
C48   C     C_R   0.500000 0.793934 0.000000 -0.041585
C49   C     C_R   0.000000 0.293934 1.000000 -0.041477
C50   C     C_R   0.989804 0.228805 0.044163 0.398790
C51   C     C_R   0.010196 0.228805 0.955837 0.398791
C52   C     C_R   0.494156 0.728805 0.049920 0.398771
C53   C     C_R   0.505844 0.728805 0.950080 0.398771
C54   C     C_R   0.000000 0.206504 0.000000 -0.082612
C55   C     C_R   0.500000 0.706504 0.000000 -0.082423
C56   C     C_1   0.500000 0.838670 0.000000 0.004464
C57   C     C_R   0.471560 0.474984 0.687961 0.374106
C58   C     C_1   0.000000 0.338671 1.000000 0.004460
C59   C     C_R   0.063213 0.046540 0.748105 -0.218259
C60   C     C_R   0.936787 0.046540 0.251895 -0.218259
C61   C     C_R   0.563210 0.546544 0.748101 -0.218292
C62   C     C_R   0.436791 0.546545 0.251900 -0.218290
C63   C     C_1   0.000000 0.161544 0.000000 -0.063657
C64   C     C_1   0.500000 0.661544 0.000000 -0.063381
C65   C     C_1   0.000000 0.124098 0.000000 -0.133427
C66   C     C_1   0.500000 0.624098 0.000000 -0.133390
C67   C     C_1   0.500000 0.876113 1.000000 -0.150452
C68   C     C_R   0.528440 0.474983 0.312038 0.374109
C69   C     C_1   0.000000 0.376113 1.000000 -0.150463
C70   C     C_R   0.102041 0.026555 0.777253 0.324002
C71   C     C_R   0.897959 0.026555 0.222747 0.324003
C72   C     C_R   0.602038 0.526561 0.777245 0.323983
C73   C     C_R   0.397962 0.526563 0.222755 0.323985
C74   C     C_R   0.134552 0.047971 0.781002 0.432277
C75   C     C_R   0.865448 0.047971 0.218998 0.432277
C76   C     C_R   0.634546 0.547979 0.780988 0.432244
C77   C     C_R   0.365454 0.547982 0.219011 0.432243
C78   C     C_R   0.128445 0.088868 0.753518 0.208930
C79   C     C_R   0.000511 0.000051 0.686282 -0.161793
C80   C     C_R   0.871555 0.088868 0.246482 0.208931
C81   C     C_R   0.628436 0.588876 0.753501 0.208867
C82   C     C_R   0.371565 0.588879 0.246497 0.208864
C83   C     C_R   0.028295 0.025098 0.811215 0.388044
C84   C     C_R   0.971705 0.025098 0.188785 0.388044
C85   C     C_R   0.528295 0.525098 0.811215 0.388001
C86   C     C_R   0.471705 0.525098 0.188785 0.388006
C87   C     C_R   0.999489 0.000051 0.313718 -0.161792
C88   C     C_R   0.500511 0.500051 0.686281 -0.161742
C89   C     C_R   0.079568 0.000013 0.579446 0.814381
C90   C     C_R   0.499490 0.500051 0.313719 -0.161747
C91   C     C_R   0.029412 0.024546 0.747701 -0.169976
C92   C     C_R   0.970588 0.024546 0.252299 -0.169976
C93   C     C_R   0.529411 0.524547 0.747700 -0.169977
C94   C     C_R   0.470590 0.524548 0.252300 -0.169976
C95   C     C_R   0.902856 0.958768 0.729399 -0.150685
C96   C     C_R   0.097144 0.958768 0.270601 -0.150685
C97   C     C_R   0.402855 0.458771 0.729396 -0.150653
C98   C     C_R   0.597145 0.458769 0.270603 -0.150650
C99   C     C_R   0.875155 0.933114 0.732651 -0.237978
C100  C     C_R   0.420432 0.500013 0.420554 0.814370
C101  C     C_R   0.124845 0.933114 0.267349 -0.237978
C102  C     C_R   0.375154 0.433118 0.732649 -0.237994
C103  C     C_R   0.624846 0.433116 0.267350 -0.237994
C104  C     C_R   0.887429 0.893654 0.763637 -0.159547
C105  C     C_R   0.112571 0.893654 0.236363 -0.159549
C106  C     C_R   0.387427 0.393657 0.763635 -0.159568
C107  C     C_R   0.612572 0.393656 0.236364 -0.159569
C108  C     C_R   0.927527 0.879192 0.791794 0.452804
C109  C     C_R   0.072473 0.879192 0.208206 0.452804
C110  C     C_R   0.427524 0.379194 0.791793 0.452812
C111  C     C_R   0.579568 0.500013 0.579446 0.814368
C112  C     C_R   0.572475 0.379193 0.208206 0.452812
C113  C     C_R   0.956330 0.905176 0.789901 0.310755
C114  C     C_R   0.043670 0.905176 0.210099 0.310757
C115  C     C_R   0.456328 0.405177 0.789900 0.310752
C116  C     C_R   0.543671 0.405176 0.210099 0.310753
C117  C     C_R   0.000504 0.000021 0.619447 0.893102
C118  C     C_R   0.999496 0.000021 0.380553 0.893102
C119  C     C_R   0.500504 0.500021 0.619447 0.893088
C120  C     C_R   0.499496 0.500021 0.380553 0.893087
C121  C     C_R   0.943464 0.945436 0.758014 -0.020224
C122  C     C_R   0.999763 0.999563 0.813563 -0.172186
C123  C     C_R   0.056536 0.945436 0.241986 -0.020224
C124  C     C_R   0.443462 0.445437 0.758013 -0.020239
C125  C     C_R   0.556537 0.445437 0.241986 -0.020241
C126  C     C_R   0.727927 0.964638 0.224113 -0.202573
C127  C     C_R   0.272073 0.964638 0.775887 -0.202572
C128  C     C_R   0.227927 0.464638 0.224111 -0.202566
C129  C     C_R   0.772073 0.464640 0.775923 -0.202569
C130  C     C_R   0.706363 0.002289 0.207343 0.034059
C131  C     C_R   0.293637 0.002289 0.792657 0.034059
C132  C     C_R   0.206363 0.502289 0.207343 0.034048
C133  C     C_R   0.000237 0.999563 0.186437 -0.172186
C134  C     C_R   0.793637 0.502289 0.792657 0.034041
C135  C     C_R   0.728941 0.039994 0.235081 0.428806
C136  C     C_R   0.271059 0.039994 0.764919 0.428806
C137  C     C_R   0.228941 0.539993 0.235084 0.428797
C138  C     C_R   0.771059 0.539991 0.764882 0.428795
C139  C     C_R   0.772445 0.038734 0.278863 -0.152630
C140  C     C_R   0.227555 0.038734 0.721136 -0.152631
C141  C     C_R   0.272445 0.538733 0.278867 -0.152600
C142  C     C_R   0.727555 0.538731 0.721101 -0.152581
C143  C     C_R   0.793651 0.000978 0.295282 0.055274
C144  C     C_R   0.499762 0.499563 0.813563 -0.172183
C145  C     C_R   0.206348 0.000978 0.704718 0.055274
C146  C     C_R   0.293652 0.500978 0.295283 0.055263
C147  C     C_R   0.706348 0.500977 0.704719 0.055239
C148  C     C_R   0.771287 0.963974 0.267748 -0.140356
C149  C     C_R   0.228713 0.963974 0.732252 -0.140356
C150  C     C_R   0.271287 0.463974 0.267746 -0.140348
C151  C     C_R   0.728713 0.463976 0.732288 -0.140324
C152  C     C_1   0.661485 0.001271 0.162022 -0.054375
C153  C     C_1   0.338515 0.001271 0.837978 -0.054375
C154  C     C_1   0.161485 0.501271 0.162023 -0.054383
C155  C     C_R   0.500237 0.499563 0.186437 -0.172183
C156  C     C_1   0.838515 0.501271 0.837978 -0.054381
C157  C     C_1   0.838399 0.000349 0.339759 0.027202
C158  C     C_1   0.161601 0.000349 0.660241 0.027201
C159  C     C_1   0.338399 0.500349 0.339760 0.027248
C160  C     C_1   0.661601 0.500349 0.660241 0.027250
C161  C     C_1   0.875850 0.000071 0.376665 -0.119400
C162  C     C_1   0.124150 0.000071 0.623335 -0.119399
C163  C     C_1   0.375850 0.500070 0.376665 -0.119325
C164  C     C_1   0.624150 0.500070 0.623335 -0.119326
C165  C     C_R   0.089983 0.108291 0.724466 -0.265675
C166  C     C_R   0.971564 0.974151 0.752691 -0.169524
C167  C     C_R   0.910017 0.108291 0.275534 -0.265675
C168  C     C_R   0.589973 0.608296 0.724454 -0.265918
C169  C     C_R   0.410029 0.608299 0.275545 -0.265917
C170  C     C_1   0.624013 0.000571 0.124262 -0.146048
C171  C     C_1   0.375987 0.000571 0.875738 -0.146049
C172  C     C_1   0.124013 0.500570 0.124262 -0.146068
C173  C     C_1   0.875987 0.500570 0.875738 -0.146069
C174  C     C_R   0.000000 0.920399 0.000000 0.815494
C175  C     C_R   0.500000 0.420399 1.000000 0.815502
C176  C     C_R   0.999925 0.999634 0.880791 0.890610
Cu1   Cu    Cu3+1 1.000000 0.041020 0.500000 1.026366
Cu2   Cu    Cu3+1 0.499990 0.000050 0.938210 0.996362
Cu3   Cu    Cu3+1 0.000010 0.500050 0.061790 0.996340
Cu4   Cu    Cu3+1 0.999990 0.500050 0.938210 0.996343
Cu5   Cu    Cu3+1 0.500000 0.541020 0.500000 1.026625
Cu6   Cu    Cu3+1 1.000000 0.958990 0.500000 1.055945
Cu7   Cu    Cu3+1 0.500000 0.458990 0.500000 1.055972
Cu8   Cu    Cu3+1 0.041030 0.999980 0.040990 1.025356
Cu9   Cu    Cu3+1 0.958970 0.999980 0.959010 1.025356
Cu10  Cu    Cu3+1 0.541030 0.499980 0.040990 1.025355
Cu11  Cu    Cu3+1 0.458970 0.499980 0.959010 1.025356
Cu12  Cu    Cu3+1 0.500010 0.000050 0.061790 0.996362
H1    H     H_    0.966211 0.788237 0.051506 0.150991
H2    H     H_    0.849145 0.137290 0.265979 0.344715
H3    H     H_    0.650840 0.637299 0.733996 0.344707
H4    H     H_    0.349161 0.637304 0.266000 0.344709
H5    H     H_    0.865478 0.873937 0.765375 0.177126
H6    H     H_    0.134522 0.873937 0.234625 0.177126
H7    H     H_    0.365475 0.373941 0.765373 0.177117
H8    H     H_    0.634524 0.373940 0.234626 0.177117
H9    H     H_    0.965700 0.832368 0.835955 0.363411
H10   H     H_    0.034300 0.832368 0.164045 0.363411
H11   H     H_    0.465695 0.332369 0.835955 0.363412
H12   H     H_    0.033789 0.788237 0.948494 0.150991
H13   H     H_    0.534303 0.332368 0.164045 0.363413
H14   H     H_    0.012758 0.911170 0.813967 0.339346
H15   H     H_    0.987242 0.911170 0.186032 0.339346
H16   H     H_    0.512756 0.411170 0.813968 0.339346
H17   H     H_    0.487243 0.411170 0.186031 0.339346
H18   H     H_    0.787368 0.934585 0.279943 0.162276
H19   H     H_    0.212632 0.934585 0.720057 0.162276
H20   H     H_    0.287368 0.434585 0.279939 0.162292
H21   H     H_    0.712632 0.434589 0.720122 0.162302
H22   H     H_    0.711133 0.935640 0.203310 0.164886
H23   H     H_    0.466213 0.288237 0.051511 0.151002
H24   H     H_    0.288867 0.935640 0.796690 0.164886
H25   H     H_    0.211133 0.435640 0.203306 0.164897
H26   H     H_    0.788867 0.435644 0.796755 0.164900
H27   H     H_    0.679781 0.075451 0.189888 0.331815
H28   H     H_    0.320219 0.075451 0.810112 0.331815
H29   H     H_    0.179781 0.575450 0.189894 0.331813
H30   H     H_    0.820219 0.575446 0.810040 0.331814
H31   H     H_    0.789760 0.067450 0.299945 0.191031
H32   H     H_    0.210240 0.067450 0.700055 0.191031
H33   H     H_    0.289760 0.567450 0.299950 0.191055
H34   H     H_    0.533786 0.288237 0.948489 0.151003
H35   H     H_    0.710240 0.567446 0.699992 0.191032
H36   H     H_    0.466222 0.211769 0.051543 0.148803
H37   H     H_    0.533778 0.211769 0.948456 0.148803
H38   H     H_    0.966220 0.711769 0.051538 0.148788
H39   H     H_    0.033780 0.711769 0.948462 0.148789
H40   H     H_    0.019703 0.179458 0.914630 0.343226
H41   H     H_    0.980297 0.179458 0.085370 0.343226
H42   H     H_    0.511328 0.679459 0.903545 0.342795
H43   H     H_    0.488672 0.679459 0.096455 0.342795
H44   H     H_    0.085105 0.139780 0.703778 0.188385
H45   H     H_    0.843962 0.943792 0.710769 0.171475
H46   H     H_    0.914895 0.139780 0.296222 0.188384
H47   H     H_    0.585092 0.639786 0.703764 0.188410
H48   H     H_    0.414910 0.639788 0.296234 0.188410
H49   H     H_    0.510195 0.789117 0.912854 0.180922
H50   H     H_    0.489805 0.789117 0.087146 0.180922
H51   H     H_    0.017799 0.289118 0.922914 0.180818
H52   H     H_    0.982201 0.289118 0.077086 0.180817
H53   H     H_    0.000672 0.093193 0.695701 0.342965
H54   H     H_    0.999328 0.093193 0.304299 0.342965
H55   H     H_    0.500668 0.593194 0.695709 0.343076
H56   H     H_    0.156039 0.943793 0.289231 0.171475
H57   H     H_    0.499334 0.593193 0.304294 0.343076
H58   H     H_    0.084799 0.973174 0.795206 0.332609
H59   H     H_    0.915201 0.973174 0.204794 0.332608
H60   H     H_    0.584802 0.473179 0.795206 0.332613
H61   H     H_    0.415198 0.473180 0.204798 0.332611
H62   H     H_    0.192797 0.046437 0.814511 0.366227
H63   H     H_    0.807203 0.046437 0.185489 0.366227
H64   H     H_    0.692790 0.546448 0.814486 0.366212
H65   H     H_    0.307209 0.546454 0.185507 0.366210
H66   H     H_    0.069472 0.069848 0.860713 0.342587
H67   H     H_    0.343960 0.443797 0.710765 0.171470
H68   H     H_    0.930528 0.069848 0.139287 0.342587
H69   H     H_    0.569476 0.569844 0.860717 0.342519
H70   H     H_    0.430525 0.569845 0.139284 0.342519
H71   H     H_    0.924968 0.935782 0.632214 0.339134
H72   H     H_    0.075032 0.935782 0.367786 0.339134
H73   H     H_    0.424970 0.435779 0.632215 0.339135
H74   H     H_    0.575029 0.435778 0.367784 0.339135
H75   H     H_    0.892758 0.989298 0.704806 0.167409
H76   H     H_    0.107242 0.989298 0.295194 0.167409
H77   H     H_    0.392758 0.489300 0.704804 0.167450
H78   H     H_    0.656039 0.443795 0.289234 0.171471
H79   H     H_    0.607242 0.489299 0.295195 0.167450
H80   H     H_    0.150855 0.137290 0.734021 0.344716
O1    O     O_R   0.940150 0.034650 0.440170 -0.587056
O2    O     O_R   0.440140 0.999980 0.992380 -0.572857
O3    O     O_R   0.059860 0.499980 0.007620 -0.572892
O4    O     O_R   0.940140 0.499980 0.992380 -0.572892
O5    O     O_R   0.499990 0.059890 0.052110 -0.574929
O6    O     O_R   0.500010 0.059890 0.947890 -0.574929
O7    O     O_R   0.999990 0.559890 0.052110 -0.574933
O8    O     O_R   0.000010 0.559890 0.947890 -0.574933
O9    O     O_R   0.940170 0.965370 0.440140 -0.566846
O10   O     O_R   0.059830 0.965370 0.559860 -0.566846
O11   O     O_R   0.440170 0.465370 0.440140 -0.566862
O12   O     O_R   0.059850 0.034650 0.559830 -0.587056
O13   O     O_R   0.559830 0.465370 0.559860 -0.566862
O14   O     O_R   0.000000 0.034650 0.590170 -0.584804
O15   O     O_R   1.000000 0.034650 0.409830 -0.584804
O16   O     O_R   0.500000 0.534650 0.590170 -0.584762
O17   O     O_R   0.500000 0.534650 0.409830 -0.584764
O18   O     O_R   0.000010 0.965370 0.590140 -0.544501
O19   O     O_R   0.999990 0.965370 0.409860 -0.544501
O20   O     O_R   0.500010 0.465370 0.590140 -0.544518
O21   O     O_R   0.499990 0.465370 0.409860 -0.544517
O22   O     O_R   0.034640 0.940140 0.034570 -0.584451
O23   O     O_R   0.440150 0.534650 0.440170 -0.587004
O24   O     O_R   0.965360 0.940140 0.965430 -0.584450
O25   O     O_R   0.534640 0.440140 0.034570 -0.584453
O26   O     O_R   0.465360 0.440140 0.965430 -0.584452
O27   O     O_R   0.034650 0.999980 0.944430 -0.532411
O28   O     O_R   0.965350 0.999980 0.055570 -0.532411
O29   O     O_R   0.534650 0.499980 0.944430 -0.532388
O30   O     O_R   0.465350 0.499980 0.055570 -0.532388
O31   O     O_R   0.965370 0.000000 0.875180 -0.600271
O32   O     O_R   0.034630 0.000000 0.124820 -0.600272
O33   O     O_R   0.465370 0.500000 0.875180 -0.600298
O34   O     O_R   0.559850 0.534650 0.559830 -0.587003
O35   O     O_R   0.534630 0.500000 0.124820 -0.600298
O36   O     O_R   0.034650 0.059830 0.034650 -0.571333
O37   O     O_R   0.965350 0.059830 0.965350 -0.571333
O38   O     O_R   0.534650 0.559830 0.034650 -0.571248
O39   O     O_R   0.465350 0.559830 0.965350 -0.571248
O40   O     O_R   0.500020 0.940200 0.052240 -0.574740
O41   O     O_R   0.499980 0.940200 0.947760 -0.574740
O42   O     O_R   0.000020 0.440200 0.052240 -0.574710
O43   O     O_R   0.999980 0.440200 0.947760 -0.574709
O44   O     O_3   0.160336 0.109195 0.755659 -0.723731
O45   O     O_R   0.559850 0.000040 0.112000 -0.575115
O46   O     O_3   0.839664 0.109195 0.244341 -0.723730
O47   O     O_3   0.660324 0.609205 0.755634 -0.723762
O48   O     O_3   0.339677 0.609209 0.244362 -0.723770
O49   O     O_3   0.937118 0.839410 0.820162 -0.727802
O50   O     O_3   0.062882 0.839410 0.179838 -0.727803
O51   O     O_3   0.437114 0.339412 0.820161 -0.727806
O52   O     O_3   0.562885 0.339411 0.179838 -0.727807
O53   O     O_3   0.995946 0.890248 0.819026 -0.757053
O54   O     O_3   0.004054 0.890248 0.180974 -0.757054
O55   O     O_3   0.495944 0.390248 0.819026 -0.757049
O56   O     O_R   0.440150 0.000040 0.888000 -0.575114
O57   O     O_3   0.504055 0.390247 0.180973 -0.757047
O58   O     O_3   0.710307 0.078462 0.221244 -0.711160
O59   O     O_3   0.289693 0.078462 0.778757 -0.711160
O60   O     O_3   0.210307 0.578462 0.221249 -0.711150
O61   O     O_3   0.789693 0.578457 0.778682 -0.711155
O62   O     O_3   0.020505 0.209963 0.911184 -0.701850
O63   O     O_3   0.979495 0.209963 0.088816 -0.701850
O64   O     O_3   0.511757 0.709964 0.899609 -0.701805
O65   O     O_3   0.488243 0.709964 0.100391 -0.701804
O66   O     O_3   0.021331 0.110206 0.694299 -0.687941
O67   O     O_R   0.059850 0.500040 0.112000 -0.575092
O68   O     O_3   0.978669 0.110206 0.305701 -0.687940
O69   O     O_3   0.521324 0.610207 0.694299 -0.687606
O70   O     O_3   0.478678 0.610208 0.305702 -0.687606
O71   O     O_3   0.110084 0.986259 0.803804 -0.651826
O72   O     O_3   0.889916 0.986259 0.196195 -0.651826
O73   O     O_3   0.610085 0.486266 0.803798 -0.651838
O74   O     O_3   0.389915 0.486268 0.196203 -0.651834
O75   O     O_3   0.172056 0.027603 0.812274 -0.661084
O76   O     O_3   0.827944 0.027603 0.187726 -0.661084
O77   O     O_3   0.672052 0.527614 0.812256 -0.661118
O78   O     O_R   0.940150 0.500040 0.888000 -0.575091
O79   O     O_3   0.327948 0.527617 0.187742 -0.661116
O80   O     O_3   0.054430 0.050010 0.872085 -0.701483
O81   O     O_3   0.945569 0.050010 0.127915 -0.701483
O82   O     O_3   0.554431 0.550009 0.872085 -0.701409
O83   O     O_3   0.445570 0.550010 0.127916 -0.701409
O84   O     O_3   0.944025 0.951962 0.625142 -0.715852
O85   O     O_3   0.055975 0.951962 0.374858 -0.715852
O86   O     O_3   0.444025 0.451962 0.625142 -0.715845
O87   O     O_3   0.555974 0.451961 0.374857 -0.715843
O88   O     O_R   0.559860 0.999980 0.007620 -0.572858

loop_
_geom_bond_atom_site_label_1
_geom_bond_atom_site_label_2
_ccdc_geom_bond_type
C63   C65   T    
C11   C171  S    
C169  H48   S    
C18   C21   A    
C107  C112  A    
C36   C42   T    
C136  C140  A    
Cu3   O42   S    
C12   C172  S    
C2    C123  S    
C135  C139  A    
C121  C166  S    
C29   O68   S    
C20   H39   S    
C19   H38   S    
C3    O28   A    
C97   C124  A    
C99   H45   S    
C95   C99   A    
C53   O64   S    
C54   C63   S    
C147  C160  S    
Cu1   Cu6   S    
H62   O75   S    
C102  H67   S    
C129  H26   S    
C80   O46   S    
C146  C150  A    
C140  H32   S    
H43   O65   S    
C7    O38   A    
H68   O81   S    
C70   C74   A    
C68   C90   A    
C104  H5    S    
Cu11  O30   S    
Cu2   Cu12  S    
C95   H75   S    
C50   O63   S    
Cu4   O43   S    
C31   C62   A    
C105  H6    S    
C120  O21   A    
C16   O7    A    
C85   C144  A    
Cu5   Cu7   S    
C84   C133  A    
C110  O51   S    
C87   C118  S    
C13   C124  S    
C115  O55   S    
C132  C137  A    
C5    C155  S    
C89   O12   A    
C17   C21   A    
C64   C66   T    
C108  C113  A    
C10   O88   A    
C5    O30   A    
C1    O9    A    
Cu12  O45   S    
C70   O71   S    
C152  C170  T    
Cu3   O7    S    
Cu9   O28   S    
C59   C91   S    
C88   C119  S    
C118  O19   A    
H80   O44   S    
Cu11  O26   S    
Cu8   O36   S    
H65   O79   S    
C97   H77   S    
Cu7   O20   S    
C130  C152  S    
C11   O2    A    
Cu2   O41   S    
C12   O67   A    
C89   C162  S    
C22   C36   S    
H29   O60   S    
H42   O64   S    
C78   C165  A    
Cu12  O2    S    
Cu11  O33   S    
C44   H50   S    
C140  C145  A    
C4    C144  S    
Cu7   O11   S    
C9    O43   A    
C83   C91   A    
C33   C38   S    
H74   O87   S    
C106  H7    S    
C150  H20   S    
H61   O74   S    
C7    C66   S    
C77   C82   A    
C122  C176  S    
C100  C163  S    
Cu3   O67   S    
C127  C131  A    
Cu4   O3    S    
C10   O45   A    
H73   O86   S    
C30   C61   A    
C73   C77   A    
C136  O59   S    
C103  C107  A    
H27   O58   S    
Cu9   O31   S    
Cu10  Cu11  S    
C44   C48   A    
C141  H33   S    
C176  O31   A    
C85   O82   S    
Cu2   O88   S    
C12   O3    A    
Cu6   O10   S    
C27   C33   A    
H4    O48   S    
H28   O59   S    
H70   O83   S    
C18   H37   S    
C46   O85   S    
C14   C173  S    
C1    O1    A    
Cu12  O5    S    
Cu8   Cu9   S    
C13   C144  A    
C117  O14   A    
C15   O5    A    
Cu10  O25   S    
H64   O77   S    
C43   H49   S    
Cu6   O19   S    
C139  C143  A    
C98   C125  A    
H69   O82   S    
C26   H34   S    
C132  C154  S    
C20   C23   A    
C62   C73   A    
H71   O84   S    
Cu12  O40   S    
C79   C91   A    
C137  O60   S    
H2    O46   S    
C44   C52   A    
C30   O69   S    
C82   C169  A    
C7    O39   A    
C96   H76   S    
Cu9   O37   S    
C176  O27   A    
C57   O86   S    
Cu8   O27   S    
C107  H8    S    
H66   O80   S    
C47   C50   A    
C60   C92   S    
C143  C148  A    
C138  O61   S    
C108  O49   S    
H13   O52   S    
C17   C27   A    
C75   O76   S    
Cu7   O21   S    
C131  C136  A    
H17   O57   S    
C23   H12   S    
C129  C134  A    
C90   C120  S    
C147  C151  A    
C45   H51   S    
H16   O55   S    
C26   C33   A    
C29   C60   A    
C32   C37   S    
C83   O80   S    
C5    O35   A    
C6    O36   A    
C109  C114  A    
C168  H47   S    
C114  C123  A    
H3    O47   S    
C116  C125  A    
C100  O11   A    
C142  H35   S    
C112  C116  A    
C46   C87   A    
Cu7   O13   S    
C105  C109  A    
C96   C123  A    
Cu8   O32   S    
C142  C147  A    
C111  C164  S    
Cu1   O1    S    
C112  O52   S    
C78   O44   S    
H14   O53   S    
C118  O15   A    
C25   H1    S    
C127  C149  A    
C35   C79   A    
Cu5   O34   S    
C83   C122  A    
H55   O69   S    
C139  H31   S    
C127  H24   S    
C113  C121  A    
C8    C67   S    
H9    O49   S    
C175  O26   A    
C84   C92   A    
H11   O51   S    
H72   O85   S    
C113  O53   S    
Cu8   O22   S    
C130  C135  A    
C18   C26   A    
C16   O8    A    
C50   C54   A    
C160  C164  T    
C9    C69   S    
C129  C151  A    
C39   C174  S    
C61   C93   S    
C126  C130  A    
C52   O65   S    
C35   C166  A    
C71   O72   S    
C101  H56   S    
C77   O79   S    
Cu1   O12   S    
C43   C53   A    
C6    C65   S    
C134  C156  S    
Cu5   O17   S    
C97   C102  A    
C52   C55   A    
C148  H18   S    
C95   C121  A    
C135  O58   S    
C99   C104  A    
C1    C161  S    
C96   C101  A    
C111  O13   A    
C34   C41   T    
C90   C94   A    
C84   O81   S    
C6    O37   A    
C156  C173  T    
C73   O74   S    
C2    C133  A    
C86   O83   S    
Cu10  O29   S    
C15   C41   S    
Cu5   O16   S    
C138  C142  A    
C126  C148  A    
C9    O42   A    
C31   C169  A    
C60   C71   A    
H58   O71   S    
C86   C155  A    
C45   C49   A    
Cu10  O38   S    
C35   O84   S    
C116  O57   S    
H59   O72   S    
C141  C146  A    
C61   C72   A    
C20   C22   A    
C62   C94   S    
H41   O63   S    
C4    O29   A    
C157  C161  T    
C104  C108  A    
C137  C141  A    
C14   O78   A    
C115  C124  A    
C14   O4    A    
C58   C69   T    
C119  O16   A    
C21   C34   S    
C10   C170  S    
C111  O34   A    
C8    O40   A    
C76   O77   S    
H30   O61   S    
C23   C32   A    
C29   C167  A    
C30   C168  A    
C37   C39   T    
C38   C40   T    
C145  C158  S    
C79   C117  S    
C81   C168  A    
H54   O68   S    
C3    O32   A    
C24   C68   A    
C59   C70   A    
Cu3   Cu4   S    
H15   O54   S    
C75   C80   A    
C13   C57   A    
C74   C78   A    
C17   H36   S    
Cu5   O23   S    
C110  C115  A    
C145  C149  A    
C167  H46   S    
H40   O62   S    
C122  C166  A    
Cu10  O35   S    
C72   C76   A    
C149  H19   S    
C47   C49   A    
C2    C46   A    
C100  O23   A    
C45   C51   A    
C11   O56   A    
H10   O50   S    
C103  H78   S    
C86   C94   A    
Cu2   O56   S    
C81   O47   S    
C82   O48   S    
C8    O41   A    
C165  H44   S    
C43   C48   A    
C80   C167  A    
C24   C155  A    
C128  H25   S    
Cu2   O6    S    
C25   C32   A    
C174  O24   A    
Cu9   O24   S    
C85   C93   A    
Cu3   O4    S    
C128  C132  A    
C143  C157  S    
Cu6   O9    S    
C53   C55   A    
C101  C105  A    
C120  O17   A    
C131  C153  S    
C19   C22   A    
C126  H22   S    
C146  C159  S    
C49   C58   S    
C3    C133  S    
C15   O6    A    
Cu6   O18   S    
Cu1   O14   S    
C51   O62   S    
C98   H79   S    
C55   C64   S    
C153  C171  T    
C27   H23   S    
C72   O73   S    
C154  C172  T    
C31   O70   S    
C28   C165  A    
C24   C125  S    
C175  O25   A    
C159  C163  T    
C28   O66   S    
C16   C42   S    
C87   C92   A    
H57   O70   S    
C106  C110  A    
C28   C59   A    
C128  C150  A    
C48   C56   S    
C88   C93   A    
C151  H21   S    
Cu4   O78   S    
Cu1   O15   S    
C76   C81   A    
C134  C138  A    
C40   C175  S    
C74   O75   S    
C56   C67   T    
C57   C88   A    
C109  O50   S    
C51   C54   A    
H53   O66   S    
Cu11  O39   S    
H60   O73   S    
Cu4   O8    S    
C98   C103  A    
H63   O76   S    
C71   C75   A    
C89   O10   A    
C102  C106  A    
C4    O33   A    
C19   C25   A    
C68   O87   S    
C158  C162  T    
C47   H52   S    
C174  O22   A    
C114  O54   S    
C117  O18   A    
C119  O20   A    
