data_mof_unit_67076.cif
_audit_creation_date              2013-03-05T15:58:17-0500
_audit_creation_method            fapswitch 2.2
_symmetry_space_group_name_H-M    P1
_symmetry_Int_Tables_number       1
_space_group_crystal_system       triclinic
_cell_length_a                    8.271069
_cell_length_b                    12.797828
_cell_length_c                    14.153819
_cell_angle_alpha                 91.759488
_cell_angle_beta                  90.887333
_cell_angle_gamma                 98.017469
_cell_volume                      1482.56670405

loop_
_atom_site_label
_atom_site_type_symbol
_atom_site_description
_atom_site_fract_x
_atom_site_fract_y
_atom_site_fract_z
_atom_type_partial_charge
P1    P     P_3+3 0.054400 0.427280 0.286870 0.466066
O1    O     O_2   0.887370 0.460630 0.272300 -0.406483
O2    O     O_3   0.129410 0.451380 0.388510 -0.345030
O3    O     O_3   0.670210 0.653170 0.329170 -0.353535
O4    O     O_2   0.758184 0.574857 0.165566 -0.414409
O5    O     O_3   0.050594 0.289665 0.288339 -0.534483
O6    O     O_3   0.736137 0.773620 0.165432 -0.520680
H1    H     H_    0.664744 0.909025 0.218213 0.163043
C1    C     C_3   0.617648 0.892263 0.066938 -0.911313
H2    H     H_    0.528436 0.949496 0.065251 0.268112
H3    H     H_    0.741246 0.933397 0.048997 0.265140
P2    P     P_3+3 0.668300 0.742890 0.573060 0.442770
P3    P     P_3+3 0.131269 0.838106 0.361304 0.564631
O7    O     O_2   0.845380 0.761330 0.544970 -0.375047
O8    O     O_3   0.088930 0.704860 0.376040 -0.414097
O9    O     O_2   0.013873 0.885459 0.429259 -0.336217
O10   O     O_3   0.677185 0.765606 0.695754 -0.584251
O11   O     O_3   0.052633 0.852094 0.246788 -0.432624
C2    C     C_3   0.099083 0.771314 0.186319 0.648691
H4    H     H_    0.022330 0.694884 0.198674 0.111574
H5    H     H_    0.228328 0.760476 0.199229 -0.017369
C3    C     C_3   0.080746 0.799180 0.082405 -0.905522
H6    H     H_    0.956835 0.768328 0.053978 0.264506
H7    H     H_    0.102904 0.886023 0.073859 0.299479
C4    C     C_3   0.236472 0.757764 0.649468 0.392055
H8    H     H_    0.366068 0.747150 0.647607 0.097324
H9    H     H_    0.172636 0.725575 0.583056 0.135361
C5    C     C_3   0.223429 0.874908 0.655560 -0.921301
H10   H     H_    0.254825 0.906270 0.728027 0.269531
H11   H     H_    0.306854 0.918920 0.605438 0.217852
H12   H     H_    0.096899 0.887509 0.638133 0.270773
Ba1   Ba    Ba6+2 0.855630 0.555280 0.454520 1.580817
C6    C     C_3   0.929079 0.228158 0.233811 0.602953
H13   H     H_    0.813100 0.262281 0.230055 0.074947
C7    C     C_3   0.992149 0.201873 0.136875 -0.785642
H14   H     H_    0.024540 0.272751 0.095430 0.244521
H15   H     H_    0.896048 0.146145 0.099073 0.268071
H16   H     H_    0.103529 0.162835 0.143161 0.290683
C8    C     C_3   0.711647 0.675146 0.740487 0.445346
H17   H     H_    0.833696 0.657690 0.719804 0.093715
H18   H     H_    0.617495 0.606379 0.722524 0.120202
C9    C     C_3   0.711332 0.696262 0.846892 -1.047948
H19   H     H_    0.810908 0.760476 0.868270 0.279758
H20   H     H_    0.729808 0.624449 0.884938 0.224918
H21   H     H_    0.592112 0.719791 0.867486 0.262347
P4    P     P_3+3 0.135310 0.572810 0.713130 0.462236
O12   O     O_2   0.302330 0.539400 0.727760 -0.372914
O13   O     O_3   0.060300 0.548700 0.611500 -0.406889
O14   O     O_3   0.519500 0.346920 0.670840 -0.405030
O15   O     O_3   0.168613 0.710324 0.730372 -0.579016
P5    P     P_3+3 0.051080 0.154914 0.614102 0.501025
O16   O     O_3   0.614310 0.373510 0.452640 -0.413458
O17   O     O_3   0.100780 0.295230 0.623970 -0.323634
O18   O     O_2   0.173660 0.114958 0.545601 -0.354158
O19   O     O_3   0.107707 0.097304 0.718290 -0.588507
Ba2   Ba    Ba6+2 0.334200 0.444810 0.545490 1.626581
P6    P     P_3+3 0.647728 0.651786 0.206103 0.435022
C10   C     C_3   0.622489 0.845437 0.165010 0.478768
H22   H     H_    0.496210 0.812019 0.184557 0.044638
H23   H     H_    0.578653 0.828546 0.012594 0.233234
O20   O     O_3   0.575400 0.626570 0.547370 -0.412438
C11   C     C_3   0.478991 0.346867 0.260756 0.435195
H24   H     H_    0.359685 0.358999 0.289354 0.116714
H25   H     H_    0.572886 0.414963 0.280452 0.120019
C12   C     C_3   0.467036 0.333593 0.153304 -0.939643
H26   H     H_    0.366611 0.269851 0.132401 0.286657
H27   H     H_    0.444231 0.406448 0.119400 0.231179
H28   H     H_    0.583365 0.311879 0.125948 0.239020
P7    P     P_3+3 0.523902 0.247455 0.415717 0.542291
O21   O     O_2   0.344320 0.238700 0.455090 -0.299777
O22   O     O_3   0.524229 0.253721 0.293400 -0.493155
H29   H     H_    0.170469 0.763423 0.038552 0.201198
C13   C     C_3   0.979791 0.087669 0.782998 1.154404
H30   H     H_    0.860836 0.100036 0.751878 -0.272259
C14   C     C_3   0.957926 0.976829 0.822174 -1.021926
H31   H     H_    0.074363 0.958447 0.853225 0.262831
H32   H     H_    0.864011 0.969837 0.877675 0.245970
H33   H     H_    0.917069 0.917724 0.764831 0.244738
P8    P     P_3+3 0.535886 0.350516 0.794389 0.502784
C15   C     C_3   0.515396 0.149805 0.763600 0.484100
H34   H     H_    0.636592 0.173732 0.732115 0.003686
O23   O     O_2   0.402789 0.411873 0.834302 -0.315249
O24   O     O_3   0.479880 0.222644 0.833977 -0.468409
H35   H     H_    0.420905 0.142519 0.706317 0.151943
H36   H     H_    0.610691 0.047217 0.863769 0.269642
C16   C     C_3   0.515520 0.042689 0.807298 -0.983503
H37   H     H_    0.540744 0.983598 0.752324 0.233095
H38   H     H_    0.395652 0.017276 0.839594 0.283819
C17   C     C_R   0.977146 0.459226 0.063511 -0.143113
C18   C     C_R   0.179389 0.502591 0.197000 0.190228
C19   C     C_R   0.328226 0.558711 0.228120 -0.502490
C20   C     C_R   0.439230 0.605555 0.164022 0.228417
C21   C     C_R   0.397303 0.605853 0.068071 -0.332803
C22   C     C_R   0.242578 0.558340 0.035236 0.088084
C23   C     C_R   0.131601 0.505433 0.099358 -0.026962
H39   H     H_    0.363853 0.558815 0.302024 0.166758
C24   C     C_R   0.047800 0.511338 0.902736 0.023968
C25   C     C_R   0.934182 0.462544 0.967321 0.143429
C26   C     C_R   0.005324 0.505558 0.804381 0.292855
C27   C     C_R   0.853541 0.452254 0.773865 -0.456807
C28   C     C_R   0.738487 0.411071 0.838415 0.178107
C29   C     C_R   0.778099 0.416380 0.934866 -0.245312
C30   C     C_R   0.199815 0.561824 0.938711 -0.142169
H40   H     H_    0.486449 0.641172 0.019094 0.154352
H41   H     H_    0.688344 0.382195 0.983959 0.158666
H42   H     H_    0.821183 0.447370 0.699321 0.160921
H43   H     H_    0.888726 0.417553 0.108933 0.151448
H44   H     H_    0.287259 0.603727 0.892491 0.158647
C31   C     C_R   0.762646 0.172665 0.516146 -0.407462
C32   C     C_R   0.429302 0.811670 0.453124 -0.543607
C33   C     C_R   0.431709 0.983167 0.384953 0.418967
C34   C     C_R   0.350723 0.880857 0.399342 0.072313
C35   C     C_R   0.575576 0.845212 0.504014 0.287386
C36   C     C_R   0.640718 0.955112 0.505331 -0.068885
C37   C     C_R   0.564022 0.026821 0.448519 -0.198433
C38   C     C_R   0.623429 0.138177 0.460723 0.281124
C39   C     C_R   0.846992 0.102699 0.561785 0.193874
C40   C     C_R   0.783045 0.995145 0.559952 -0.156609
H45   H     H_    0.847210 0.943841 0.600626 0.150777
H46   H     H_    0.810330 0.255909 0.521448 0.163112
H47   H     H_    0.372610 0.730681 0.458058 0.179687
I1    I     I_    0.901497 0.080968 0.302127 -0.179889
S1    S     S_3+6 0.030769 0.182608 0.876922 -0.031890
O25   O     O_2   0.158202 0.148146 0.941450 -0.259754
O26   O     O_2   0.095928 0.287258 0.837328 -0.259948
O27   O     O_3   0.861456 0.193880 0.937603 -0.599814
H48   H     H_    0.781040 0.208557 0.889331 0.335575
S2    S     S_3+6 0.394383 0.036694 0.272819 -0.041514
O28   O     O_2   0.317947 0.955219 0.201779 -0.362970
O29   O     O_2   0.278932 0.116700 0.285638 -0.228502
O30   O     O_3   0.568337 0.087405 0.221585 -0.568172
H49   H     H_    0.534016 0.111154 0.159232 0.378349

loop_
_geom_bond_atom_site_label_1
_geom_bond_atom_site_label_2
_geom_bond_distance
_ccdc_geom_bond_type
P4    C26   1.848753 S    
S2    O30   1.678653 S    
P7    C38   1.843610 S    
C21   C22   1.403794 A    
P6    C20   1.827740 S    
C13   C14   1.527147 S    
C13   H30   1.105159 S    
C2    H4    1.109538 S    
C15   H35   1.110077 S    
S2    O28   1.493315 D    
C36   C37   1.443299 A    
C31   C39   1.378962 A    
S1    O25   1.504713 D    
C8    H18   1.111108 S    
H36   C16   1.107601 S    
C4    C5    1.517928 S    
C28   C29   1.396362 A    
P3    O11   1.760643 S    
C20   C21   1.396686 A    
C5    H10   1.103610 S    
C7    H15   1.109938 S    
Ba1   O20   2.922718 S    
O11   C2    1.419683 S    
P3    C34   1.886396 S    
P7    O21   1.585049 D    
C32   H47   1.081164 S    
C6    C7    1.520021 S    
C16   H38   1.109457 S    
S1    O26   1.500782 D    
C37   C38   1.445393 A    
C29   H41   1.081380 S    
O1    Ba1   2.847075 S    
P1    O1    1.514709 D    
O10   C8    1.397794 S    
P7    O22   1.735595 S    
C4    O15   1.400860 S    
Ba1   O16   2.845251 S    
C15   C16   1.521252 S    
O16   P7    1.741950 S    
C31   C38   1.394646 A    
H1    C10   1.107398 S    
C19   H39   1.082244 S    
C40   H45   1.074767 S    
C33   C34   1.407302 A    
C12   H27   1.099511 S    
P2    O10   1.750641 S    
C11   H25   1.109017 S    
C2    C3    1.534198 S    
C1    H2    1.110318 S    
O6    C10   1.403397 S    
P2    Ba1   3.442584 S    
Ba1   O13   2.782849 S    
C22   C23   1.419447 A    
C9    H20   1.106802 S    
C15   O24   1.405659 S    
C21   H40   1.081953 S    
C3    H29   1.112182 S    
C24   C26   1.427633 A    
C24   C25   1.416557 A    
C8    C9    1.522009 S    
P4    O13   1.562359 S    
P1    O5    1.757823 S    
C18   C23   1.434464 A    
C7    H16   1.111198 S    
C35   C36   1.433705 A    
C8    H17   1.105750 S    
C16   H37   1.110754 S    
S1    O27   1.674987 S    
C13   S1    1.778156 S    
C4    H8    1.099717 S    
C25   C29   1.406728 A    
P1    Ba1   3.413252 S    
O14   P8    1.750543 S    
P1    O2    1.562474 S    
C9    H21   1.111004 S    
C17   C23   1.410648 A    
C14   H31   1.110146 S    
C11   H24   1.101338 S    
C24   C30   1.411007 A    
C1    H3    1.119293 S    
O2    Ba2   2.783427 S    
C26   C27   1.397924 A    
C12   H28   1.110137 S    
C17   H43   1.076752 S    
C6    H13   1.109253 S    
O3    Ba1   2.767188 S    
C14   H32   1.110097 S    
C32   C35   1.405685 A    
C36   C40   1.423103 A    
O8    Ba1   2.790781 S    
P2    O7    1.512058 D    
C22   C30   1.409518 A    
Ba2   O21   2.908534 S    
P3    O8    1.712178 S    
C6    I1    2.129366 S    
C3    H7    1.111548 S    
C9    H19   1.110598 S    
O30   H49   0.992273 S    
P1    C18   1.858420 S    
C19   C20   1.389630 A    
P2    C35   1.895660 S    
O17   Ba2   2.791379 S    
O13   Ba2   2.932982 S    
P4    O12   1.515058 D    
C1    C10   1.530875 S    
C11   C12   1.525275 S    
C2    H5    1.110065 S    
C3    H6    1.110294 S    
C5    H12   1.106171 S    
O7    Ba1   2.908313 S    
C15   H34   1.110759 S    
S2    O29   1.503278 D    
P8    O23   1.542966 D    
C4    H9    1.110054 S    
O14   Ba2   2.766585 S    
P4    O15   1.751841 S    
C27   H42   1.082258 S    
O5    C6    1.394051 S    
O4    P6    1.538038 D    
C17   C25   1.405151 A    
C1    H23   1.114028 S    
P5    O18   1.540804 D    
C5    H11   1.108118 S    
C10   H22   1.114436 S    
C39   C40   1.403341 A    
P8    O24   1.749146 S    
P2    O20   1.605527 S    
C18   C19   1.393718 A    
O27   H48   0.986478 S    
C27   C28   1.390919 A    
P5    C39   1.860253 S    
Ba1   Ba2   4.565041 S    
C11   O22   1.388301 S    
P5    O19   1.754774 S    
O2    Ba1   2.932218 S    
C14   H33   1.107964 S    
C32   C34   1.404448 A    
O19   C13   1.404976 S    
C31   H46   1.083094 S    
C12   H26   1.109719 S    
P3    O9    1.546761 D    
P4    Ba2   3.413710 S    
C33   S2    1.787214 S    
Ba2   O20   2.844576 S    
P8    C28   1.836488 S    
C30   H44   1.080122 S    
C33   C37   1.444758 A    
C7    H14   1.099290 S    
P5    O17   1.786083 S    
O6    P6    1.745667 S    
O16   Ba2   2.921933 S    
O3    P6    1.748183 S    
O12   Ba2   2.847569 S    
