data_mof_unit_56019.cif
_audit_creation_date              2012-10-26T20:11:40-0400
_audit_creation_method            fapswitch 2.2
_symmetry_space_group_name_H-M    P1
_symmetry_Int_Tables_number       1
_space_group_crystal_system       triclinic
_cell_length_a                    11.069628
_cell_length_b                    15.073037
_cell_length_c                    14.045306
_cell_angle_alpha                 89.829692
_cell_angle_beta                  103.681005
_cell_angle_gamma                 95.037498
_cell_volume                      2267.83095631

loop_
_atom_site_label
_atom_site_type_symbol
_atom_type_description
_atom_site_fract_x
_atom_site_fract_y
_atom_site_fract_z
_atom_type_partial_charge
C1    C     C_R   0.499623 0.330429 0.499922 0.558582
C2    C     C_R   0.585130 0.556204 0.809178 0.351637
C3    C     C_R   0.433954 0.435029 0.092651 -0.096638
C4    C     C_R   0.579343 0.558588 0.908595 -0.094644
C5    C     C_R   0.486272 0.508244 0.051078 -0.057488
C6    C     C_R   0.485076 0.510585 0.942502 -0.053639
C7    C     C_R   0.262725 0.501111 0.459321 0.562666
C8    C     C_R   0.737178 0.498321 0.540538 0.562886
C9    C     C_2   0.127100 0.504344 0.435149 -0.023627
C10   C     C_2   0.872526 0.493794 0.563842 -0.035236
C11   C     C_2   0.068715 0.506343 0.508770 -0.156523
C12   C     C_R   0.497712 0.669854 0.499572 0.568333
C13   C     C_2   0.933919 0.511072 0.492929 -0.154539
C14   C     C_R   0.396928 0.089604 0.517982 -0.020032
C15   C     C_R   0.446895 0.901931 0.410594 -0.018966
C16   C     C_R   0.398891 0.181869 0.519905 -0.076880
C17   C     C_R   0.446213 0.809575 0.411969 -0.092172
C18   C     C_R   0.499315 0.234334 0.499176 0.007277
C19   C     C_R   0.494474 0.766585 0.499268 -0.039394
C20   C     C_R   0.597215 0.195069 0.473748 -0.068782
C21   C     C_R   0.538286 0.816184 0.586656 -0.079304
C22   C     C_R   0.597965 0.102542 0.472230 0.260043
C23   C     C_R   0.497651 0.049474 0.495981 0.017789
C24   C     C_R   0.541153 0.908773 0.586861 0.261492
C25   C     C_1   0.935069 0.463642 0.659472 0.256437
C26   C     C_1   0.060128 0.505025 0.333098 0.249646
C27   C     C_1   0.290169 0.037206 0.537862 0.268422
C28   C     C_1   0.394606 0.944010 0.319346 0.273672
C29   C     C_R   0.496891 0.952100 0.497695 0.011675
C30   C     C_R   0.546168 0.576890 0.115628 -0.095485
C31   C     C_R   0.397241 0.458205 0.873024 -0.103511
C32   C     C_R   0.560362 0.570933 0.218061 0.347058
C33   C     C_R   0.410700 0.446602 0.776289 0.347077
C34   C     C_R   0.434544 0.432356 0.193475 0.354977
Cu1   Cu    Cu3+1 0.500000 0.499990 0.596430 1.152287
Cu2   Cu    Cu3+1 0.500000 0.500010 0.403570 1.138887
H1    H     H_    0.883378 0.529582 0.420646 0.207721
H2    H     H_    0.322237 0.420570 0.896334 0.178377
H3    H     H_    0.812299 0.161129 0.368126 0.356823
H4    H     H_    0.697828 0.937123 0.846545 0.399429
H5    H     H_    0.764992 0.715601 0.422575 0.374404
H6    H     H_    0.177148 0.309397 0.597795 0.363800
H7    H     H_    0.243542 0.286289 0.326635 0.357300
H8    H     H_    0.805723 0.682916 0.680908 0.368792
H9    H     H_    0.122300 0.504729 0.584162 0.186166
H10   H     H_    0.393380 0.377912 0.046256 0.182766
H11   H     H_    0.653913 0.595157 0.961221 0.178862
H12   H     H_    0.320985 0.212674 0.535581 0.178130
H13   H     H_    0.406191 0.771039 0.345201 0.177985
H14   H     H_    0.673094 0.237054 0.456016 0.142196
H15   H     H_    0.571013 0.782779 0.654872 0.225065
H16   H     H_    0.584970 0.636348 0.086418 0.177595
N1    N     N_R   0.500000 0.500020 0.258690 -0.268643
N2    N     N_R   0.500000 0.499980 0.741310 -0.262080
N3    N     N_1   0.985742 0.439012 0.735352 -0.165431
N4    N     N_1   0.006737 0.505556 0.251635 -0.191057
N5    N     N_1   0.204719 0.995210 0.553757 -0.169699
N6    N     N_1   0.352804 0.977829 0.246346 -0.164547
O1    O     O_R   0.500010 0.371450 0.581440 -0.429344
O2    O     O_2   0.679536 0.008184 0.342488 -0.238111
O3    O     O_3   0.838978 0.134859 0.433679 -0.483274
O4    O     O_2   0.686657 0.046202 0.688300 -0.205989
O5    O     O_2   0.490025 0.000153 0.733071 -0.234489
O6    O     O_3   0.673240 0.900375 0.785539 -0.469146
O7    O     O_2   0.766831 0.680033 0.232408 -0.256971
O8    O     O_2   0.586848 0.743314 0.265956 -0.271877
O9    O     O_3   0.724172 0.655408 0.401484 -0.504981
O10   O     O_2   0.433205 0.279706 0.724432 -0.216021
O11   O     O_2   0.246088 0.303785 0.778362 -0.264028
O12   O     O_R   0.499990 0.628550 0.418560 -0.452024
O13   O     O_3   0.253532 0.350588 0.604048 -0.542381
O14   O     O_2   0.261923 0.293659 0.135209 -0.239615
O15   O     O_2   0.446674 0.266297 0.260759 -0.276656
O16   O     O_3   0.271130 0.347227 0.309220 -0.490074
O17   O     O_2   0.765214 0.689942 0.863713 -0.244584
O18   O     O_2   0.823716 0.550792 0.808776 -0.254084
O19   O     O_3   0.718680 0.659920 0.679510 -0.508060
O20   O     O_R   0.500010 0.371460 0.418560 -0.452917
O21   O     O_R   0.499990 0.628540 0.581440 -0.477259
O22   O     O_R   0.320690 0.500000 0.551510 -0.480499
O23   O     O_R   0.679310 0.500000 0.448490 -0.473183
O24   O     O_R   0.320690 0.500010 0.388630 -0.459931
O25   O     O_R   0.679310 0.499990 0.611370 -0.435885
O26   O     O_2   0.776838 0.989152 0.515447 -0.178904
S1    S     S_3+6 0.724581 0.055459 0.440179 0.084103
S2    S     S_3+6 0.598225 0.967662 0.699998 0.075974
S3    S     S_3+6 0.660225 0.663129 0.281451 0.058294
S4    S     S_3+6 0.335130 0.343402 0.720340 0.060912
S5    S     S_3+6 0.353276 0.332853 0.225158 0.073969
S6    S     S_3+6 0.724719 0.614894 0.789535 0.069097

loop_
_geom_bond_atom_site_label_1
_geom_bond_atom_site_label_2
_ccdc_geom_bond_type
C8    O25   A    
Cu1   Cu2   S    
C16   H12   S    
H5    O9    S    
O4    S2    D    
C1    C18   S    
C23   C29   S    
O16   S5    S    
H8    O19   S    
C19   C21   A    
C33   S4    S    
C1    O1    A    
C5    C6    S    
C12   O21   A    
Cu1   O22   S    
Cu1   O1    S    
C22   S1    S    
C2    S6    S    
C24   C29   A    
C20   H14   S    
Cu2   N1    S    
O17   S6    D    
Cu2   O24   S    
C31   C33   A    
O7    S3    D    
C14   C27   S    
C13   H1    S    
H7    O16   S    
C6    C31   A    
Cu1   N2    S    
C1    O20   A    
O6    S2    S    
Cu2   O12   S    
C9    C26   S    
C15   C29   A    
H3    O3    S    
O19   S6    S    
C8    O23   A    
O26   S1    D    
C4    C6    A    
C27   N5    T    
C17   H13   S    
O8    S3    D    
Cu1   O25   S    
C3    C34   A    
C32   S3    S    
C14   C23   A    
C2    C4    A    
Cu2   O23   S    
C9    C11   D    
O11   S4    D    
O3    S1    S    
C10   C25   S    
C16   C18   A    
C20   C22   A    
O5    S2    D    
C2    N2    A    
O10   S4    D    
C14   C16   A    
C11   H9    S    
C32   N1    A    
C21   H15   S    
C5    C30   A    
C33   N2    A    
C7    C9    S    
C12   O12   A    
C25   N3    T    
C3    C5    A    
C10   C13   D    
C26   N4    T    
O2    S1    D    
C15   C17   A    
C28   N6    T    
C3    H10   S    
O9    S3    S    
H4    O6    S    
C31   H2    S    
C34   S5    S    
O15   S5    D    
Cu2   O20   S    
C30   C32   A    
O14   S5    D    
C11   C13   S    
C15   C28   S    
C30   H16   S    
C12   C19   S    
Cu1   O21   S    
H6    O13   S    
C17   C19   A    
C18   C20   A    
O13   S4    S    
C7    O24   A    
C34   N1    A    
C8    C10   S    
C21   C24   A    
C22   C23   A    
C24   S2    S    
O18   S6    D    
C7    O22   A    
C4    H11   S    
