data_mof_unit_21852.cif
_audit_creation_date              2012-12-11T14:29:30-0500
_audit_creation_method            fapswitch 2.2
_symmetry_space_group_name_H-M    P1
_symmetry_Int_Tables_number       1
_space_group_crystal_system       triclinic
_cell_length_a                    6.935865
_cell_length_b                    14.787644
_cell_length_c                    16.256107
_cell_angle_alpha                 90.352323
_cell_angle_beta                  89.637008
_cell_angle_gamma                 89.693857
_cell_volume                      1667.2201475

loop_
_atom_site_label
_atom_site_type_symbol
_atom_type_description
_atom_site_fract_x
_atom_site_fract_y
_atom_site_fract_z
_atom_type_partial_charge
O1    O     O_R   0.494400 0.416610 0.413880 -0.546016
O2    O     O_R   0.823920 0.406790 0.585520 -0.536402
O3    O     O_R   0.994250 0.583390 0.586120 -0.520330
C1    C     C_R   0.654560 0.386604 0.614761 0.751911
O4    O     O_R   0.824110 0.405730 0.414490 -0.544624
O5    O     O_R   0.994440 0.582310 0.413870 -0.540390
C2    C     C_R   0.655863 0.385810 0.385056 0.738945
O6    O     O_R   0.494210 0.417690 0.586130 -0.538195
O7    O     O_3   0.660810 0.557940 0.500000 -0.386287
V1    V     V_3+5 0.935650 0.489250 0.500000 1.435686
O8    O     O_R   0.324160 0.593210 0.414480 -0.552864
C3    C     C_R   0.155800 0.613015 0.385011 0.765845
O9    O     O_R   0.323970 0.594270 0.585510 -0.543410
C4    C     C_R   0.153253 0.619204 0.611440 0.900741
V2    V     V_3+5 0.435660 0.510750 0.500000 1.412585
O10   O     O_3   0.160630 0.442060 0.500000 -0.371074
H1    H     H_    0.061603 0.928099 0.505261 0.152886
C5    C     C_R   0.173261 0.559267 0.783234 0.178973
C6    C     C_R   0.199259 0.530998 0.863953 -0.186066
C7    C     C_R   0.202247 0.592290 0.927637 -0.185351
C8    C     C_R   0.176541 0.684288 0.913431 0.188964
C9    C     C_R   0.151366 0.717867 0.831368 0.012435
C10   C     C_R   0.154911 0.653818 0.764352 0.024459
C11   C     C_R   0.123403 0.812270 0.814955 -0.161868
C12   C     C_R   0.106789 0.843392 0.732034 0.010534
C13   C     C_R   0.105540 0.779029 0.665544 -0.085109
C14   C     C_R   0.136966 0.685022 0.681480 -0.177622
C15   C     C_R   0.091624 0.937961 0.712473 0.173049
C16   C     C_R   0.085703 0.966131 0.630907 -0.263354
C17   C     C_R   0.075980 0.904124 0.567765 -0.202807
C18   C     C_R   0.070280 0.811677 0.584130 0.421789
H2    H     H_    0.215795 0.459889 0.877699 0.125423
H3    H     H_    0.221980 0.567847 0.989746 0.125109
H4    H     H_    0.080249 0.037580 0.616617 0.140712
C19   C     C_2   0.989179 0.706753 0.279620 -0.089660
C20   C     C_2   0.152339 0.675333 0.314326 -0.243339
H5    H     H_    0.850496 0.683581 0.302257 0.110354
H6    H     H_    0.291117 0.691867 0.287897 0.151585
C21   C     C_2   0.987677 0.766356 0.205764 -0.242063
C22   C     C_2   0.124650 0.828296 0.188519 0.313082
H7    H     H_    0.866223 0.758835 0.164476 0.084216
C23   C     C_2   0.771279 0.229027 0.798616 0.366971
C24   C     C_2   0.623050 0.169794 0.808672 0.190433
C25   C     C_2   0.789633 0.285056 0.721725 -0.214287
C26   C     C_2   0.637822 0.325596 0.686211 -0.305532
H8    H     H_    0.932050 0.296947 0.696206 0.132267
H9    H     H_    0.495130 0.317467 0.712836 0.161015
C27   C     C_2   0.767202 0.214278 0.210168 -0.173126
C28   C     C_2   0.606904 0.168474 0.186799 0.060497
H10   H     H_    0.898340 0.206206 0.173919 0.128424
C29   C     C_2   0.784486 0.272210 0.285107 -0.143150
C30   C     C_2   0.641557 0.326395 0.312402 -0.321149
H11   H     H_    0.923582 0.273903 0.315367 0.142940
H12   H     H_    0.507759 0.330570 0.278949 0.135787
O11   O     O_R   0.770210 0.079270 0.910680 -0.521162
O12   O     O_R   0.440150 0.091160 0.082270 -0.532414
O13   O     O_R   0.269970 0.914530 0.082860 -0.537560
C31   C     C_R   0.607475 0.110736 0.112224 0.732391
O14   O     O_R   0.440480 0.090100 0.911240 -0.543572
O15   O     O_R   0.270310 0.913460 0.910610 -0.528996
C32   C     C_R   0.610088 0.111150 0.882580 0.703512
O16   O     O_R   0.769870 0.080340 0.082930 -0.553464
O17   O     O_3   0.603660 0.938980 0.996790 -0.383440
V3    V     V_3+5 0.328750 0.007610 0.996740 1.469131
O18   O     O_R   0.940600 0.902510 0.911180 -0.535834
C33   C     C_R   0.110678 0.878951 0.884181 0.889495
O19   O     O_R   0.940270 0.903570 0.082200 -0.559448
C34   C     C_R   0.109315 0.886252 0.113754 0.668234
V4    V     V_3+5 0.828770 0.986010 0.996670 1.448975
O20   O     O_3   0.103730 0.054750 0.996710 -0.358151
O21   O     O_3   0.261371 0.848395 0.248282 -0.544220
C35   C     C_3   0.451198 0.837747 0.217405 -0.202068
H13   H     H_    0.506877 0.903478 0.195050 0.163071
H14   H     H_    0.464288 0.784707 0.168577 0.096649
H15   H     H_    0.545615 0.816672 0.268770 0.139648
O22   O     O_3   0.899522 0.239442 0.863850 -0.564084
C36   C     C_3   0.090264 0.252956 0.836475 -0.206598
H16   H     H_    0.110711 0.323775 0.816867 0.115549
H17   H     H_    0.131257 0.205379 0.786108 0.156772
H18   H     H_    0.189196 0.240571 0.888578 0.171090
O23   O     O_3   0.490419 0.156497 0.746509 -0.583381
C37   C     C_3   0.556805 0.085050 0.695608 -0.317285
H19   H     H_    0.565804 0.020376 0.730111 0.140750
H20   H     H_    0.698631 0.101009 0.666912 0.147792
H21   H     H_    0.452440 0.075383 0.644972 0.178961
N1    N     N_3   0.434700 0.165758 0.236586 -0.666943
H22   H     H_    0.347974 0.221789 0.223841 0.223038
H23   H     H_    0.468492 0.162495 0.299079 0.252453
N2    N     N_3   0.158263 0.489694 0.722014 -0.667280
H24   H     H_    0.036227 0.451256 0.735345 0.223991
H25   H     H_    0.279788 0.447893 0.725508 0.214189
N3    N     N_3   0.177050 0.741946 0.984285 -0.692408
H26   H     H_    0.308753 0.733774 0.014428 0.216951
H27   H     H_    0.067121 0.720817 0.023957 0.204252
N4    N     N_3   0.082268 0.007413 0.774117 -0.663087
H28   H     H_    0.200337 0.049826 0.766427 0.259516
H29   H     H_    0.956981 0.045475 0.765085 0.216161
O24   O     O_3   0.024252 0.754538 0.519697 -0.573258
C38   C     C_3   0.824292 0.762867 0.504473 -0.173813
H30   H     H_    0.783399 0.832533 0.485645 0.112984
H31   H     H_    0.737920 0.742062 0.559081 0.131681
H32   H     H_    0.785392 0.717996 0.452585 0.167688

loop_
_geom_bond_atom_site_label_1
_geom_bond_atom_site_label_2
_ccdc_geom_bond_type
C31   O16   A    
C22   O21   S    
O2    C1    A    
N4    H28   S    
C1    O6    A    
O23   C37   S    
C21   H7    S    
C36   H16   S    
C12   C15   A    
C13   C14   A    
C15   N4    S    
C15   C16   A    
C19   H5    S    
C2    C30   S    
O5    C3    A    
C17   C18   A    
N1    H23   S    
V2    O10   S    
O24   C38   S    
C5    C6    A    
C18   O24   S    
O8    V2    S    
C27   C29   S    
C6    C7    A    
C30   H12   S    
O12   V3    S    
O1    V2    S    
V3    O20   S    
C4    C14   S    
C3    C20   S    
O7    V1    S    
C11   C33   S    
C26   H9    S    
O15   C33   A    
C13   C18   A    
O9    C4    A    
H1    C17   S    
C23   C25   S    
C35   H15   S    
C6    H2    S    
C25   H8    S    
C1    C26   S    
C36   H17   S    
O14   C32   A    
O19   C34   A    
O17   V4    S    
O22   C36   S    
C35   H14   S    
C21   C22   D    
O4    C2    A    
N1    H22   S    
C12   C13   A    
C16   H4    S    
C28   C31   S    
C5    C10   A    
O16   V4    S    
C29   H11   S    
C19   C20   D    
C19   C21   S    
C16   C17   A    
C38   H30   S    
N3    H27   S    
O14   V3    S    
C11   C12   A    
O11   V4    S    
O3    C4    A    
C7    H3    S    
C27   C28   D    
C38   H31   S    
O18   C33   A    
O6    V2    S    
C10   C14   A    
O9    V2    S    
C24   O23   S    
C9    C11   A    
N2    H25   S    
C23   C24   D    
O13   C34   A    
O2    V1    S    
C25   C26   D    
C24   C32   S    
O13   V3    S    
C36   H18   S    
O1    C2    A    
C5    N2    S    
C23   O22   S    
C28   N1    S    
C35   H13   S    
O5    V1    S    
O8    C3    A    
N4    H29   S    
C37   H21   S    
C37   H20   S    
O15   V3    S    
C20   H6    S    
O7    V2    S    
C29   C30   D    
O3    V1    S    
V1    O10   S    
O18   V4    S    
O11   C32   A    
C27   H10   S    
N3    H26   S    
O12   C31   A    
V4    O20   S    
O17   V3    S    
O4    V1    S    
C38   H32   S    
O21   C35   S    
C7    C8    A    
C37   H19   S    
C22   C34   S    
C9    C10   A    
O19   V4    S    
N2    H24   S    
C8    C9    A    
C8    N3    S    
