data_mof_unit_33782.cif
_audit_creation_date              2012-10-26T21:02:36-0400
_audit_creation_method            fapswitch 2.2
_symmetry_space_group_name_H-M    P1
_symmetry_Int_Tables_number       1
_space_group_crystal_system       triclinic
_cell_length_a                    12.340902
_cell_length_b                    13.083678
_cell_length_c                    14.992441
_cell_angle_alpha                 77.877971
_cell_angle_beta                  101.288544
_cell_angle_gamma                 116.873388
_cell_volume                      2097.0189352

loop_
_atom_site_label
_atom_site_type_symbol
_atom_type_description
_atom_site_fract_x
_atom_site_fract_y
_atom_site_fract_z
_atom_type_partial_charge
C1    C     C_R   0.854955 0.286190 0.506841 0.606250
C2    C     C_R   0.924561 0.384574 0.820802 0.004076
C3    C     C_R   0.991821 0.490670 0.767442 0.017074
C4    C     C_R   0.998013 0.497715 0.670767 0.520301
C5    C     C_R   0.055256 0.593187 0.805153 -0.114112
C6    C     C_R   0.277203 0.035310 0.396789 0.028941
C7    C     C_R   0.229575 0.837590 0.469081 0.004206
C8    C     C_R   0.816699 0.081636 0.556466 -0.177765
C9    C     C_R   0.740601 0.964080 0.563827 0.434204
C10   C     C_R   0.617761 0.925219 0.528571 0.434832
C11   C     C_R   0.569381 0.005614 0.483942 -0.057872
C12   C     C_R   0.059360 0.599779 0.083847 0.032584
C13   C     C_R   0.652655 0.122267 0.461317 -0.036416
C14   C     C_R   0.442256 0.975826 0.460843 0.000758
C15   C     C_R   0.402552 0.057109 0.403660 -0.043557
C16   C     C_R   0.145492 0.714327 0.486844 0.580779
C17   C     C_R   0.490048 0.155053 0.355022 0.018723
C18   C     C_R   0.613957 0.191738 0.389297 0.426396
C19   C     C_R   0.353691 0.869727 0.496795 -0.128904
C20   C     C_R   0.190616 0.921618 0.421441 0.410944
C21   C     C_R   0.774007 0.162138 0.506207 -0.043992
C22   C     C_R   0.346078 0.327242 0.644084 -0.146446
C23   C     C_R   0.871890 0.285444 0.069859 -0.023782
C24   C     C_R   0.762383 0.646464 0.376145 0.064819
C25   C     C_R   0.668030 0.680281 0.348208 0.427728
C26   C     C_R   0.563099 0.626617 0.393123 0.423263
C27   C     C_R   0.551488 0.536844 0.468242 -0.043905
C28   C     C_R   0.000469 0.500046 0.329396 0.680866
C29   C     C_R   0.652206 0.505951 0.494189 0.112571
C30   C     C_R   0.446488 0.476523 0.519180 0.024166
C31   C     C_R   0.445816 0.388061 0.592993 0.030438
C32   C     C_R   0.544779 0.360530 0.616269 -0.163345
C33   C     C_R   0.645584 0.418600 0.568477 -0.065049
C34   C     C_R   0.867130 0.281304 0.977212 0.352085
C35   C     C_R   0.341328 0.498783 0.501557 0.106958
C36   C     C_R   0.246493 0.353687 0.622757 0.042026
C37   C     C_R   0.060191 0.601094 0.177201 0.352163
C38   C     C_R   0.000064 0.497910 0.233544 0.019926
C39   C     C_R   0.938662 0.392650 0.198825 0.319842
C40   C     C_R   0.935013 0.389880 0.105670 -0.053844
C41   C     C_R   0.995541 0.493196 0.047696 -0.121931
C42   C     C_3   0.456560 0.211308 0.260685 -0.252127
C43   C     C_3   0.509657 0.191631 0.185108 -0.345188
C44   C     C_3   0.235670 0.132089 0.375583 -0.250134
C45   C     C_R   0.926956 0.383548 0.916579 0.045275
C46   C     C_3   0.182756 0.139539 0.456941 -0.386869
C47   C     C_3   0.850882 0.276444 0.773786 -0.230299
C48   C     C_3   0.921238 0.203101 0.784779 -0.362343
C49   C     C_R   0.992485 0.490053 0.953732 -0.009366
C50   C     C_R   0.055381 0.594211 0.897294 -0.035566
C51   C     C_R   0.118634 0.698834 0.933500 -0.083234
C52   C     C_R   0.120518 0.702133 0.025823 0.456151
Cu1   Cu    Cu3+1 0.098270 0.475420 0.521130 0.997342
Cu2   Cu    Cu3+1 0.901730 0.524580 0.478870 1.062081
F1    F     F_    0.119271 0.701637 0.214183 -0.542930
F2    F     F_    0.069339 0.894409 0.400588 -0.606040
F3    F     F_    0.551746 0.809166 0.531220 -0.585157
F4    F     F_    0.785790 0.887045 0.607189 -0.572809
F5    F     F_    0.697188 0.288129 0.344287 -0.591197
F6    F     F_    0.882489 0.293455 0.255965 -0.597092
F7    F     F_    0.476062 0.665290 0.360892 -0.571929
F8    F     F_    0.678408 0.766073 0.276840 -0.536925
F9    F     F_    0.804684 0.175194 0.950080 -0.643553
F10   F     F_    0.182801 0.805705 0.057804 -0.538218
H1    H     H_    0.378603 0.809629 0.546847 0.212905
H2    H     H_    0.104855 0.673008 0.761855 0.117442
H3    H     H_    0.166826 0.778732 0.889990 0.145051
H4    H     H_    0.610863 0.237792 0.191904 0.236161
H5    H     H_    0.481735 0.097704 0.187309 0.205762
H6    H     H_    0.474252 0.224797 0.116963 0.144084
H7    H     H_    0.356515 0.173816 0.240499 0.148947
H8    H     H_    0.489595 0.305592 0.261044 0.173223
H9    H     H_    0.095544 0.062522 0.469826 0.232758
H10   H     H_    0.249190 0.146964 0.519811 0.137351
H11   H     H_    0.164129 0.217322 0.442063 0.162396
H12   H     H_    0.909846 0.109518 0.589520 0.148959
H13   H     H_    0.312943 0.218084 0.361864 0.124740
H14   H     H_    0.166212 0.118340 0.314227 0.207851
H15   H     H_    0.002393 0.250527 0.746625 0.132040
H16   H     H_    0.952674 0.182371 0.857906 0.225892
H17   H     H_    0.861568 0.121011 0.756320 0.156582
H18   H     H_    0.759576 0.225478 0.798095 0.213735
H19   H     H_    0.828115 0.298500 0.699239 0.096661
H20   H     H_    0.168881 0.306638 0.661386 0.120247
H21   H     H_    0.544879 0.293470 0.672832 0.111973
H22   H     H_    0.345100 0.259399 0.700128 0.111111
H23   H     H_    0.331013 0.563038 0.447844 0.233452
H24   H     H_    0.843306 0.688900 0.340749 0.207148
H25   H     H_    0.717117 0.392227 0.592732 0.167735
H26   H     H_    0.825245 0.205495 0.113838 0.222510
N1    N     N_R   0.246280 0.438190 0.553160 -0.262249
N2    N     N_R   0.754320 0.561190 0.447410 -0.291001
O1    O     O_R   0.972510 0.318130 0.526570 -0.520478
O2    O     O_R   0.806530 0.359650 0.490890 -0.477975
O3    O     O_R   0.082980 0.479210 0.647590 -0.507491
O4    O     O_R   0.917000 0.520730 0.611900 -0.521084
O5    O     O_R   0.193470 0.640350 0.509110 -0.506178
O6    O     O_R   0.027490 0.681870 0.473430 -0.437039
O7    O     O_R   0.083000 0.479270 0.388100 -0.492872
O8    O     O_R   0.917020 0.520790 0.352410 -0.456220

loop_
_geom_bond_atom_site_label_1
_geom_bond_atom_site_label_2
_ccdc_geom_bond_type
C1    C21   S    
C27   C29   A    
C20   F2    S    
Cu1   Cu2   S    
Cu1   O7    S    
C26   C27   A    
C37   C38   A    
C30   C35   A    
C48   H15   S    
C44   H13   S    
C26   F7    S    
C30   C31   A    
C11   C14   A    
C16   O5    A    
Cu1   O3    S    
C32   H21   S    
C23   C40   A    
C29   C33   A    
C8    H12   S    
C48   H17   S    
C9    F4    S    
C47   H18   S    
C12   C37   A    
C17   C42   S    
C34   F9    S    
C6    C15   A    
C4    O4    A    
C35   H23   S    
C31   C32   A    
C43   H4    S    
Cu1   N1    S    
C45   C49   A    
C9    C10   A    
Cu2   O4    S    
C28   O8    A    
C43   H5    S    
C6    C44   S    
C27   C30   A    
Cu2   O8    S    
C24   N2    A    
C41   C49   A    
C46   H11   S    
C12   C52   A    
C44   C46   S    
C50   C51   A    
C2    C45   A    
C22   C31   A    
Cu1   O1    S    
C51   C52   A    
C10   F3    S    
C24   C25   A    
C52   F10   S    
C39   C40   A    
C8    C9    A    
Cu1   O5    S    
C25   C26   A    
Cu2   N2    S    
C12   C41   A    
C33   H25   S    
C4    O3    A    
C47   C48   S    
C28   C38   S    
C23   C34   A    
C42   H8    S    
C17   C18   A    
C23   H26   S    
C13   C21   A    
C34   C45   A    
C51   H3    S    
C24   H24   S    
C13   C18   A    
C36   N1    A    
C40   C41   A    
C49   C50   A    
C43   H6    S    
C7    C19   A    
C5    C50   A    
C42   C43   S    
C3    C4    S    
C46   H10   S    
C6    C20   A    
C28   O7    A    
C15   C17   A    
C7    C16   S    
C14   C19   A    
C5    H2    S    
C3    C5    A    
C8    C21   A    
C1    O2    A    
C2    C47   S    
C22   C36   A    
C32   C33   A    
C48   H16   S    
C44   H14   S    
C2    C3    A    
C11   C13   A    
C16   O6    A    
C38   C39   A    
C36   H20   S    
C39   F6    S    
C46   H9    S    
C42   H7    S    
C19   H1    S    
C25   F8    S    
C22   H22   S    
Cu2   O2    S    
C10   C11   A    
C47   H19   S    
C37   F1    S    
C18   F5    S    
C1    O1    A    
C7    C20   A    
C14   C15   A    
Cu2   O6    S    
C29   N2    A    
C35   N1    A    
