data_mof_unit_61069.cif
_audit_creation_date              2012-10-26T18:16:20-0400
_audit_creation_method            fapswitch 2.2
_symmetry_space_group_name_H-M    P1
_symmetry_Int_Tables_number       1
_space_group_crystal_system       triclinic
_cell_length_a                    26.060142
_cell_length_b                    25.98535
_cell_length_c                    26.292885
_cell_angle_alpha                 108.935655
_cell_angle_beta                  110.61987
_cell_angle_gamma                 108.498183
_cell_volume                      13762.9270774

loop_
_atom_site_label
_atom_site_type_symbol
_atom_type_description
_atom_site_fract_x
_atom_site_fract_y
_atom_site_fract_z
_atom_type_partial_charge
C1    C     C_R   0.416198 0.914829 0.001100 0.586372
C2    C     C_R   0.116402 0.661497 0.963560 -0.128727
C3    C     C_R   0.133706 0.635041 0.001081 0.013755
C4    C     C_R   0.586567 0.000205 0.086483 0.569796
C5    C     C_R   0.197521 0.656142 0.039702 -0.123707
C6    C     C_R   0.243300 0.702439 0.040272 -0.112849
C7    C     C_R   0.226019 0.728480 0.002373 0.034910
C8    C     C_R   0.271190 0.999249 0.825153 -0.088540
C9    C     C_R   0.312688 0.992163 0.868817 -0.007610
C10   C     C_R   0.369206 0.000566 0.869906 0.050116
C11   C     C_R   0.384051 0.015373 0.828670 -0.134840
C12   C     C_1   0.870456 0.000181 0.370428 -0.036908
C13   C     C_R   0.342472 0.022418 0.785605 -0.124183
C14   C     C_R   0.286327 0.014147 0.784051 0.019394
C15   C     C_R   0.218296 0.970676 0.673314 -0.091857
C16   C     C_R   0.584900 0.085154 0.999805 0.540505
C17   C     C_R   0.167996 0.963603 0.624591 0.253988
C18   C     C_R   0.140204 0.000207 0.639067 0.024284
C19   C     C_R   0.161912 0.043131 0.700187 -0.175125
C20   C     C_R   0.211902 0.049655 0.748338 -0.133653
C21   C     C_R   0.239584 0.013249 0.734540 -0.021692
C22   C     C_R   0.693431 0.241608 0.029501 -0.065292
C23   C     C_R   0.272832 0.830168 0.005552 -0.130458
C24   C     C_R   0.647784 0.196007 0.029887 -0.113597
C25   C     C_R   0.632806 0.133388 0.999299 0.016797
C26   C     C_R   0.664033 0.117134 0.968131 -0.116034
C27   C     C_R   0.710041 0.162843 0.968272 -0.082881
C28   C     C_R   0.415570 0.998913 0.916708 0.540737
C29   C     C_R   0.724982 0.225193 0.999109 0.076133
C30   C     C_R   0.763030 0.278796 0.946540 -0.042463
C31   C     C_R   0.809608 0.325547 0.948266 -0.131857
C32   C     C_R   0.866507 0.369460 0.003737 -0.024866
C33   C     C_R   0.877063 0.367883 0.059772 -0.021361
C34   C     C_R   0.319696 0.875127 0.005896 -0.176492
C35   C     C_R   0.833045 0.316834 0.057400 0.274527
C36   C     C_R   0.774869 0.273768 0.000935 0.010600
C37   C     C_R   0.007071 0.084937 0.591860 0.529314
C38   C     C_R   0.922764 0.000091 0.422714 0.518035
C39   C     C_R   0.009690 0.914798 0.424569 0.598521
C40   C     C_1   0.638906 0.000300 0.138922 -0.011766
C41   C     C_R   0.092399 0.999029 0.591302 0.610189
C42   C     C_R   0.998545 0.585559 0.084234 0.552163
C43   C     C_R   0.085524 0.585891 0.000268 0.557128
C44   C     C_R   0.002415 0.415362 0.915649 0.558389
C45   C     C_R   0.368836 0.866330 0.001787 0.010009
C46   C     C_R   0.914551 0.416073 0.001650 0.559828
C47   C     C_R   0.062604 0.224063 0.740683 -0.120258
C48   C     C_R   0.062007 0.178510 0.694078 -0.137294
C49   C     C_R   0.005529 0.132926 0.638320 0.046066
C50   C     C_R   0.948808 0.133434 0.628804 -0.004848
C51   C     C_R   0.950139 0.179395 0.676089 -0.098503
C52   C     C_1   0.681821 0.000286 0.181866 -0.013448
C53   C     C_R   0.006741 0.224922 0.731702 0.015418
C54   C     C_R   0.978341 0.307857 0.760824 -0.093812
C55   C     C_R   0.976564 0.354663 0.804229 -0.007878
C56   C     C_R   0.371142 0.811521 0.998223 0.257403
C57   C     C_R   0.004118 0.368041 0.867457 0.026502
C58   C     C_R   0.034383 0.335423 0.885177 -0.137909
C59   C     C_R   0.036183 0.289434 0.841366 -0.123222
C60   C     C_R   0.007377 0.274896 0.778902 0.016265
C61   C     C_R   0.968268 0.755885 0.306937 0.008512
C62   C     C_R   0.972022 0.802934 0.355599 -0.071877
C63   C     C_R   0.007407 0.865963 0.374332 0.016488
C64   C     C_1   0.733192 0.000261 0.233238 0.013320
C65   C     C_R   0.039033 0.881748 0.343636 -0.145672
C66   C     C_R   0.035332 0.835325 0.294980 -0.131566
C67   C     C_R   0.323531 0.766724 0.997639 -0.092606
C68   C     C_R   0.000384 0.772534 0.276546 0.039112
C69   C     C_R   0.035880 0.696935 0.242453 -0.116747
C70   C     C_R   0.035277 0.651494 0.195792 -0.130005
C71   C     C_R   0.998509 0.633690 0.132840 0.012735
C72   C     C_R   0.962501 0.662387 0.117413 -0.128737
C73   C     C_R   0.963365 0.708191 0.164379 -0.121336
C74   C     C_R   0.999770 0.725180 0.226910 0.027004
C75   C     C_1   0.776132 0.000244 0.276164 0.009573
C76   C     C_1   0.827520 0.000219 0.327524 -0.024812
C77   C     C_3   0.295318 0.973614 0.911663 -0.391269
C78   C     C_R   0.274611 0.775803 0.001595 -0.018322
C79   C     C_3   0.700897 0.234851 0.886348 -0.396276
C80   C     C_3   0.932493 0.422524 0.121787 -0.315891
C81   C     C_3   0.886745 0.088057 0.568910 -0.388033
C82   C     C_3   0.946214 0.389588 0.781561 -0.377258
C83   C     C_3   0.929460 0.688638 0.287459 -0.384899
C84   C     C_R   0.162293 0.708060 0.964350 -0.112024
Cu1   Cu    Cu3+1 0.500810 0.955960 0.956750 1.035158
Cu2   Cu    Cu3+1 0.499190 0.044040 0.043250 0.952161
Cu3   Cu    Cu3+1 0.053200 0.044090 0.509100 0.995000
Cu4   Cu    Cu3+1 0.965100 0.955990 0.509100 0.979754
Cu5   Cu    Cu3+1 0.043250 0.499980 0.043240 0.938421
Cu6   Cu    Cu3+1 0.956750 0.499990 0.956740 0.919030
H1    H     H_    0.235604 0.838173 0.009140 0.123488
H2    H     H_    0.317232 0.916755 0.008787 0.125193
H3    H     H_    0.734587 0.149857 0.945071 0.118670
H4    H     H_    0.801451 0.327876 0.905887 0.136628
H5    H     H_    0.106745 0.259279 0.783230 0.118321
H6    H     H_    0.105634 0.178387 0.701735 0.114042
H7    H     H_    0.906902 0.180170 0.669228 0.111454
H8    H     H_    0.957343 0.297113 0.712485 0.111221
H9    H     H_    0.056093 0.344880 0.933029 0.134902
H10   H     H_    0.058887 0.264264 0.855951 0.116378
H11   H     H_    0.947329 0.790300 0.378947 0.148930
H12   H     H_    0.428143 0.022386 0.830610 0.118368
H13   H     H_    0.066382 0.929955 0.356966 0.141424
H14   H     H_    0.060267 0.848350 0.271949 0.123506
H15   H     H_    0.064404 0.710081 0.290744 0.130165
H16   H     H_    0.063487 0.630165 0.209071 0.134450
H17   H     H_    0.933948 0.649591 0.069277 0.130101
H18   H     H_    0.324369 0.724330 0.994066 0.158278
H19   H     H_    0.935405 0.730036 0.152082 0.117365
H20   H     H_    0.148035 0.727269 0.934420 0.112857
H21   H     H_    0.067459 0.646105 0.933474 0.128742
H22   H     H_    0.212116 0.636731 0.069306 0.134718
H23   H     H_    0.353372 0.033370 0.753006 0.125444
H24   H     H_    0.292300 0.718126 0.070532 0.123811
H25   H     H_    0.226323 0.991314 0.821629 0.116407
H26   H     H_    0.327719 0.011656 0.960749 0.155408
H27   H     H_    0.246786 0.963966 0.900149 0.119633
H28   H     H_    0.298043 0.930709 0.907230 0.129143
H29   H     H_    0.145336 0.917407 0.469000 0.361762
H30   H     H_    0.693639 0.186652 0.868686 0.134075
H31   H     H_    0.662107 0.236154 0.894312 0.140128
H32   H     H_    0.698640 0.247631 0.849491 0.131513
H33   H     H_    0.944037 0.466985 0.120713 0.116599
H34   H     H_    0.240032 0.942175 0.664133 0.161951
H35   H     H_    0.921756 0.429158 0.159915 0.194650
H36   H     H_    0.974109 0.415484 0.133287 0.177099
H37   H     H_    0.839432 0.338532 0.204201 0.376202
H38   H     H_    0.891198 0.059253 0.530841 0.156539
H39   H     H_    0.854707 0.056813 0.577584 0.139537
H40   H     H_    0.865051 0.114065 0.552024 0.123634
H41   H     H_    0.535142 0.853149 0.050237 0.367364
H42   H     H_    0.979708 0.440418 0.809777 0.152334
H43   H     H_    0.932233 0.375758 0.732077 0.114603
H44   H     H_    0.903006 0.379455 0.784574 0.154324
H45   H     H_    0.140374 0.071656 0.710313 0.109114
H46   H     H_    0.893081 0.662805 0.237218 0.141123
H47   H     H_    0.960001 0.667104 0.295341 0.148149
H48   H     H_    0.905354 0.683889 0.314422 0.133502
H49   H     H_    0.228599 0.082246 0.796100 0.125935
H50   H     H_    0.704707 0.289770 0.053369 0.139899
H51   H     H_    0.624191 0.209737 0.053958 0.133634
H52   H     H_    0.653526 0.069251 0.944317 0.133708
O1    O     O_R   0.436410 0.898530 0.963480 -0.433506
O2    O     O_R   0.962300 0.564250 0.026560 -0.508610
O3    O     O_R   0.100790 0.564260 0.036510 -0.507829
O4    O     O_R   0.435050 0.972920 0.036520 -0.520992
O5    O     O_R   0.027750 0.564260 0.963460 -0.514367
O6    O     O_R   0.037700 0.435720 0.973410 -0.506903
O7    O     O_R   0.964660 0.435720 0.900370 -0.515366
O8    O     O_R   0.972250 0.435710 0.036510 -0.504839
O9    O     O_R   0.899210 0.435710 0.963470 -0.508687
O10   O     O_R   0.563780 0.962800 0.026580 -0.468513
O11   O     O_R   0.562420 0.037190 0.099620 -0.485945
O12   O     O_R   0.970770 0.027100 0.572200 -0.514882
O13   O     O_R   0.564950 0.027080 0.963480 -0.519123
O14   O     O_R   0.563590 0.101470 0.036520 -0.509948
O15   O     O_R   0.437580 0.962810 0.900380 -0.510816
O16   O     O_R   0.436220 0.037200 0.973420 -0.518629
O17   O     O_R   0.045170 0.101500 0.572190 -0.511815
O18   O     O_2   0.175175 0.872432 0.546319 -0.290152
O19   O     O_2   0.071969 0.866113 0.514569 -0.284048
O20   O     O_3   0.154683 0.948955 0.509275 -0.519146
O21   O     O_2   0.817368 0.238853 0.106018 -0.264585
O22   O     O_2   0.920522 0.330383 0.162237 -0.283475
O23   O     O_R   0.983250 0.037240 0.445990 -0.493764
O24   O     O_3   0.829075 0.346500 0.168477 -0.548731
O25   O     O_2   0.432074 0.745731 0.010849 -0.285704
O26   O     O_2   0.428591 0.782505 0.935590 -0.257512
O27   O     O_3   0.502604 0.863318 0.053896 -0.526336
O28   O     O_R   0.908850 0.962840 0.446000 -0.503406
O29   O     O_R   0.047530 0.972970 0.446000 -0.488101
O30   O     O_R   0.973130 0.898570 0.446000 -0.493503
O31   O     O_R   0.109450 0.037230 0.572200 -0.480547
O32   O     O_R   0.035050 0.962830 0.572200 -0.486484
O33   O     O_R   0.035340 0.564250 0.099610 -0.515476
S1    S     S_3+6 0.141207 0.909630 0.546978 0.006992
S2    S     S_3+6 0.851183 0.306412 0.124425 -0.008018
S3    S     S_3+6 0.433946 0.798536 0.998198 0.024194

loop_
_geom_bond_atom_site_label_1
_geom_bond_atom_site_label_2
_ccdc_geom_bond_type
C35   S2    S    
Cu5   O6    S    
C66   C68   A    
C41   O32   A    
C63   C65   A    
C51   H7    S    
Cu4   O30   S    
C22   C29   A    
C52   C64   S    
C27   C29   A    
C73   C74   A    
C2    C84   A    
C35   C36   A    
Cu3   Cu4   S    
Cu1   O1    S    
C81   H40   S    
C54   C60   A    
Cu1   Cu2   S    
Cu5   O3    S    
C79   H31   S    
C29   C36   S    
C3    C43   S    
C26   C27   A    
C62   C63   A    
C1    O1    A    
C14   C21   S    
Cu2   O11   S    
C77   H27   S    
C42   O33   A    
C30   C31   A    
C67   H18   S    
O20   S1    S    
C80   H35   S    
C19   H45   S    
C22   H50   S    
Cu4   O32   S    
C18   C19   A    
Cu1   O13   S    
Cu2   O14   S    
C6    H24   S    
C39   O29   A    
Cu5   O33   S    
C8    H25   S    
C33   C35   A    
C13   H23   S    
C4    C40   S    
C45   C56   A    
C8    C9    A    
O21   S2    D    
C70   C71   A    
C77   H26   S    
C9    C10   A    
C24   H51   S    
C17   S1    S    
C47   C53   A    
C62   H11   S    
C7    C84   A    
C59   C60   A    
C13   C14   A    
C59   H10   S    
O18   S1    D    
C1    O4    A    
C69   C70   A    
C67   C78   A    
Cu1   O15   S    
Cu6   O7    S    
C4    O10   A    
Cu2   O4    S    
H29   O20   S    
C28   O15   A    
C53   C60   S    
C38   O28   A    
Cu3   O31   S    
C79   H32   S    
C2    H21   S    
Cu4   O28   S    
C15   H34   S    
C66   H14   S    
C46   O9    A    
C24   C25   A    
C77   H28   S    
C61   C83   S    
C18   C41   S    
O24   S2    S    
O19   S1    D    
C69   H15   S    
Cu6   O9    S    
C56   S3    S    
C50   C51   A    
C58   C59   A    
C40   C52   T    
C84   H20   S    
C51   C53   A    
Cu4   O12   S    
C82   H44   S    
C75   C76   S    
C16   O14   A    
Cu6   O5    S    
C43   O3    A    
C37   C49   S    
C81   H39   S    
C47   C48   A    
C72   H17   S    
C44   C57   S    
C23   C34   A    
Cu3   O29   S    
C79   H30   S    
C16   O13   A    
C28   O16   A    
C17   C18   A    
C69   C74   A    
C34   C45   A    
C9    C77   S    
C55   C82   S    
Cu2   O16   S    
C83   H46   S    
C7    C78   S    
C30   C79   S    
C48   C49   A    
C46   O8    A    
C49   C50   A    
C55   C57   A    
C81   H38   S    
C70   H16   S    
C23   H1    S    
C27   H3    S    
C65   H13   S    
C38   O23   A    
C82   H42   S    
C56   C67   A    
Cu5   O8    S    
O27   S3    S    
C83   H47   S    
C20   H49   S    
C10   C28   S    
C16   C25   S    
C15   C17   A    
C41   O31   A    
C54   C55   A    
H41   O27   S    
C8    C14   A    
C48   H6    S    
C32   C46   S    
C37   O12   A    
C31   C32   A    
C58   H9    S    
C72   C73   A    
C3    C5    A    
C33   C80   S    
C73   H19   S    
C6    C7    A    
C5    H22   S    
C31   H4    S    
C39   C63   S    
C44   O7    A    
C30   C36   A    
C32   C33   A    
C37   O17   A    
C19   C20   A    
C12   C76   T    
C2    C3    A    
C25   C26   A    
Cu1   O10   S    
C71   C72   A    
C42   O2    A    
C11   C13   A    
C61   C68   A    
C1    C45   S    
C57   C58   A    
C5    C6    A    
C80   H36   S    
C82   H43   S    
H37   O24   S    
O26   S3    D    
C42   C71   S    
C44   O6    A    
C64   C75   T    
Cu3   O17   S    
C4    O11   A    
C11   H12   S    
C22   C24   A    
C23   C78   A    
C12   C38   S    
C61   C62   A    
C34   H2    S    
C43   O5    A    
C10   C11   A    
Cu3   O23   S    
C15   C21   A    
O25   S3    D    
C20   C21   A    
C39   O30   A    
C65   C66   A    
C47   H5    S    
C54   H8    S    
Cu5   Cu6   S    
C26   H52   S    
C68   C74   S    
C83   H48   S    
Cu6   O2    S    
O22   S2    D    
C50   C81   S    
C80   H33   S    
