data_mof_unit_45148.cif
_audit_creation_date              2012-12-10T19:09:27-0500
_audit_creation_method            fapswitch 2.2
_symmetry_space_group_name_H-M    P1
_symmetry_Int_Tables_number       1
_space_group_crystal_system       triclinic
_cell_length_a                    16.112195
_cell_length_b                    14.265223
_cell_length_c                    9.964928
_cell_angle_alpha                 89.839472
_cell_angle_beta                  88.036303
_cell_angle_gamma                 89.673042
_cell_volume                      2288.98935247

loop_
_atom_site_label
_atom_site_type_symbol
_atom_type_description
_atom_site_fract_x
_atom_site_fract_y
_atom_site_fract_z
_atom_type_partial_charge
C1    C     C_R   0.121007 0.378836 0.499417 0.834823
C2    C     C_R   0.119522 0.622869 0.498108 0.835405
C3    C     C_R   0.621007 0.878836 0.499417 0.834824
C4    C     C_R   0.619522 0.122869 0.498108 0.835405
C5    C     C_3   0.914095 0.512828 0.084048 -0.263606
C6    C     C_3   0.914700 0.518916 0.925343 -0.254263
C7    C     C_3   0.414095 0.012828 0.084048 -0.263605
C8    C     C_3   0.414700 0.018916 0.925343 -0.254263
C9    C     C_R   0.879860 0.378315 0.499820 0.844249
C10   C     C_R   0.882540 0.624685 0.501433 0.830039
C11   C     C_R   0.379860 0.878315 0.499820 0.844250
C12   C     C_R   0.382540 0.124685 0.501433 0.830039
C13   C     C_3   0.780703 0.288262 0.637032 -0.484604
C14   C     C_3   0.841625 0.217703 0.426889 -0.464607
C15   C     C_3   0.809440 0.741490 0.363980 -0.453358
C16   C     C_3   0.833968 0.776519 0.601512 -0.489731
C17   C     C_3   0.280703 0.788262 0.637032 -0.484604
C18   C     C_3   0.341625 0.717703 0.426889 -0.464607
C19   C     C_3   0.309441 0.241490 0.363980 -0.453357
C20   C     C_3   0.333968 0.276519 0.601512 -0.489731
C21   C     C_3   0.206142 0.724814 0.639547 0.078839
C22   C     C_3   0.270792 0.643909 0.435586 0.039901
C23   C     C_3   0.226873 0.291881 0.355640 0.076743
C24   C     C_3   0.264202 0.351696 0.588686 0.061071
C25   C     C_3   0.706143 0.224813 0.639547 0.078839
C26   C     C_3   0.770791 0.143909 0.435586 0.039901
C27   C     C_3   0.726873 0.791881 0.355640 0.076743
C28   C     C_3   0.764202 0.851696 0.588686 0.061071
C29   C     C_3   0.739852 0.350633 0.411127 -0.379266
C30   C     C_3   0.734752 0.647077 0.558563 -0.365133
C31   C     C_3   0.239852 0.850633 0.411126 -0.379266
C32   C     C_3   0.234752 0.147077 0.558563 -0.365133
C33   C     C_3   0.811605 0.310267 0.494355 0.127757
C34   C     C_3   0.816294 0.695184 0.505129 0.151087
C35   C     C_3   0.311605 0.810267 0.494355 0.127757
C36   C     C_3   0.316294 0.195184 0.505129 0.151087
C37   C     C_3   0.188178 0.691727 0.493373 0.084328
C38   C     C_3   0.191037 0.311360 0.501858 0.071110
C39   C     C_3   0.688178 0.191727 0.493373 0.084328
C40   C     C_3   0.691037 0.811360 0.501858 0.071110
C41   C     C_3   0.169287 0.778487 0.403867 -0.407500
C42   C     C_3   0.162278 0.217924 0.566304 -0.400327
C43   C     C_3   0.669286 0.278488 0.403867 -0.407501
C44   C     C_3   0.662278 0.717924 0.566305 -0.400327
C45   C     C_3   0.030532 0.407907 0.081362 0.087249
C46   C     C_3   0.028787 0.408570 0.919688 0.159480
C47   C     C_3   0.049340 0.578732 0.912988 0.046469
C48   C     C_3   0.056460 0.572769 0.073078 0.186720
C49   C     C_3   0.530532 0.907907 0.081362 0.087249
C50   C     C_3   0.528787 0.908570 0.919688 0.159481
C51   C     C_3   0.549340 0.078732 0.912988 0.046469
C52   C     C_3   0.556460 0.072769 0.073078 0.186721
H1    H     H_    0.765933 0.354453 0.691739 0.191044
H2    H     H_    0.860576 0.232122 0.320438 0.205228
H3    H     H_    0.818453 0.694269 0.277855 0.190778
H4    H     H_    0.836215 0.749272 0.706067 0.194765
H5    H     H_    0.265933 0.854453 0.691739 0.191044
H6    H     H_    0.360576 0.732122 0.320439 0.205228
H7    H     H_    0.318453 0.194269 0.277855 0.190777
H8    H     H_    0.336215 0.249272 0.706067 0.194765
H9    H     H_    0.831200 0.248069 0.683253 0.158356
H10   H     H_    0.897379 0.189669 0.476822 0.137910
H11   H     H_    0.860232 0.793557 0.348898 0.129170
H12   H     H_    0.895459 0.808453 0.576888 0.137753
H13   H     H_    0.331200 0.748070 0.683253 0.158356
H14   H     H_    0.397379 0.689670 0.476822 0.137910
H15   H     H_    0.360232 0.293557 0.348899 0.129169
H16   H     H_    0.395459 0.308453 0.576888 0.137752
H17   H     H_    0.224384 0.660446 0.695616 0.096907
H18   H     H_    0.288756 0.588778 0.508441 0.113646
H19   H     H_    0.240472 0.361677 0.309671 0.104576
H20   H     H_    0.290431 0.412757 0.532564 0.119366
H21   H     H_    0.724384 0.160445 0.695616 0.096907
H22   H     H_    0.788756 0.088778 0.508441 0.113646
H23   H     H_    0.740471 0.861677 0.309671 0.104576
H24   H     H_    0.790431 0.912757 0.532563 0.119365
H25   H     H_    0.716774 0.417802 0.454105 0.146453
H26   H     H_    0.762729 0.367189 0.307073 0.170651
H27   H     H_    0.719081 0.585656 0.497192 0.156363
H28   H     H_    0.743879 0.618452 0.661153 0.155186
H29   H     H_    0.216774 0.917801 0.454104 0.146454
H30   H     H_    0.262729 0.867189 0.307072 0.170651
H31   H     H_    0.219081 0.085656 0.497191 0.156363
H32   H     H_    0.243879 0.118452 0.661153 0.155186
H33   H     H_    0.108738 0.811400 0.428795 0.165853
H34   H     H_    0.164263 0.757545 0.298267 0.171141
H35   H     H_    0.106637 0.190551 0.517815 0.165504
H36   H     H_    0.142097 0.228282 0.672900 0.147986
H37   H     H_    0.608738 0.311400 0.428796 0.165853
H38   H     H_    0.664262 0.257545 0.298267 0.171142
H39   H     H_    0.606637 0.690551 0.517816 0.165504
H40   H     H_    0.642097 0.728282 0.672900 0.147986
H41   H     H_    0.096989 0.400046 0.106971 0.075792
H42   H     H_    0.094948 0.401235 0.886058 0.062659
H43   H     H_    0.113557 0.568772 0.870377 0.108393
H44   H     H_    0.120730 0.544920 0.084384 0.029798
H45   H     H_    0.596989 0.900046 0.106971 0.075792
H46   H     H_    0.594948 0.901235 0.886058 0.062658
H47   H     H_    0.613557 0.068772 0.870377 0.108392
H48   H     H_    0.620730 0.044919 0.084384 0.029798
N1    N     N_3   0.998760 0.500000 0.138610 -0.101630
N2    N     N_3   0.998760 0.500000 0.861390 -0.116489
N3    N     N_3   0.498760 1.000000 0.138610 -0.101630
N4    N     N_3   0.498760 0.000000 0.861390 -0.116489
O1    O     O_R   0.092530 0.407440 0.616040 -0.620609
O2    O     O_R   0.092530 0.407440 0.383960 -0.634210
O3    O     O_R   0.092530 0.592560 0.383960 -0.586403
O4    O     O_R   0.092530 0.592560 0.616040 -0.638324
O5    O     O_R   0.592530 0.907440 0.616040 -0.620609
O6    O     O_R   0.592530 0.907440 0.383960 -0.634210
O7    O     O_R   0.592530 0.092560 0.383960 -0.586403
O8    O     O_R   0.592530 0.092560 0.616040 -0.638324
O9    O     O_R   0.907330 0.407420 0.616040 -0.623422
O10   O     O_R   0.907330 0.407420 0.383960 -0.653223
O11   O     O_R   0.907330 0.592580 0.383960 -0.632647
O12   O     O_R   0.907330 0.592580 0.616040 -0.652007
O13   O     O_R   0.407330 0.907420 0.616040 -0.623422
O14   O     O_R   0.407330 0.907420 0.383960 -0.653223
O15   O     O_R   0.407330 0.092580 0.383960 -0.632647
O16   O     O_R   0.407330 0.092580 0.616040 -0.652006
Zn1   Zn    Zn3+2 0.999890 0.500000 0.654960 0.901506
Zn2   Zn    Zn3+2 0.999890 0.500000 0.345040 0.914702
Zn3   Zn    Zn3+2 0.499890 0.000000 0.654960 0.901506
Zn4   Zn    Zn3+2 0.499890 0.000000 0.345040 0.914702
N5    N     N_2   0.137695 0.766223 0.719771 -0.263487
H49   H     H_    0.151542 0.767478 0.820217 0.231077
C53   C     C_3   0.094530 0.851053 0.680718 -0.798838
H50   H     H_    0.042023 0.833247 0.616900 0.226474
H51   H     H_    0.136548 0.902652 0.632375 0.236770
H52   H     H_    0.067172 0.886277 0.771182 0.220468
N6    N     N_2   0.260589 0.598932 0.305622 -0.269233
H53   H     H_    0.242425 0.642681 0.229630 0.234175
C54   C     C_3   0.326817 0.536178 0.260684 -0.864870
H54   H     H_    0.306286 0.495300 0.173269 0.234398
H55   H     H_    0.343299 0.486445 0.341264 0.231020
H56   H     H_    0.382853 0.576638 0.229242 0.241257
N7    N     N_2   0.171224 0.243009 0.265429 -0.263028
H57   H     H_    0.177263 0.270438 0.169798 0.214877
C55   C     C_3   0.164391 0.140432 0.260448 -0.804704
H58   H     H_    0.146727 0.118191 0.158727 0.211527
H59   H     H_    0.115318 0.114905 0.331408 0.231465
H60   H     H_    0.222258 0.101373 0.277300 0.233861
N8    N     N_2   0.236267 0.382944 0.722210 -0.264400
H61   H     H_    0.216732 0.330215 0.786565 0.222836
C56   C     C_3   0.288408 0.450511 0.786508 -0.851685
H62   H     H_    0.257328 0.474590 0.881572 0.221709
H63   H     H_    0.298882 0.512467 0.720871 0.231718
H64   H     H_    0.349081 0.418269 0.809898 0.239457
N9    N     N_2   0.637696 0.266222 0.719772 -0.263487
H65   H     H_    0.651542 0.267477 0.820218 0.231077
C57   C     C_3   0.594531 0.351052 0.680719 -0.798837
H66   H     H_    0.542023 0.333247 0.616901 0.226474
H67   H     H_    0.636549 0.402651 0.632376 0.236770
H68   H     H_    0.567173 0.386277 0.771184 0.220468
N10   N     N_2   0.760589 0.098932 0.305621 -0.269233
H69   H     H_    0.742424 0.142682 0.229630 0.234175
C58   C     C_3   0.826817 0.036178 0.260683 -0.864870
H70   H     H_    0.806285 0.995301 0.173267 0.234398
H71   H     H_    0.843298 0.986445 0.341263 0.231020
H72   H     H_    0.882852 0.076638 0.229240 0.241257
N11   N     N_2   0.671224 0.743008 0.265429 -0.263028
H73   H     H_    0.677263 0.770438 0.169798 0.214877
C59   C     C_3   0.664391 0.640432 0.260449 -0.804703
H74   H     H_    0.646727 0.618190 0.158728 0.211527
H75   H     H_    0.615317 0.614905 0.331409 0.231465
H76   H     H_    0.722258 0.601372 0.277301 0.233861
N12   N     N_2   0.736267 0.882945 0.722210 -0.264400
H77   H     H_    0.716732 0.830216 0.786565 0.222836
C60   C     C_3   0.788408 0.950511 0.786507 -0.851684
H78   H     H_    0.757328 0.974592 0.881570 0.221709
H79   H     H_    0.798883 0.012467 0.720870 0.231717
H80   H     H_    0.849081 0.918269 0.809898 0.239457
N13   N     N_2   0.989496 0.328211 0.148392 -0.278011
H81   H     H_    0.995097 0.332998 0.249450 0.298118
C61   C     C_3   0.011380 0.232444 0.111524 -0.826694
H82   H     H_    0.019557 0.190211 0.203186 0.236455
H83   H     H_    0.066705 0.228962 0.042224 0.249611
H84   H     H_    0.958827 0.195951 0.067581 0.252635
N14   N     N_2   0.987241 0.327402 0.863069 -0.260910
H85   H     H_    0.006464 0.308778 0.767237 0.243968
C62   C     C_3   0.901508 0.303483 0.896536 -0.774211
H86   H     H_    0.892091 0.227405 0.880320 0.207655
H87   H     H_    0.860357 0.341567 0.833475 0.232892
H88   H     H_    0.880522 0.321303 0.999446 0.255069
N15   N     N_2   0.020702 0.668145 0.854866 -0.269584
H89   H     H_    0.001902 0.662362 0.758513 0.310262
C63   C     C_3   0.976169 0.744943 0.919371 -0.827067
H90   H     H_    0.950156 0.791474 0.841764 0.215471
H91   H     H_    0.019758 0.790037 0.972211 0.258033
H92   H     H_    0.921882 0.721081 0.979843 0.236527
N16   N     N_2   0.064460 0.663417 0.140353 -0.254649
H93   H     H_    0.114411 0.702394 0.105128 0.178419
C64   C     C_3   0.000889 0.717402 0.212546 -0.671902
H94   H     H_    0.008512 0.793265 0.191000 0.170727
H95   H     H_    0.006656 0.712614 0.321858 0.241750
H96   H     H_    0.939189 0.697311 0.185224 0.227240
N17   N     N_2   0.489496 0.828211 0.148392 -0.278011
H97   H     H_    0.495097 0.832998 0.249450 0.298118
C65   C     C_3   0.511379 0.732444 0.111524 -0.826694
H98   H     H_    0.519557 0.690211 0.203186 0.236455
H99   H     H_    0.566704 0.728962 0.042224 0.249610
H100  H     H_    0.458827 0.695951 0.067580 0.252635
N18   N     N_2   0.487241 0.827402 0.863069 -0.260910
H101  H     H_    0.506464 0.808778 0.767237 0.243967
C66   C     C_3   0.401508 0.803483 0.896536 -0.774212
H102  H     H_    0.392091 0.727405 0.880320 0.207655
H103  H     H_    0.360357 0.841567 0.833475 0.232893
H104  H     H_    0.380522 0.821303 0.999445 0.255069
N19   N     N_2   0.520702 0.168145 0.854866 -0.269584
H105  H     H_    0.501903 0.162362 0.758513 0.310262
C67   C     C_3   0.476169 0.244943 0.919371 -0.827066
H106  H     H_    0.450156 0.291474 0.841765 0.215470
H107  H     H_    0.519758 0.290037 0.972211 0.258033
H108  H     H_    0.421882 0.221081 0.979843 0.236527
N20   N     N_2   0.564460 0.163417 0.140353 -0.254649
H109  H     H_    0.614411 0.202393 0.105128 0.178419
C68   C     C_3   0.500889 0.217402 0.212546 -0.671903
H110  H     H_    0.508512 0.293265 0.191000 0.170727
H111  H     H_    0.506656 0.212615 0.321858 0.241750
H112  H     H_    0.439189 0.197311 0.185224 0.227240
H113  H     H_    0.873249 0.454689 0.118934 0.160131
H114  H     H_    0.865776 0.476635 0.884216 0.153069
H115  H     H_    0.889995 0.587577 0.894081 0.160127
H116  H     H_    0.882513 0.574974 0.126536 0.146632
H117  H     H_    0.373249 0.954690 0.118934 0.160131
H118  H     H_    0.365776 0.976635 0.884216 0.153069
H119  H     H_    0.389995 0.087577 0.894081 0.160127
H120  H     H_    0.382513 0.074974 0.126536 0.146632

loop_
_geom_bond_atom_site_label_1
_geom_bond_atom_site_label_2
_ccdc_geom_bond_type
C16   C28   S    
C5    H113  S    
N18   H101  S    
C52   N3    S    
C50   N4    S    
C58   H70   S    
C22   N6    S    
N10   C58   S    
C60   H78   S    
C59   H74   S    
O4    Zn1   S    
C45   H41   S    
C14   C33   S    
C16   H4    S    
C56   H62   S    
C7    C8    S    
C61   H83   S    
N4    Zn3   S    
C49   N17   S    
C50   N18   S    
C68   H112  S    
C41   H34   S    
C46   N2    S    
C43   H37   S    
C31   H30   S    
C9    O10   A    
C32   C36   S    
C59   H75   S    
C38   C42   S    
C19   C36   S    
N20   C68   S    
C5    C6    S    
C55   H60   S    
C26   C39   S    
C66   H104  S    
C7    H120  S    
C28   C40   S    
C24   N8    S    
N8    H61   S    
C14   H10   S    
C29   C33   S    
C2    O3    A    
C21   C37   S    
C25   N9    S    
C57   H68   S    
C2    O4    A    
N17   C65   S    
C48   N16   S    
C28   N12   S    
C16   C34   S    
C12   O16   A    
C18   H6    S    
C29   H26   S    
C20   C24   S    
C64   H95   S    
C11   O14   A    
C54   H56   S    
C24   C38   S    
C57   H66   S    
N11   C59   S    
C19   H15   S    
C47   N15   S    
N2    Zn1   S    
C48   H44   S    
C18   C35   S    
C15   C34   S    
C44   H40   S    
O16   Zn3   S    
C1    O2    A    
O6    Zn4   S    
N13   C61   S    
C4    O8    A    
C65   H98   S    
C58   H71   S    
C47   N2    S    
C7    N3    S    
C29   C43   S    
C57   H67   S    
C9    C33   S    
C60   H79   S    
C30   C44   S    
C26   N10   S    
N17   H97   S    
C53   H51   S    
C27   H23   S    
N3    Zn4   S    
C56   H63   S    
C8    H119  S    
C23   N7    S    
N11   H73   S    
C61   H84   S    
C13   H1    S    
C66   H103  S    
C51   H47   S    
C32   H32   S    
C5    N1    S    
C50   H46   S    
C43   H38   S    
O12   Zn1   S    
C30   C34   S    
O1    Zn1   S    
C51   C52   S    
C63   H92   S    
C23   H19   S    
C59   H76   S    
O8    Zn3   S    
N12   C60   S    
C62   H87   S    
N12   H77   S    
C8    H118  S    
O5    Zn3   S    
C20   C36   S    
C39   C43   S    
C7    H117  S    
C19   H7    S    
C51   N4    S    
O15   Zn4   S    
C22   C37   S    
C52   H48   S    
C52   N20   S    
C17   C21   S    
N16   H93   S    
C21   H17   S    
C15   H3    S    
C62   H86   S    
C19   C23   S    
N20   H109  S    
N16   C64   S    
C67   H106  S    
C13   C33   S    
C45   N13   S    
C65   H100  S    
C12   O15   A    
N18   C66   S    
C51   N19   S    
C15   C27   S    
C47   C48   S    
C46   H42   S    
C4    C39   S    
C27   C40   S    
C64   H96   S    
O2    Zn2   S    
N6    C54   S    
N19   H105  S    
C29   H25   S    
C10   C34   S    
O14   Zn4   S    
C14   C26   S    
C8    N4    S    
C44   H39   S    
C45   N1    S    
C1    C38   S    
C30   H27   S    
C67   H107  S    
C4    O7    A    
C3    C40   S    
C49   C50   S    
C58   H72   S    
N5    H49   S    
C60   H80   S    
C31   C35   S    
C12   C36   S    
C21   N5    S    
N6    H53   S    
C11   O13   A    
C56   H64   S    
C10   O12   A    
C24   H20   S    
N5    C53   S    
C6    H115  S    
C62   H88   S    
N8    C56   S    
C32   H31   S    
C66   H102  S    
N19   C67   S    
C15   H11   S    
C31   C41   S    
C14   H2    S    
O7    Zn4   S    
N7    C55   S    
C46   N14   S    
C20   H16   S    
C13   C25   S    
C49   N3    S    
C55   H58   S    
C18   C22   S    
C18   H14   S    
O9    Zn1   S    
C41   H33   S    
N7    H57   S    
C16   H12   S    
C17   H13   S    
N1    Zn2   S    
C31   H29   S    
C23   C38   S    
C9    O9    A    
N9    C57   S    
O13   Zn3   S    
C53   H52   S    
C30   H28   S    
C63   H90   S    
C61   H82   S    
N9    H65   S    
C27   N11   S    
C42   H36   S    
C55   H59   S    
C2    C37   S    
N15   H89   S    
C54   H54   S    
C3    O5    A    
C32   C42   S    
C48   N1    S    
C68   H110  S    
C11   C35   S    
C26   H22   S    
C25   H21   S    
C6    N2    S    
C37   C41   S    
C68   H111  S    
C65   H99   S    
C63   H91   S    
N15   C63   S    
C49   H45   S    
N14   H85   S    
O10   Zn2   S    
C45   C46   S    
C40   C44   S    
C67   H108  S    
C13   H9    S    
C64   H94   S    
C17   H5    S    
N10   H69   S    
O11   Zn2   S    
C54   H55   S    
C47   H43   S    
C5    H116  S    
C42   H35   S    
C17   C35   S    
O3    Zn2   S    
N14   C62   S    
C20   H8    S    
N13   H81   S    
C3    O6    A    
C22   H18   S    
C25   C39   S    
C10   O11   A    
C53   H50   S    
C1    O1    A    
C6    H114  S    
C28   H24   S    
