data_mof_unit_20834.cif
_audit_creation_date              2012-12-10T19:10:38-0500
_audit_creation_method            fapswitch 2.2
_symmetry_space_group_name_H-M    P1
_symmetry_Int_Tables_number       1
_space_group_crystal_system       triclinic
_cell_length_a                    13.04736
_cell_length_b                    9.139344
_cell_length_c                    7.79035
_cell_angle_alpha                 89.675573
_cell_angle_beta                  96.428346
_cell_angle_gamma                 88.759503
_cell_volume                      922.867337629

loop_
_atom_site_label
_atom_site_type_symbol
_atom_type_description
_atom_site_fract_x
_atom_site_fract_y
_atom_site_fract_z
_atom_type_partial_charge
C1    C     C_R   0.500099 0.219972 0.500315 0.831436
C2    C     C_R   0.868152 0.443629 0.704286 -0.402332
C3    C     C_R   0.135851 0.469112 0.591425 0.600308
C4    C     C_R   0.864149 0.530891 0.408576 0.600312
C5    C     C_R   0.028158 0.476433 0.578836 -0.199828
C6    C     C_R   0.971842 0.523566 0.421163 -0.199825
C7    C     C_1   0.500032 0.065280 0.500410 -0.164775
C8    C     C_1   0.499968 0.934720 0.499590 -0.164776
C9    C     C_3   0.968613 0.742312 0.082197 0.134463
C10   C     C_3   0.887958 0.773169 0.927338 -0.255354
C11   C     C_3   0.875759 0.935770 0.885316 -0.986943
C12   C     C_R   0.499901 0.780028 0.499685 0.831436
C13   C     C_3   0.031386 0.257678 0.917793 0.134426
C14   C     C_3   0.112020 0.226819 0.072675 -0.255385
C15   C     C_3   0.124212 0.064220 0.114712 -0.986972
C16   C     C_R   0.300057 0.502287 0.468021 0.865456
C17   C     C_R   0.699943 0.497713 0.531979 0.865459
C18   C     C_R   0.812476 0.491025 0.549435 -0.249403
C19   C     C_R   0.187524 0.508974 0.450565 -0.249400
C20   C     C_R   0.024250 0.564043 0.279699 0.496876
C21   C     C_R   0.975750 0.435952 0.720299 0.496886
C22   C     C_R   0.131848 0.556365 0.295712 -0.402323
Cu1   Cu    Cu3+1 0.500010 0.500000 0.669080 1.042202
Cu2   Cu    Cu3+1 0.499990 0.500000 0.330920 1.042203
F1    F     F_    0.808978 0.581790 0.261126 -0.644914
F2    F     F_    0.191022 0.418224 0.738880 -0.644903
H1    H     H_    0.828467 0.416110 0.814687 0.220663
H2    H     H_    0.052714 0.192318 0.805954 0.133526
H3    H     H_    0.954505 0.225184 0.951696 0.130436
H4    H     H_    0.187755 0.269480 0.045564 0.269594
H5    H     H_    0.088054 0.283063 0.187771 0.219085
H6    H     H_    0.051614 0.023944 0.157517 0.251583
H7    H     H_    0.187171 0.046359 0.221505 0.267280
H8    H     H_    0.143696 0.002137 0.000130 0.266598
H9    H     H_    0.171533 0.583882 0.185310 0.220666
H10   H     H_    0.045491 0.774796 0.048258 0.130434
H11   H     H_    0.947305 0.807679 0.194046 0.133510
H12   H     H_    0.911911 0.716930 0.812223 0.219066
H13   H     H_    0.812225 0.730503 0.954475 0.269605
H14   H     H_    0.856281 0.997844 0.999909 0.266601
H15   H     H_    0.812791 0.953630 0.778532 0.267276
H16   H     H_    0.948353 0.976052 0.842500 0.251577
N1    N     N_1   0.499980 0.500000 0.076820 -0.028197
N2    N     N_1   0.500020 0.500000 0.923180 -0.028197
O1    O     O_R   0.500000 0.288400 0.642760 -0.576041
O2    O     O_3   0.029754 0.408796 0.880706 -0.517880
O3    O     O_R   0.500000 0.711600 0.357240 -0.576040
O4    O     O_R   0.500000 0.288400 0.357240 -0.584209
O5    O     O_R   0.500000 0.711600 0.642760 -0.584210
O6    O     O_R   0.349000 0.500000 0.619590 -0.520344
O7    O     O_R   0.651000 0.500000 0.380410 -0.520347
O8    O     O_R   0.348990 0.500000 0.334020 -0.599238
O9    O     O_R   0.651010 0.500000 0.665980 -0.599241
O10   O     O_3   0.970245 0.591195 0.119291 -0.517886

loop_
_geom_bond_atom_site_label_1
_geom_bond_atom_site_label_2
_ccdc_geom_bond_type
Cu2   O8    S    
C9    H10   S    
N1    N2    T    
C13   H2    S    
C3    C19   A    
C2    H1    S    
Cu1   O1    S    
C17   O9    A    
C2    C18   A    
C6    C20   A    
C9    C10   S    
C15   H8    S    
C10   H12   S    
C14   H5    S    
C8    C12   S    
C4    C18   A    
C17   O7    A    
C2    C21   A    
C9    H11   S    
C17   C18   S    
C14   H4    S    
C7    C8    T    
C1    O4    A    
C13   C14   S    
C22   H9    S    
C1    O1    A    
C5    C6    A    
Cu2   O7    S    
C16   C19   S    
Cu1   O9    S    
C13   H3    S    
C16   O6    A    
C12   O5    A    
C12   O3    A    
C13   O2    S    
Cu1   O5    S    
C4    C6    A    
C10   C11   S    
Cu1   Cu2   S    
C11   H14   S    
Cu2   O4    S    
C4    F1    S    
C15   H6    S    
C19   C22   A    
C5    C21   A    
C11   H16   S    
C20   O10   S    
C21   O2    S    
C11   H15   S    
Cu2   N1    S    
C14   C15   S    
Cu1   O6    S    
C9    O10   S    
C1    C7    S    
Cu2   O3    S    
C15   H7    S    
C3    F2    S    
Cu1   N2    S    
C16   O8    A    
C20   C22   A    
C10   H13   S    
C3    C5    A    
