data_mof_unit_64873.cif
_audit_creation_date              2012-12-10T20:54:28-0500
_audit_creation_method            fapswitch 2.2
_symmetry_space_group_name_H-M    P1
_symmetry_Int_Tables_number       1
_space_group_crystal_system       triclinic
_cell_length_a                    12.896731
_cell_length_b                    15.873017
_cell_length_c                    15.079581
_cell_angle_alpha                 90.029781
_cell_angle_beta                  97.0381
_cell_angle_gamma                 89.99828
_cell_volume                      3063.68063408

loop_
_atom_site_label
_atom_site_type_symbol
_atom_type_description
_atom_site_fract_x
_atom_site_fract_y
_atom_site_fract_z
_atom_type_partial_charge
C1    C     C_R   0.500053 0.338977 0.499968 0.904757
C2    C     C_R   0.592661 0.519058 0.056261 0.134199
C3    C     C_R   0.498888 0.500087 0.904933 0.035829
C4    C     C_R   0.500915 0.500526 0.095046 0.036046
C5    C     C_R   0.590815 0.518451 0.961929 -0.249648
C6    C     C_R   0.409019 0.482060 0.038053 -0.250127
C7    C     C_1   0.499659 0.500013 0.807073 0.099324
C8    C     C_1   0.500274 0.500187 0.192920 0.099326
C9    C     C_R   0.297796 0.498678 0.482763 0.931672
C10   C     C_R   0.702203 0.501337 0.517239 0.931717
C11   C     C_R   0.813953 0.500156 0.527752 -0.173812
C12   C     C_R   0.499946 0.661022 0.500032 0.903015
C13   C     C_R   0.186046 0.499906 0.472262 -0.173752
C14   C     C_R   0.024641 0.547778 0.391707 -0.141106
C15   C     C_R   0.975367 0.452338 0.608333 -0.143741
C16   C     C_R   0.131558 0.537599 0.396708 -0.317201
C17   C     C_R   0.868446 0.462484 0.603317 -0.317052
C18   C     C_R   0.134169 0.468876 0.541502 0.573826
C19   C     C_R   0.865830 0.531220 0.458529 0.576611
C20   C     C_R   0.027565 0.479959 0.537689 -0.025093
C21   C     C_R   0.972440 0.520158 0.462350 -0.023621
C22   C     C_R   0.480752 0.955799 0.577384 0.100375
C23   C     C_R   0.519310 0.956285 0.422259 0.011283
C24   C     C_R   0.519225 0.044200 0.422613 0.099747
C25   C     C_R   0.500029 0.912908 0.499827 0.044314
C26   C     C_R   0.499947 0.087091 0.500169 0.043798
C27   C     C_R   0.480664 0.043713 0.577737 0.010102
C28   C     C_1   0.499977 0.823896 0.500007 -0.010854
C29   C     C_1   0.500006 0.176103 0.499992 -0.009260
C30   C     C_1   0.500039 0.250792 0.499935 -0.164181
C31   C     C_1   0.499953 0.749208 0.500065 -0.168290
C32   C     C_R   0.407044 0.481869 0.943707 0.135072
F1    F     F_    0.812541 0.571586 0.387336 -0.671851
F2    F     F_    0.187450 0.428510 0.612698 -0.668431
H1    H     H_    0.827991 0.438438 0.656891 0.188829
H2    H     H_    0.604498 0.873660 0.358653 0.204583
H3    H     H_    0.387939 0.926941 0.671992 0.204415
H4    H     H_    0.517557 0.926946 0.708186 0.203755
H5    H     H_    0.482425 0.073049 0.291811 0.204550
H6    H     H_    0.612041 0.073058 0.328009 0.205268
H7    H     H_    0.252897 0.446570 0.925520 0.182323
H8    H     H_    0.287834 0.517444 0.852345 0.195361
H9    H     H_    0.749367 0.546049 0.074712 0.181243
H10   H     H_    0.677350 0.595494 0.144061 0.200161
H11   H     H_    0.172015 0.561630 0.343128 0.187644
H12   H     H_    0.983494 0.578127 0.333350 0.206676
H13   H     H_    0.016516 0.421998 0.666694 0.207904
H14   H     H_    0.338331 0.467827 0.067233 0.141084
H15   H     H_    0.661551 0.532531 0.932754 0.140538
H16   H     H_    0.395456 0.126324 0.641339 0.207357
H17   H     H_    0.525223 0.126348 0.677589 0.199977
H18   H     H_    0.474734 0.873663 0.322399 0.197674
N1    N     N_1   0.499970 0.500020 0.270540 -0.081436
N2    N     N_1   0.500030 0.499980 0.729460 -0.081507
N3    N     N_3   0.460938 0.087862 0.657073 -0.463375
N4    N     N_3   0.539029 0.912136 0.342921 -0.466033
N5    N     N_3   0.461356 0.909514 0.655430 -0.440640
N6    N     N_3   0.538622 0.090484 0.344567 -0.437939
N7    N     N_3   0.312162 0.462507 0.887064 -0.423372
N8    N     N_3   0.687744 0.537761 0.112925 -0.426715
O1    O     O_R   0.500000 0.378020 0.573650 -0.605945
O2    O     O_R   0.500000 0.621980 0.426350 -0.610258
O3    O     O_R   0.500050 0.378020 0.426320 -0.611607
O4    O     O_R   0.499950 0.621980 0.573680 -0.614565
O5    O     O_R   0.346340 0.499990 0.561490 -0.552609
O6    O     O_R   0.653660 0.500010 0.438510 -0.550143
O7    O     O_R   0.346380 0.499990 0.414160 -0.639998
O8    O     O_R   0.653620 0.500010 0.585840 -0.640332
Zn1   Zn    Zn3+2 0.499970 0.500000 0.598370 1.011863
Zn2   Zn    Zn3+2 0.500030 0.500000 0.401630 1.012276

loop_
_geom_bond_atom_site_label_1
_geom_bond_atom_site_label_2
_ccdc_geom_bond_type
C8    N1    T    
H8    N7    S    
C3    C32   A    
C6    C32   A    
C23   C24   A    
C9    O7    A    
C29   C30   T    
H2    N4    S    
C10   O8    A    
H4    N5    S    
C12   O2    A    
C27   N3    S    
C2    C4    A    
H16   N3    S    
C32   N7    S    
O3    Zn2   S    
C15   H13   S    
C4    C8    S    
O7    Zn2   S    
C5    H15   S    
C22   N5    S    
C10   O6    A    
C23   N4    S    
C14   H12   S    
H17   N3    S    
O4    Zn1   S    
C25   C28   S    
C18   F2    S    
C11   C19   A    
C26   C27   A    
O6    Zn2   S    
N2    Zn1   S    
C6    H14   S    
H9    N8    S    
H10   N8    S    
O5    Zn1   S    
N1    Zn2   S    
C13   C18   A    
C14   C21   A    
C24   N6    S    
C1    C30   S    
C19   C21   A    
C24   C26   A    
C9    O5    A    
C3    C7    S    
C18   C20   A    
C22   C27   A    
C23   C25   A    
C12   C31   S    
C15   C20   A    
C12   O4    A    
C14   C16   A    
C2    C5    A    
H6    N6    S    
C10   C11   S    
C16   H11   S    
C1    O3    A    
C2    N8    S    
C20   C21   A    
O2    Zn2   S    
C26   C29   S    
C4    C6    A    
C19   F1    S    
C13   C16   A    
O1    Zn1   S    
C15   C17   A    
C9    C13   S    
C11   C17   A    
C17   H1    S    
C7    N2    T    
H5    N6    S    
C28   C31   T    
H3    N5    S    
H18   N4    S    
H7    N7    S    
O8    Zn1   S    
C3    C5    A    
C22   C25   A    
C1    O1    A    
