data_mof_unit_26124.cif
_audit_creation_date              2012-12-10T17:29:24-0500
_audit_creation_method            fapswitch 2.2
_symmetry_space_group_name_H-M    P1
_symmetry_Int_Tables_number       1
_space_group_crystal_system       triclinic
_cell_length_a                    21.68849
_cell_length_b                    21.678928
_cell_length_c                    47.032501
_cell_angle_alpha                 90.117026
_cell_angle_beta                  89.993456
_cell_angle_gamma                 89.931145
_cell_volume                      22113.8301964

loop_
_atom_site_label
_atom_site_type_symbol
_atom_type_description
_atom_site_fract_x
_atom_site_fract_y
_atom_site_fract_z
_atom_type_partial_charge
C1    C     C_R   0.879984 0.000012 0.500000 0.867850
C2    C     C_R   0.217840 0.043244 0.517107 0.010134
C3    C     C_R   0.499875 0.000075 0.555220 0.897719
C4    C     C_R   0.500040 0.000355 0.944553 0.914628
C5    C     C_R   0.000186 0.499908 0.944564 0.916320
C6    C     C_R   0.500012 0.999761 0.055432 0.914593
C7    C     C_R   0.999942 0.500089 0.055348 0.902519
C8    C     C_R   0.999882 0.620003 0.499839 0.830824
C9    C     C_R   0.380012 0.999986 0.499829 0.828659
C10   C     C_R   0.000116 0.380000 0.499836 0.830463
C11   C     C_R   0.620027 0.999977 0.499913 0.828489
C12   C     C_R   0.499878 0.120055 0.999867 0.843719
C13   C     C_R   0.956437 0.218025 0.516950 0.012618
C14   C     C_R   0.879812 0.500161 0.000193 0.843317
C15   C     C_R   0.500094 0.880030 0.999846 0.848800
C16   C     C_R   0.120129 0.499831 0.000164 0.841203
C17   C     C_R   0.497735 0.061987 0.719364 -0.041081
C18   C     C_R   0.949049 0.480080 0.719710 -0.041908
C19   C     C_R   0.510486 0.950073 0.719929 -0.040351
C20   C     C_R   0.056410 0.513805 0.719543 -0.042504
C21   C     C_R   0.483692 0.944940 0.280389 -0.042856
C22   C     C_R   0.947164 0.481341 0.280043 -0.035610
C23   C     C_R   0.517896 0.052177 0.280296 -0.042879
C24   C     C_R   0.782405 0.955708 0.516431 0.010902
C25   C     C_R   0.052522 0.520873 0.280099 -0.035809
C26   C     C_R   0.946961 0.482032 0.220179 -0.036075
C27   C     C_R   0.482234 0.944912 0.220527 -0.037555
C28   C     C_R   0.052052 0.522288 0.220234 -0.036222
C29   C     C_R   0.519135 0.051261 0.220441 -0.037108
C30   C     C_R   0.949857 0.479135 0.779556 -0.037265
C31   C     C_R   0.496492 0.063512 0.779237 -0.025473
C32   C     C_R   0.056516 0.515001 0.779409 -0.037887
C33   C     C_R   0.510332 0.951734 0.779775 -0.047328
C34   C     C_R   0.490912 0.117877 0.734203 -0.153600
C35   C     C_R   0.044206 0.217268 0.483501 0.008034
C36   C     C_R   0.896112 0.462687 0.734896 -0.152411
C37   C     C_R   0.516988 0.894993 0.735309 -0.150221
C38   C     C_R   0.109630 0.531100 0.734576 -0.151631
C39   C     C_R   0.465933 0.891848 0.265322 -0.150193
C40   C     C_R   0.894867 0.461820 0.264906 -0.152248
C41   C     C_R   0.535637 0.105019 0.265140 -0.150381
C42   C     C_R   0.104628 0.540983 0.265015 -0.152286
C43   C     C_R   0.894794 0.462087 0.235260 -0.163703
C44   C     C_R   0.464857 0.891953 0.235678 -0.156652
C45   C     C_R   0.104365 0.541766 0.235371 -0.164914
C46   C     C_R   0.217660 0.956016 0.483208 0.013566
C47   C     C_R   0.536605 0.104446 0.235498 -0.156922
C48   C     C_R   0.896605 0.461937 0.764534 -0.157338
C49   C     C_R   0.490121 0.118610 0.763853 -0.169561
C50   C     C_R   0.109593 0.531967 0.764223 -0.156486
C51   C     C_R   0.517035 0.895830 0.764947 -0.153027
C52   C     C_R   0.509956 0.950333 0.690151 0.570457
C53   C     C_R   0.055194 0.512966 0.689763 0.580817
C54   C     C_R   0.498268 0.060011 0.689583 0.576675
C55   C     C_R   0.949628 0.481287 0.689937 0.579193
C56   C     C_R   0.516675 0.051606 0.310075 0.580446
C57   C     C_R   0.955935 0.782609 0.483421 0.009053
C58   C     C_R   0.051639 0.519827 0.309877 0.541519
C59   C     C_R   0.484875 0.946038 0.310168 0.580660
C60   C     C_R   0.948380 0.481328 0.309822 0.542536
C61   C     C_R   0.050720 0.522589 0.190456 0.572825
C62   C     C_R   0.519496 0.049649 0.190674 0.556166
C63   C     C_R   0.948099 0.482387 0.190400 0.572683
C64   C     C_R   0.481654 0.946111 0.190753 0.555464
C65   C     C_R   0.055315 0.515602 0.809186 0.557015
C66   C     C_R   0.509874 0.953660 0.809537 0.603055
C67   C     C_R   0.951324 0.479122 0.809319 0.553655
C68   C     C_R   0.782385 0.044414 0.483551 0.012799
C69   C     C_R   0.495831 0.063065 0.809022 0.522004
C70   C     C_R   0.090752 0.813060 0.532065 -0.245844
C71   C     C_R   0.186850 0.089942 0.532617 -0.242776
C72   C     C_R   0.909139 0.187246 0.532019 -0.246596
C73   C     C_R   0.813625 0.908168 0.531189 -0.247423
C74   C     C_R   0.091217 0.185504 0.468584 -0.245166
C75   C     C_R   0.186525 0.908329 0.468443 -0.244074
C76   C     C_R   0.908905 0.814266 0.468540 -0.244514
C77   C     C_R   0.813522 0.092398 0.469087 -0.244289
C78   C     C_R   0.592083 0.313175 0.030927 -0.231155
C79   C     C_R   0.543930 0.282313 0.016506 0.004073
C80   C     C_R   0.684751 0.599290 0.025385 -0.249414
C81   C     C_R   0.411658 0.687863 0.033738 -0.259011
C82   C     C_R   0.314756 0.403402 0.027932 -0.234254
C83   C     C_R   0.590469 0.686245 0.968175 -0.222114
C84   C     C_R   0.686532 0.403939 0.971536 -0.232720
C85   C     C_R   0.406561 0.314179 0.969903 -0.231879
C86   C     C_R   0.313387 0.594017 0.970692 -0.238917
C87   C     C_R   0.127122 0.782465 0.552038 0.464093
C88   C     C_R   0.217542 0.125914 0.552756 0.469709
C89   C     C_R   0.872236 0.218201 0.551727 0.464178
C90   C     C_R   0.716594 0.547782 0.014126 0.016859
C91   C     C_R   0.783065 0.870447 0.550592 0.465522
C92   C     C_R   0.128261 0.215293 0.448709 0.465834
C93   C     C_R   0.217186 0.870173 0.449126 0.459550
C94   C     C_R   0.871762 0.784328 0.448706 0.466170
C95   C     C_R   0.782916 0.130740 0.449909 0.460288
C96   C     C_R   0.628391 0.282929 0.051062 0.453457
C97   C     C_R   0.714886 0.643875 0.041844 0.432263
C98   C     C_R   0.377870 0.718825 0.054911 0.439127
C99   C     C_R   0.284467 0.361703 0.045621 0.452746
C100  C     C_R   0.626725 0.716321 0.947981 0.450985
C101  C     C_R   0.458080 0.718247 0.017930 0.026988
C102  C     C_R   0.716747 0.365015 0.952387 0.454402
C103  C     C_R   0.367294 0.283819 0.951015 0.451921
C104  C     C_R   0.283340 0.631616 0.951012 0.455324
C105  C     C_R   0.120251 0.718572 0.555751 -0.081418
C106  C     C_R   0.281416 0.119044 0.556397 -0.091815
C107  C     C_R   0.879141 0.282095 0.555463 -0.080436
C108  C     C_R   0.719100 0.876643 0.554253 -0.082890
C109  C     C_R   0.122900 0.279291 0.445104 -0.085556
C110  C     C_R   0.281043 0.876924 0.445194 -0.078388
C111  C     C_R   0.877047 0.720289 0.445114 -0.085916
C112  C     C_R   0.000472 0.879980 0.499997 0.868628
C113  C     C_R   0.283050 0.453138 0.015088 0.014365
C114  C     C_R   0.719089 0.123947 0.445884 -0.078926
C115  C     C_R   0.618927 0.219873 0.056197 -0.076969
C116  C     C_R   0.778048 0.636929 0.047387 -0.038984
C117  C     C_R   0.388167 0.782007 0.059307 -0.052780
C118  C     C_R   0.220918 0.368110 0.050259 -0.063963
C119  C     C_R   0.617470 0.779439 0.942945 -0.068978
C120  C     C_R   0.779755 0.373880 0.946925 -0.073609
C121  C     C_R   0.374614 0.220305 0.946414 -0.045048
C122  C     C_R   0.220343 0.622486 0.945595 -0.075882
C123  C     C_R   0.075541 0.687247 0.539747 -0.207872
C124  C     C_R   0.543023 0.717473 0.983008 0.002490
C125  C     C_R   0.312810 0.075033 0.539986 -0.214449
C126  C     C_R   0.924120 0.313191 0.539604 -0.209676
C127  C     C_R   0.687634 0.922097 0.538814 -0.210550
C128  C     C_R   0.078451 0.311630 0.460949 -0.217136
C129  C     C_R   0.312403 0.922667 0.460580 -0.211407
C130  C     C_R   0.921498 0.688050 0.460947 -0.217635
C131  C     C_R   0.687706 0.077995 0.461047 -0.210525
C132  C     C_R   0.574447 0.188082 0.040172 -0.201639
C133  C     C_R   0.810038 0.586562 0.035581 -0.217008
C134  C     C_R   0.430394 0.813222 0.041917 -0.212987
C135  C     C_R   0.717481 0.453755 0.984673 0.003766
C136  C     C_R   0.188999 0.416441 0.036897 -0.218517
C137  C     C_R   0.573479 0.811543 0.959192 -0.195527
C138  C     C_R   0.811543 0.420481 0.961671 -0.198043
C139  C     C_R   0.420888 0.188383 0.961248 -0.208608
C140  C     C_R   0.188428 0.576967 0.960893 -0.197891
C141  C     C_R   0.039339 0.718000 0.518978 0.043861
C142  C     C_R   0.282014 0.039231 0.519054 0.049850
C143  C     C_R   0.960562 0.282196 0.518945 0.042536
C144  C     C_R   0.718227 0.959454 0.518465 0.044982
C145  C     C_R   0.040842 0.281490 0.481399 0.050783
C146  C     C_R   0.455117 0.282732 0.983802 0.008431
C147  C     C_R   0.281819 0.959833 0.481089 0.040440
C148  C     C_R   0.959204 0.718359 0.481361 0.051201
C149  C     C_R   0.718244 0.040543 0.481391 0.041660
C150  C     C_R   0.539195 0.218314 0.018937 0.038867
C151  C     C_R   0.780672 0.544632 0.016745 0.043942
C152  C     C_R   0.463022 0.782314 0.020005 0.034895
C153  C     C_R   0.218885 0.456594 0.017480 0.042783
C154  C     C_R   0.538698 0.781534 0.980635 0.035393
C155  C     C_R   0.781460 0.458286 0.982088 0.040506
C156  C     C_R   0.458791 0.218550 0.981546 0.037702
C157  C     C_R   0.282453 0.544817 0.984222 -0.007981
C158  C     C_R   0.218488 0.540298 0.981670 0.039401
C159  C     C_3   0.853536 0.835807 0.407156 0.038481
C160  C     C_3   0.892553 0.894661 0.409702 -0.336560
C161  C     C_3   0.910013 0.919715 0.380505 -0.974772
C162  C     C_3   0.168796 0.843767 0.407538 0.050459
C163  C     C_3   0.108008 0.879992 0.407362 -0.337724
C164  C     C_3   0.090486 0.898801 0.377195 -0.969055
C165  C     C_3   0.146343 0.163829 0.407049 0.039310
C166  C     C_3   0.107466 0.104890 0.409458 -0.335858
C167  C     C_3   0.089772 0.080079 0.380203 -0.975288
C168  C     C_R   0.999483 0.686328 0.500027 -0.131315
C169  C     C_3   0.831444 0.157114 0.408398 0.050201
C170  C     C_3   0.892181 0.120793 0.408172 -0.337436
C171  C     C_3   0.909539 0.101625 0.377995 -0.969586
C172  C     C_3   0.851361 0.169955 0.593839 0.043377
C173  C     C_3   0.890816 0.111148 0.592819 -0.344899
C174  C     C_3   0.908542 0.090347 0.622674 -0.961422
C175  C     C_3   0.168733 0.144208 0.595031 0.042582
C176  C     C_3   0.110054 0.104835 0.593271 -0.345563
C177  C     C_3   0.086372 0.088492 0.622839 -0.968296
C178  C     C_3   0.146860 0.830701 0.594403 0.043017
C179  C     C_R   0.313715 0.999864 0.499893 -0.132036
C180  C     C_3   0.105997 0.888546 0.593442 -0.337411
C181  C     C_3   0.082759 0.905560 0.623045 -0.963504
C182  C     C_3   0.830133 0.848992 0.592950 0.045229
C183  C     C_3   0.887950 0.889780 0.592925 -0.343578
C184  C     C_3   0.904943 0.909440 0.623070 -0.965429
C185  C     C_3   0.338615 0.346380 0.913965 0.029572
C186  C     C_3   0.351221 0.414649 0.920301 -0.314811
C187  C     C_3   0.358010 0.452023 0.893039 -0.956942
C188  C     C_3   0.653312 0.335563 0.915708 0.035447
C189  C     C_3   0.585930 0.351084 0.922720 -0.320796
C190  C     C_R   0.000511 0.313682 0.500034 -0.131726
C191  C     C_3   0.546616 0.355961 0.895922 -0.957132
C192  C     C_3   0.652152 0.651294 0.911146 0.035402
C193  C     C_3   0.641334 0.583514 0.919055 -0.321929
C194  C     C_3   0.634333 0.542924 0.892719 -0.956344
C195  C     C_3   0.346622 0.658068 0.913888 0.044012
C196  C     C_3   0.413593 0.641203 0.921052 -0.324283
C197  C     C_3   0.452611 0.633585 0.894289 -0.952926
C198  C     C_3   0.351107 0.635007 0.083286 0.058290
C199  C     C_3   0.311997 0.580663 0.073008 -0.281879
C200  C     C_3   0.330852 0.520512 0.087427 -0.958268
C201  C     C_R   0.686381 0.999934 0.499889 -0.134867
C202  C     C_3   0.637605 0.686995 0.068883 0.043017
C203  C     C_3   0.598917 0.745629 0.072010 -0.292806
C204  C     C_3   0.545252 0.736484 0.092553 -0.959075
C205  C     C_3   0.652812 0.345236 0.088891 0.044598
C206  C     C_3   0.636637 0.412544 0.082089 -0.325782
C207  C     C_3   0.626733 0.450327 0.109112 -0.956824
C208  C     C_3   0.345067 0.328903 0.082603 0.026912
C209  C     C_3   0.413377 0.343699 0.077796 -0.307986
C210  C     C_3   0.448188 0.348963 0.105869 -0.959212
C211  C     C_3   0.030310 0.359335 0.349364 0.086608
C212  C     C_R   0.499426 0.186469 0.000028 -0.132533
C213  C     C_3   0.038329 0.310656 0.372680 -0.351962
C214  C     C_3   0.001735 0.252305 0.366070 -0.974500
C215  C     C_3   0.660985 0.974458 0.366040 0.104657
C216  C     C_3   0.706914 0.019296 0.379796 -0.362403
C217  C     C_3   0.747957 0.986428 0.401283 -0.961563
C218  C     C_3   0.969977 0.641044 0.349732 0.085881
C219  C     C_3   0.961979 0.689715 0.373138 -0.352123
C220  C     C_3   0.998648 0.748028 0.366654 -0.973536
C221  C     C_3   0.340146 0.024836 0.365488 0.104566
C222  C     C_3   0.293658 0.980583 0.379157 -0.362134
C223  C     C_R   0.120051 0.000145 0.500006 0.868050
C224  C     C_R   0.813215 0.500735 0.999878 -0.138475
C225  C     C_3   0.252321 0.014144 0.400360 -0.961907
C226  C     C_3   0.971939 0.657955 0.635610 0.106436
C227  C     C_3   0.014878 0.705335 0.621750 -0.361677
C228  C     C_3   0.979511 0.747417 0.601620 -0.968797
C229  C     C_3   0.661117 0.021607 0.634726 0.104217
C230  C     C_3   0.709326 0.980669 0.620088 -0.366227
C231  C     C_3   0.748498 0.017699 0.599367 -0.957352
C232  C     C_3   0.031252 0.338539 0.633334 0.106631
C233  C     C_3   0.987587 0.291769 0.619415 -0.369372
C234  C     C_3   0.021289 0.252276 0.597542 -0.951863
C235  C     C_R   0.500425 0.813752 0.000066 -0.143145
C236  C     C_3   0.346243 0.981913 0.639503 0.098280
C237  C     C_3   0.292035 0.017083 0.626487 -0.343037
C238  C     C_3   0.242206 0.973052 0.616111 -0.985266
C239  C     C_3   0.358139 0.075011 0.862231 0.131127
C240  C     C_3   0.319065 0.099625 0.837722 -0.311310
C241  C     C_3   0.280914 0.155420 0.846959 -0.950243
C242  C     C_3   0.064462 0.354319 0.860087 0.078119
C243  C     C_3   0.120646 0.382570 0.845155 -0.357009
C244  C     C_3   0.178286 0.343315 0.849660 -0.943877
C245  C     C_3   0.655023 0.040643 0.859919 0.080511
C246  C     C_R   0.186634 0.499148 0.999921 -0.138430
C247  C     C_3   0.638252 0.100307 0.844195 -0.372524
C248  C     C_3   0.687916 0.149401 0.848054 -0.920477
C249  C     C_3   0.941843 0.642536 0.858224 0.080536
C250  C     C_3   0.886868 0.613551 0.842607 -0.367149
C251  C     C_3   0.828938 0.652987 0.845777 -0.925614
C252  C     C_3   0.358662 0.065740 0.140862 0.078186
C253  C     C_3   0.390625 0.121246 0.154816 -0.357571
C254  C     C_3   0.353463 0.180351 0.150599 -0.943573
C255  C     C_3   0.871431 0.597310 0.135725 0.097656
C256  C     C_3   0.830722 0.625151 0.158951 -0.290339
C257  C     C_R   0.000151 0.813910 0.500044 -0.128754
C258  C     C_3   0.765253 0.636456 0.148172 -0.981981
C259  C     C_3   0.641689 0.929932 0.140428 0.076414
C260  C     C_3   0.610818 0.875198 0.155387 -0.357041
C261  C     C_3   0.649571 0.816665 0.152671 -0.939907
C262  C     C_3   0.129019 0.409124 0.136933 0.096725
C263  C     C_3   0.169951 0.384021 0.160675 -0.286221
C264  C     C_3   0.236018 0.374197 0.150353 -0.991566
C265  C     C_2   0.160779 0.684372 0.575681 0.396834
C266  C     C_2   0.315455 0.158767 0.576771 0.399240
C267  C     C_2   0.838522 0.316493 0.575351 0.398886
C268  C     C_R   0.186148 0.999945 0.500037 -0.130075
C269  C     C_2   0.685009 0.834759 0.573590 0.395371
C270  C     C_2   0.165119 0.312326 0.425555 0.400804
C271  C     C_2   0.315267 0.835059 0.425787 0.399689
C272  C     C_2   0.834727 0.687118 0.425606 0.402017
C273  C     C_2   0.684948 0.165853 0.426549 0.400010
C274  C     C_2   0.656164 0.187146 0.077900 0.437244
C275  C     C_2   0.810924 0.683496 0.064797 0.384473
C276  C     C_2   0.354342 0.815515 0.082007 0.446294
C277  C     C_2   0.187627 0.322988 0.068208 0.380746
C278  C     C_2   0.654692 0.811916 0.921188 0.438418
C279  C     C_R   0.000034 0.186097 0.500159 -0.128921
C280  C     C_2   0.812388 0.333990 0.926140 0.432175
C281  C     C_2   0.332703 0.187041 0.926821 0.385506
C282  C     C_2   0.187836 0.661066 0.924330 0.435710
C283  C     C_R   0.813943 0.000036 0.499992 -0.128277
C284  C     C_R   0.500024 0.314041 0.999958 -0.147135
C285  C     C_R   0.685680 0.499852 0.999858 -0.142642
C286  C     C_R   0.499981 0.686198 0.000250 -0.148514
C287  C     C_R   0.999621 0.120024 0.500042 0.868480
C288  C     C_R   0.314185 0.499565 0.999915 -0.152647
C289  C     C_R   0.034390 0.455518 0.369345 0.511424
C290  C     C_R   0.556967 0.002685 0.369617 0.503039
C291  C     C_R   0.965755 0.544823 0.369482 0.510917
C292  C     C_R   0.443948 0.996200 0.369470 0.502978
C293  C     C_R   0.002774 0.554882 0.630822 0.501711
C294  C     C_R   0.558181 0.993811 0.630182 0.500217
C295  C     C_R   0.999902 0.441720 0.630185 0.502432
C296  C     C_R   0.446910 0.012037 0.630862 0.495599
C297  C     C_R   0.446370 0.016884 0.868392 0.462452
C298  C     C_R   0.380082 0.500073 0.999991 0.870602
C299  C     C_R   0.007301 0.442471 0.868835 0.489982
C300  C     C_R   0.557920 0.001608 0.868877 0.478151
C301  C     C_R   0.998347 0.554815 0.868433 0.490127
C302  C     C_R   0.444376 0.005216 0.131453 0.492121
C303  C     C_R   0.964484 0.545866 0.130896 0.475497
C304  C     C_R   0.556103 0.990553 0.131278 0.490205
C305  C     C_R   0.034818 0.457532 0.131257 0.472852
C306  C     C_R   0.036357 0.457612 0.398980 -0.279159
C307  C     C_R   0.555753 0.005341 0.399507 -0.310674
C308  C     C_R   0.963735 0.542560 0.399105 -0.278224
C309  C     C_R   0.500291 0.380027 0.999979 0.864866
C310  C     C_R   0.444744 0.994043 0.399365 -0.309737
C311  C     C_R   0.004058 0.554703 0.600900 -0.308504
C312  C     C_R   0.555995 0.990023 0.600357 -0.299963
C313  C     C_R   0.996964 0.443284 0.600299 -0.307852
C314  C     C_R   0.446610 0.012504 0.601039 -0.286411
C315  C     C_R   0.445624 0.012797 0.898208 -0.329106
C316  C     C_R   0.003246 0.443329 0.898551 -0.293457
C317  C     C_R   0.556319 0.997007 0.898551 -0.284812
C318  C     C_R   0.000205 0.555108 0.898215 -0.290598
C319  C     C_R   0.444414 0.002854 0.101674 -0.276297
C320  C     C_R   0.619863 0.499302 0.999979 0.870417
C321  C     C_R   0.966977 0.546280 0.101037 -0.344177
C322  C     C_R   0.555863 0.994150 0.101544 -0.289538
C323  C     C_R   0.032345 0.455506 0.101420 -0.343590
C324  C     C_R   0.000022 0.500038 0.413828 -0.181225
C325  C     C_R   0.500152 0.999796 0.414046 -0.104564
C326  C     C_R   0.000112 0.499334 0.585979 -0.101512
C327  C     C_R   0.500709 0.000419 0.586021 -0.122531
C328  C     C_R   0.500503 0.003107 0.913343 -0.166463
C329  C     C_R   0.001095 0.499497 0.913359 -0.180412
C330  C     C_R   0.500090 0.998954 0.086635 -0.180081
C331  C     C_R   0.499499 0.620070 0.000056 0.866778
C332  C     C_R   0.999643 0.500491 0.086393 -0.133890
C333  C     C_R   0.000078 0.500216 0.354474 0.059705
C334  C     C_R   0.500556 0.999276 0.354818 0.128753
C335  C     C_R   0.001711 0.497963 0.645193 0.132880
C336  C     C_R   0.503067 0.003652 0.645265 0.123512
C337  C     C_R   0.502426 0.009165 0.853898 0.143617
C338  C     C_R   0.003213 0.498338 0.853870 0.111139
C339  C     C_R   0.500310 0.997665 0.146112 0.113794
C340  C     C_R   0.999605 0.502019 0.145793 0.169707
C341  C     C_R   0.504036 0.006447 0.734594 -0.015611
C342  C     C_R   0.043595 0.782128 0.516916 0.012094
C343  C     C_R   0.002862 0.496928 0.734572 -0.015672
C344  C     C_R   0.500781 0.998435 0.265397 -0.016091
C345  C     C_R   0.999754 0.501387 0.265124 -0.017313
C346  C     C_R   0.999583 0.501920 0.235154 -0.014034
C347  C     C_R   0.500726 0.998198 0.235430 -0.011949
C348  C     C_R   0.003090 0.496996 0.764537 -0.013643
C349  C     C_R   0.503707 0.007248 0.764560 -0.013094
C350  C     C_R   0.000006 0.499981 0.444729 0.897842
C351  C     C_R   0.499982 0.999942 0.444807 0.895735
C352  C     C_R   0.000006 0.499957 0.555199 0.894727
H1    H     H_    0.099784 0.861622 0.528991 0.173233
H2    H     H_    0.636699 0.606875 0.020422 0.150285
H3    H     H_    0.160444 0.183621 0.609644 0.173964
H4    H     H_    0.206933 0.117062 0.604769 0.116522
H5    H     H_    0.073615 0.130232 0.581510 0.247040
H6    H     H_    0.119903 0.061364 0.581578 0.217720
H7    H     H_    0.121886 0.062291 0.634817 0.274193
H8    H     H_    0.044598 0.059497 0.620825 0.264304
H9    H     H_    0.074097 0.130884 0.634871 0.268828
H10   H     H_    0.186800 0.840245 0.608509 0.180832
H11   H     H_    0.121497 0.791639 0.604378 0.120368
H12   H     H_    0.132590 0.927635 0.584430 0.239501
H13   H     H_    0.400650 0.640060 0.029679 0.159962
H14   H     H_    0.065301 0.880498 0.579635 0.221096
H15   H     H_    0.051960 0.868787 0.631284 0.274954
H16   H     H_    0.056461 0.949314 0.621926 0.262672
H17   H     H_    0.121754 0.911951 0.638006 0.269084
H18   H     H_    0.838699 0.808356 0.606721 0.173611
H19   H     H_    0.790739 0.874154 0.602854 0.119392
H20   H     H_    0.927109 0.864314 0.583204 0.244329
H21   H     H_    0.879804 0.931949 0.580122 0.220829
H22   H     H_    0.867230 0.937497 0.632526 0.274309
H23   H     H_    0.947393 0.937717 0.622490 0.264203
H24   H     H_    0.363158 0.395465 0.023933 0.158420
H25   H     H_    0.913595 0.868527 0.636660 0.266234
H26   H     H_    0.300548 0.343249 0.898223 0.176768
H27   H     H_    0.379740 0.324714 0.903649 0.113536
H28   H     H_    0.312791 0.434237 0.933125 0.247757
H29   H     H_    0.394602 0.419018 0.932619 0.230199
H30   H     H_    0.396707 0.433735 0.880029 0.264297
H31   H     H_    0.367833 0.500890 0.898495 0.263696
H32   H     H_    0.314724 0.450222 0.880441 0.272651
H33   H     H_    0.654148 0.296447 0.900407 0.181583
H34   H     H_    0.675731 0.375223 0.904651 0.118834
H35   H     H_    0.600928 0.638498 0.972510 0.159700
H36   H     H_    0.566262 0.314839 0.936733 0.247424
H37   H     H_    0.583773 0.396010 0.934002 0.231461
H38   H     H_    0.565230 0.392140 0.881614 0.264864
H39   H     H_    0.498634 0.368506 0.901860 0.263336
H40   H     H_    0.545754 0.311087 0.884488 0.270964
H41   H     H_    0.688321 0.653389 0.894441 0.180701
H42   H     H_    0.609616 0.671455 0.901481 0.120481
H43   H     H_    0.680664 0.566185 0.931949 0.249007
H44   H     H_    0.598534 0.579599 0.931826 0.230663
H45   H     H_    0.595074 0.559133 0.879529 0.264424
H46   H     H_    0.638599 0.394584 0.976039 0.152936
H47   H     H_    0.625354 0.494611 0.899334 0.263838
H48   H     H_    0.677256 0.543840 0.879839 0.272263
H49   H     H_    0.346813 0.696440 0.898267 0.189036
H50   H     H_    0.323203 0.618488 0.903149 0.116975
H51   H     H_    0.434271 0.677797 0.934622 0.249968
H52   H     H_    0.414662 0.596970 0.932856 0.231425
H53   H     H_    0.432861 0.597194 0.880361 0.264402
H54   H     H_    0.500156 0.619894 0.900343 0.262098
H55   H     H_    0.454844 0.677744 0.882403 0.275763
H56   H     H_    0.343816 0.640881 0.106519 0.166412
H57   H     H_    0.397526 0.362357 0.974027 0.159493
H58   H     H_    0.401105 0.624334 0.080426 0.126508
H59   H     H_    0.262621 0.590045 0.077680 0.233949
H60   H     H_    0.317113 0.575538 0.049652 0.227574
H61   H     H_    0.379387 0.508763 0.082145 0.274786
H62   H     H_    0.300581 0.482606 0.079912 0.259144
H63   H     H_    0.325920 0.524606 0.110861 0.259065
H64   H     H_    0.658072 0.674904 0.089863 0.134933
H65   H     H_    0.606348 0.649113 0.061993 0.154849
H66   H     H_    0.628542 0.783850 0.079822 0.218625
H67   H     H_    0.580349 0.758936 0.050868 0.239587
H68   H     H_    0.361171 0.603965 0.975299 0.157557
H69   H     H_    0.513806 0.699972 0.084519 0.262239
H70   H     H_    0.518811 0.780188 0.094519 0.275962
H71   H     H_    0.562643 0.723336 0.113912 0.269967
H72   H     H_    0.690267 0.344707 0.105003 0.188542
H73   H     H_    0.612579 0.321590 0.098920 0.116087
H74   H     H_    0.674428 0.433743 0.069479 0.247542
H75   H     H_    0.593561 0.414257 0.069391 0.228982
H76   H     H_    0.588926 0.430144 0.122015 0.264872
H77   H     H_    0.614002 0.498347 0.103359 0.260171
H78   H     H_    0.669691 0.451569 0.121958 0.272000
H79   H     H_    0.069184 0.638766 0.544006 0.202608
H80   H     H_    0.341661 0.288611 0.097063 0.175782
H81   H     H_    0.321881 0.368055 0.093825 0.118051
H82   H     H_    0.434951 0.306867 0.064635 0.245047
H83   H     H_    0.417614 0.388216 0.066381 0.229156
H84   H     H_    0.427783 0.386015 0.119251 0.266524
H85   H     H_    0.497166 0.360490 0.101566 0.261840
H86   H     H_    0.446448 0.304533 0.117570 0.272505
H87   H     H_    0.045514 0.339079 0.328806 0.172745
H88   H     H_    0.980462 0.370998 0.346709 0.149325
H89   H     H_    0.087955 0.298733 0.374617 0.229077
H90   H     H_    0.361389 0.068892 0.544060 0.201036
H91   H     H_    0.022159 0.329294 0.393377 0.217791
H92   H     H_    0.951938 0.263316 0.363833 0.276590
H93   H     H_    0.007266 0.218832 0.383728 0.268426
H94   H     H_    0.018706 0.230673 0.346120 0.268036
H95   H     H_    0.685232 0.949682 0.348615 0.156133
H96   H     H_    0.646186 0.937581 0.381095 0.136750
H97   H     H_    0.736124 0.040341 0.362997 0.219935
H98   H     H_    0.682111 0.057284 0.390740 0.252695
H99   H     H_    0.720131 0.970239 0.419635 0.278931
H100  H     H_    0.784019 0.018338 0.409224 0.265962
H101  H     H_    0.930489 0.361687 0.543895 0.203154
H102  H     H_    0.770507 0.946273 0.391072 0.271431
H103  H     H_    0.954838 0.661317 0.329208 0.172641
H104  H     H_    0.019817 0.629325 0.347077 0.149378
H105  H     H_    0.912362 0.701666 0.375068 0.228291
H106  H     H_    0.978067 0.671038 0.393805 0.217822
H107  H     H_    0.048449 0.736980 0.364451 0.276639
H108  H     H_    0.993041 0.781536 0.384357 0.268473
H109  H     H_    0.981798 0.769642 0.346720 0.267703
H110  H     H_    0.316410 0.049447 0.347914 0.156316
H111  H     H_    0.354904 0.061882 0.380533 0.136565
H112  H     H_    0.138255 0.099011 0.529674 0.173778
H113  H     H_    0.639158 0.928004 0.543187 0.203812
H114  H     H_    0.264711 0.959309 0.362285 0.219998
H115  H     H_    0.318024 0.942732 0.390322 0.252372
H116  H     H_    0.279850 0.030718 0.418763 0.279170
H117  H     H_    0.216025 0.982543 0.408282 0.265729
H118  H     H_    0.230072 0.054087 0.389909 0.271037
H119  H     H_    0.947603 0.681050 0.653491 0.157415
H120  H     H_    0.934657 0.642684 0.620831 0.136049
H121  H     H_    0.037258 0.733619 0.638564 0.220676
H122  H     H_    0.051958 0.681754 0.609684 0.250437
H123  H     H_    0.959476 0.720307 0.583813 0.281213
H124  H     H_    0.073389 0.360283 0.456749 0.197524
H125  H     H_    0.010939 0.782567 0.592595 0.265705
H126  H     H_    0.942052 0.771010 0.613396 0.270582
H127  H     H_    0.683544 0.044929 0.653054 0.155977
H128  H     H_    0.645479 0.059733 0.620470 0.138354
H129  H     H_    0.739595 0.959371 0.636429 0.216826
H130  H     H_    0.686504 0.942736 0.608294 0.248856
H131  H     H_    0.719542 0.035605 0.581726 0.279059
H132  H     H_    0.784985 0.987910 0.590179 0.265216
H133  H     H_    0.770313 0.056898 0.610650 0.271489
H134  H     H_    0.056662 0.314594 0.650605 0.155785
H135  H     H_    0.360895 0.928657 0.456248 0.203312
H136  H     H_    0.067682 0.354642 0.618319 0.137509
H137  H     H_    0.967524 0.261508 0.636067 0.218327
H138  H     H_    0.948857 0.315854 0.608773 0.250926
H139  H     H_    0.037801 0.281272 0.579650 0.278534
H140  H     H_    0.989773 0.216634 0.588937 0.263410
H141  H     H_    0.061176 0.229269 0.607684 0.273099
H142  H     H_    0.330384 0.959911 0.659523 0.164046
H143  H     H_    0.360706 0.943327 0.625172 0.133435
H144  H     H_    0.272132 0.048841 0.642656 0.229436
H145  H     H_    0.308101 0.045134 0.608271 0.231297
H146  H     H_    0.926455 0.639340 0.456779 0.197495
H147  H     H_    0.260288 0.943291 0.598746 0.283772
H148  H     H_    0.202627 0.999892 0.607793 0.270567
H149  H     H_    0.226162 0.943646 0.633911 0.266427
H150  H     H_    0.388137 0.113401 0.869987 0.166667
H151  H     H_    0.326811 0.059940 0.879573 0.187672
H152  H     H_    0.349731 0.113254 0.819867 0.246813
H153  H     H_    0.287589 0.062730 0.830063 0.230188
H154  H     H_    0.249395 0.142694 0.864613 0.275702
H155  H     H_    0.252853 0.172045 0.828771 0.267666
H156  H     H_    0.311590 0.193441 0.854081 0.260693
H157  H     H_    0.639301 0.071871 0.456556 0.204122
H158  H     H_    0.058204 0.306545 0.852012 0.185345
H159  H     H_    0.073162 0.349961 0.883302 0.132898
H160  H     H_    0.111261 0.386474 0.821993 0.239143
H161  H     H_    0.129484 0.429440 0.853804 0.245626
H162  H     H_    0.188824 0.339446 0.872703 0.264448
H163  H     H_    0.218158 0.365236 0.838870 0.271088
H164  H     H_    0.171579 0.296433 0.840606 0.267608
H165  H     H_    0.700899 0.024854 0.852301 0.187539
H166  H     H_    0.660315 0.049717 0.883083 0.132821
H167  H     H_    0.632532 0.090364 0.821151 0.242856
H168  H     H_    0.567204 0.139834 0.044799 0.204661
H169  H     H_    0.594082 0.118747 0.852624 0.243717
H170  H     H_    0.693690 0.160660 0.870955 0.264282
H171  H     H_    0.674202 0.192002 0.836600 0.271809
H172  H     H_    0.732564 0.132918 0.839288 0.269229
H173  H     H_    0.948651 0.689981 0.849925 0.186952
H174  H     H_    0.931413 0.647819 0.881257 0.132358
H175  H     H_    0.898093 0.608478 0.819659 0.239432
H176  H     H_    0.877294 0.567160 0.851533 0.246880
H177  H     H_    0.816405 0.657837 0.868580 0.265069
H178  H     H_    0.790029 0.630602 0.834419 0.271252
H179  H     H_    0.857944 0.581052 0.041262 0.201127
H180  H     H_    0.836482 0.699455 0.836507 0.268776
H181  H     H_    0.311539 0.061792 0.149931 0.187490
H182  H     H_    0.352295 0.073791 0.117712 0.131833
H183  H     H_    0.396274 0.112563 0.177954 0.240807
H184  H     H_    0.436940 0.127811 0.145220 0.246024
H185  H     H_    0.347735 0.190050 0.127570 0.260427
H186  H     H_    0.378106 0.219708 0.160572 0.271903
H187  H     H_    0.307322 0.176040 0.160646 0.269606
H188  H     H_    0.850787 0.552396 0.129032 0.152817
H189  H     H_    0.872046 0.629573 0.117436 0.181327
H190  H     H_    0.438047 0.861687 0.045997 0.200304
H191  H     H_    0.829079 0.593226 0.177407 0.240307
H192  H     H_    0.850790 0.669671 0.166168 0.234454
H193  H     H_    0.765741 0.669218 0.130038 0.257707
H194  H     H_    0.736817 0.656577 0.165504 0.275044
H195  H     H_    0.743869 0.592390 0.141221 0.267804
H196  H     H_    0.689467 0.934458 0.148678 0.189318
H197  H     H_    0.646208 0.920599 0.117258 0.124977
H198  H     H_    0.604400 0.886185 0.178291 0.242233
H199  H     H_    0.564908 0.866550 0.145707 0.245296
H200  H     H_    0.657104 0.805009 0.129942 0.262784
H201  H     H_    0.140801 0.422032 0.042013 0.202057
H202  H     H_    0.625216 0.777662 0.163005 0.272190
H203  H     H_    0.694925 0.822991 0.163242 0.269232
H204  H     H_    0.148262 0.454430 0.129981 0.152936
H205  H     H_    0.130226 0.376053 0.118921 0.179470
H206  H     H_    0.170076 0.417100 0.178772 0.240935
H207  H     H_    0.151138 0.339325 0.168285 0.234113
H208  H     H_    0.237048 0.339837 0.132805 0.252584
H209  H     H_    0.264787 0.356664 0.168118 0.276909
H210  H     H_    0.255973 0.418346 0.142721 0.267675
H211  H     H_    0.197141 0.708193 0.587093 0.107715
H212  H     H_    0.566726 0.859992 0.954806 0.202987
H213  H     H_    0.291462 0.194449 0.588615 0.107989
H214  H     H_    0.801963 0.292831 0.586658 0.107575
H215  H     H_    0.708945 0.797741 0.584481 0.107586
H216  H     H_    0.197627 0.286822 0.412513 0.105558
H217  H     H_    0.291550 0.797785 0.414955 0.108069
H218  H     H_    0.802318 0.712549 0.412532 0.105518
H219  H     H_    0.708672 0.203272 0.415895 0.108056
H220  H     H_    0.691094 0.211688 0.089934 0.104192
H221  H     H_    0.785337 0.719379 0.075793 0.106743
H222  H     H_    0.321910 0.791276 0.095525 0.118645
H223  H     H_    0.900249 0.138614 0.529014 0.173127
H224  H     H_    0.859549 0.427517 0.956524 0.206335
H225  H     H_    0.212972 0.289175 0.080547 0.100672
H226  H     H_    0.688860 0.786962 0.908829 0.098787
H227  H     H_    0.787781 0.297697 0.915009 0.098113
H228  H     H_    0.300144 0.212302 0.913744 0.099543
H229  H     H_    0.212510 0.696652 0.912821 0.103328
H230  H     H_    0.426872 0.139958 0.956569 0.204671
H231  H     H_    0.140312 0.569890 0.955949 0.205115
H232  H     H_    0.064353 0.424741 0.410440 0.207289
H233  H     H_    0.597715 0.010764 0.411669 0.154490
H234  H     H_    0.935753 0.575396 0.410655 0.206800
H235  H     H_    0.402602 0.988826 0.411408 0.154610
H236  H     H_    0.007487 0.597183 0.589006 0.153530
H237  H     H_    0.597247 0.980469 0.588205 0.161463
H238  H     H_    0.993056 0.401326 0.587967 0.153339
H239  H     H_    0.862339 0.899762 0.528210 0.174205
H240  H     H_    0.404342 0.021315 0.589540 0.161171
H241  H     H_    0.402294 0.016561 0.909492 0.208630
H242  H     H_    0.002056 0.400124 0.910036 0.206530
H243  H     H_    0.598613 0.987734 0.909995 0.215303
H244  H     H_    0.000612 0.598703 0.909478 0.207302
H245  H     H_    0.401072 0.004415 0.090297 0.205134
H246  H     H_    0.942796 0.581474 0.089143 0.196387
H247  H     H_    0.599188 0.992988 0.090125 0.203888
H248  H     H_    0.056811 0.419862 0.089875 0.201122
H249  H     H_    0.485937 0.161162 0.722971 0.192533
H250  H     H_    0.099780 0.136899 0.471818 0.173131
H251  H     H_    0.854224 0.449442 0.723947 0.192253
H252  H     H_    0.522071 0.851101 0.724514 0.192680
H253  H     H_    0.151342 0.544319 0.723499 0.192563
H254  H     H_    0.452499 0.850189 0.276371 0.192928
H255  H     H_    0.853892 0.446197 0.275898 0.193421
H256  H     H_    0.549100 0.146855 0.276116 0.192931
H257  H     H_    0.145724 0.556226 0.276050 0.193369
H258  H     H_    0.853770 0.446656 0.224223 0.189867
H259  H     H_    0.450655 0.850370 0.224696 0.191020
H260  H     H_    0.145279 0.557543 0.224376 0.189955
H261  H     H_    0.137982 0.899563 0.471704 0.172138
H262  H     H_    0.550760 0.145861 0.224445 0.191044
H263  H     H_    0.855076 0.448158 0.775612 0.190464
H264  H     H_    0.484586 0.162440 0.774656 0.188844
H265  H     H_    0.151280 0.545808 0.775179 0.190892
H266  H     H_    0.522173 0.852559 0.776176 0.190328
H267  H     H_    0.814214 0.844799 0.392635 0.174965
H268  H     H_    0.880966 0.798329 0.396973 0.118455
H269  H     H_    0.866512 0.930492 0.421639 0.248762
H270  H     H_    0.935733 0.884501 0.421490 0.222384
H271  H     H_    0.937003 0.884811 0.368460 0.273180
H272  H     H_    0.900363 0.862898 0.471785 0.172790
H273  H     H_    0.938541 0.961772 0.383160 0.264553
H274  H     H_    0.868207 0.932001 0.368141 0.269601
H275  H     H_    0.162745 0.801695 0.394306 0.182129
H276  H     H_    0.206059 0.871072 0.397154 0.116948
H277  H     H_    0.070679 0.851121 0.416548 0.236484
H278  H     H_    0.112541 0.922452 0.420434 0.223162
H279  H     H_    0.126513 0.929252 0.368025 0.273741
H280  H     H_    0.046250 0.924396 0.377608 0.267261
H281  H     H_    0.084985 0.857437 0.363475 0.275791
H282  H     H_    0.185632 0.154995 0.392469 0.174784
H283  H     H_    0.862084 0.101038 0.472381 0.171078
H284  H     H_    0.118791 0.201305 0.396992 0.118091
H285  H     H_    0.133703 0.069002 0.421196 0.248328
H286  H     H_    0.064396 0.114865 0.421389 0.222552
H287  H     H_    0.062672 0.115069 0.368333 0.273227
H288  H     H_    0.061276 0.037998 0.382758 0.264633
H289  H     H_    0.131481 0.067905 0.367720 0.269776
H290  H     H_    0.837592 0.199175 0.395247 0.182141
H291  H     H_    0.794166 0.129863 0.397944 0.117193
H292  H     H_    0.929596 0.149699 0.417310 0.236555
H293  H     H_    0.887649 0.078466 0.421253 0.223902
H294  H     H_    0.602383 0.361007 0.026640 0.158247
H295  H     H_    0.873382 0.071204 0.368860 0.273686
H296  H     H_    0.953677 0.075865 0.378386 0.267416
H297  H     H_    0.915139 0.142835 0.364263 0.275836
H298  H     H_    0.811041 0.161704 0.607867 0.175391
H299  H     H_    0.877765 0.208318 0.603905 0.118898
H300  H     H_    0.864979 0.073725 0.581949 0.245323
H301  H     H_    0.933767 0.119647 0.580612 0.219830
H302  H     H_    0.937176 0.126146 0.633239 0.273243
H303  H     H_    0.935535 0.047055 0.621303 0.263553
H304  H     H_    0.866794 0.081537 0.635702 0.266572
N1    N     N_R   0.504006 0.004746 0.675702 -0.323006
N2    N     N_R   0.002232 0.497296 0.675663 -0.323365
N3    N     N_R   0.500743 0.998955 0.324326 -0.324462
N4    N     N_R   0.000074 0.500360 0.324025 -0.332122
N5    N     N_R   0.999413 0.502517 0.176251 -0.312071
N6    N     N_R   0.500519 0.997785 0.176547 -0.316370
N7    N     N_R   0.003328 0.497644 0.823426 -0.317806
N8    N     N_R   0.502936 0.008740 0.823451 -0.312650
O1    O     O_R   0.908370 0.000000 0.476360 -0.637557
O2    O     O_R   0.500000 0.408370 0.976360 -0.640467
O3    O     O_2   0.629677 0.840860 0.577551 -0.551809
O4    O     O_2   0.164941 0.368529 0.424049 -0.558133
O5    O     O_2   0.370499 0.841473 0.421691 -0.551421
O6    O     O_2   0.834708 0.630894 0.424169 -0.557435
O7    O     O_2   0.629779 0.159307 0.422312 -0.551726
O8    O     O_2   0.648288 0.132366 0.082691 -0.562592
O9    O     O_2   0.867047 0.682844 0.066851 -0.589942
O10   O     O_2   0.362364 0.870604 0.086012 -0.570628
O11   O     O_2   0.131361 0.322244 0.069072 -0.585856
O12   O     O_2   0.647678 0.866946 0.916716 -0.575345
O13   O     O_R   0.591630 0.500000 0.976360 -0.641664
O14   O     O_2   0.867163 0.341150 0.921112 -0.566293
O15   O     O_2   0.333394 0.130830 0.925320 -0.618736
O16   O     O_2   0.133092 0.653590 0.919321 -0.566091
O17   O     O_R   0.500000 0.591630 0.976360 -0.642050
O18   O     O_R   0.408370 0.500000 0.023640 -0.633304
O19   O     O_R   0.500000 0.591630 0.023640 -0.632737
O20   O     O_R   0.591630 0.500000 0.023640 -0.633845
O21   O     O_R   0.500000 0.408370 0.023640 -0.643583
O22   O     O_R   0.948250 0.500010 0.458110 -0.601154
O23   O     O_R   0.499990 0.948250 0.458110 -0.599995
O24   O     O_R   0.051750 0.499990 0.458110 -0.601046
O25   O     O_R   1.000000 0.908370 0.476360 -0.638027
O26   O     O_R   0.500010 0.051750 0.458110 -0.600164
O27   O     O_R   0.948250 0.499990 0.541890 -0.599627
O28   O     O_R   0.499990 0.051750 0.541890 -0.598757
O29   O     O_R   0.051750 0.500010 0.541890 -0.599632
O30   O     O_R   0.500010 0.948250 0.541890 -0.599074
O31   O     O_R   0.448250 0.000010 0.958110 -0.611326
O32   O     O_R   0.999990 0.448250 0.958110 -0.617246
O33   O     O_R   0.551750 0.999990 0.958110 -0.620880
O34   O     O_R   0.000010 0.551750 0.958110 -0.616537
O35   O     O_R   0.448250 0.999990 0.041890 -0.616265
O36   O     O_R   0.091630 0.000000 0.476360 -0.637529
O37   O     O_R   0.999990 0.551750 0.041890 -0.608150
O38   O     O_R   0.551750 0.000010 0.041890 -0.617644
O39   O     O_R   0.000010 0.448250 0.041890 -0.605482
O40   O     O_R   0.948250 0.591600 0.500040 -0.616596
O41   O     O_R   0.408400 0.948250 0.500040 -0.614806
O42   O     O_R   0.051750 0.408400 0.500040 -0.617010
O43   O     O_R   0.591600 0.051750 0.500040 -0.615112
O44   O     O_R   0.948250 0.408400 0.499960 -0.611958
O45   O     O_R   0.408400 0.051750 0.499960 -0.615596
O46   O     O_R   0.051750 0.591600 0.499960 -0.612106
O47   O     O_R   0.000000 0.091630 0.476360 -0.637943
O48   O     O_R   0.591600 0.948250 0.499960 -0.615822
O49   O     O_R   0.448250 0.091600 0.000040 -0.613878
O50   O     O_R   0.908400 0.448250 0.000040 -0.612862
O51   O     O_R   0.551750 0.908400 0.000040 -0.620516
O52   O     O_R   0.091600 0.551750 0.000040 -0.615093
O53   O     O_R   0.448250 0.908400 0.999960 -0.608622
O54   O     O_R   0.908400 0.551750 0.999960 -0.615475
O55   O     O_R   0.551750 0.091600 0.999960 -0.614864
O56   O     O_R   0.091600 0.448250 0.999960 -0.613943
O57   O     O_2   0.514997 0.896720 0.675695 -0.537346
O58   O     O_R   0.908370 0.000000 0.523640 -0.636389
O59   O     O_2   0.106434 0.527577 0.674963 -0.531098
O60   O     O_2   0.493149 0.112752 0.674570 -0.534043
O61   O     O_2   0.898065 0.466858 0.675315 -0.531946
O62   O     O_2   0.531057 0.103221 0.324720 -0.529468
O63   O     O_2   0.101657 0.538467 0.324626 -0.545431
O64   O     O_2   0.470464 0.894684 0.324907 -0.529185
O65   O     O_2   0.898517 0.462185 0.324514 -0.545704
O66   O     O_2   0.100122 0.542891 0.175764 -0.574576
O67   O     O_2   0.538408 0.099484 0.175920 -0.560871
O68   O     O_2   0.898573 0.462465 0.175652 -0.574035
O69   O     O_R   0.000000 0.091630 0.523640 -0.637216
O70   O     O_2   0.462640 0.896084 0.176074 -0.560313
O71   O     O_2   0.105637 0.533774 0.823832 -0.559584
O72   O     O_2   0.515906 0.900955 0.824514 -0.537199
O73   O     O_2   0.901173 0.461053 0.824090 -0.560430
O74   O     O_2   0.488272 0.116366 0.823479 -0.608514
O75   O     O_3   0.828555 0.818340 0.433792 -0.649643
O76   O     O_3   0.184247 0.824282 0.435378 -0.647004
O77   O     O_3   0.171370 0.181168 0.433723 -0.649777
O78   O     O_3   0.815939 0.176610 0.436271 -0.646844
O79   O     O_3   0.828224 0.185209 0.566574 -0.648274
O80   O     O_R   0.091630 0.000000 0.523640 -0.636538
O81   O     O_3   0.184339 0.169067 0.568146 -0.650125
O82   O     O_3   0.170563 0.815854 0.567149 -0.650396
O83   O     O_3   0.816642 0.826607 0.565321 -0.648365
O84   O     O_3   0.318634 0.315595 0.938854 -0.650466
O85   O     O_3   0.685187 0.315972 0.940398 -0.654656
O86   O     O_3   0.674516 0.684853 0.934870 -0.654376
O87   O     O_3   0.315133 0.679615 0.938377 -0.652046
O88   O     O_3   0.330737 0.689699 0.069704 -0.660946
O89   O     O_3   0.685174 0.698369 0.049039 -0.650933
O90   O     O_3   0.675619 0.314599 0.064413 -0.651258
O91   O     O_R   0.000000 0.908370 0.523640 -0.636527
O92   O     O_3   0.316548 0.311997 0.056641 -0.647766
O93   O     O_3   0.068101 0.411272 0.354900 -0.601729
O94   O     O_3   0.611212 0.007540 0.353865 -0.616959
O95   O     O_3   0.932093 0.589175 0.355171 -0.602071
O96   O     O_3   0.389905 0.991152 0.353586 -0.617133
O97   O     O_3   0.006900 0.608658 0.647012 -0.619243
O98   O     O_3   0.612410 0.984789 0.645385 -0.616796
O99   O     O_3   0.996902 0.387188 0.645786 -0.619234
O100  O     O_3   0.393959 0.023842 0.646512 -0.616086
O101  O     O_3   0.392767 0.023792 0.852569 -0.635615
O102  O     O_R   0.408370 0.500000 0.976360 -0.641016
O103  O     O_3   0.009752 0.387414 0.853770 -0.607396
O104  O     O_3   0.612308 0.992982 0.853857 -0.608582
O105  O     O_3   0.997024 0.609286 0.853001 -0.605737
O106  O     O_3   0.389955 0.009794 0.146861 -0.606599
O107  O     O_3   0.932007 0.589944 0.146359 -0.627135
O108  O     O_3   0.610749 0.986085 0.146481 -0.606496
O109  O     O_3   0.067810 0.414589 0.147044 -0.627036
O110  O     O_2   0.154288 0.629066 0.579558 -0.551480
O111  O     O_2   0.370797 0.152331 0.580561 -0.549992
O112  O     O_2   0.845205 0.371775 0.579333 -0.550971
Zn1   Zn    Zn3+2 0.000000 0.000000 0.468420 0.893903
Zn2   Zn    Zn3+2 0.000000 0.430910 0.000000 1.029383
Zn3   Zn    Zn3+2 0.569090 0.000000 0.000000 1.004146
Zn4   Zn    Zn3+2 0.000000 0.569090 0.000000 1.025884
Zn5   Zn    Zn3+2 0.000000 0.000000 0.531580 0.896019
Zn6   Zn    Zn3+2 0.500000 0.500000 0.968420 0.887685
Zn7   Zn    Zn3+2 0.500000 0.500000 0.031580 0.889657
Zn8   Zn    Zn3+2 0.930910 0.500000 0.500000 1.042978
Zn9   Zn    Zn3+2 0.500000 0.930910 0.500000 1.040702
Zn10  Zn    Zn3+2 0.069090 0.500000 0.500000 1.042717
Zn11  Zn    Zn3+2 0.500000 0.069090 0.500000 1.039694
Zn12  Zn    Zn3+2 0.430910 0.000000 0.000000 1.020689

loop_
_geom_bond_atom_site_label_1
_geom_bond_atom_site_label_2
_ccdc_geom_bond_type
C104  O87   S    
O55   Zn3   S    
C157  C158  A    
C289  C306  A    
C132  C150  A    
C186  H28   S    
C220  H108  S    
C95   O78   S    
C276  O10   D    
C184  H25   S    
C293  C335  A    
C128  C145  A    
C52   N1    A    
C267  H214  S    
C273  H219  S    
C311  H236  S    
C182  H18   S    
C57   C76   A    
C195  O87   S    
C108  C269  S    
C166  H286  S    
C21   C59   A    
C23   C344  A    
C22   C60   A    
C58   N4    A    
C92   C109  A    
C120  C280  S    
C41   H256  S    
C86   H68   S    
C234  H139  S    
C295  C313  A    
C91   O83   S    
C94   C111  A    
C278  O12   D    
C151  C224  A    
C208  H80   S    
C186  H29   S    
C35   C145  A    
C74   C92   A    
C11   O48   A    
C304  O108  S    
C202  H65   S    
C306  H232  S    
C218  H103  S    
C8    C168  S    
C76   C94   A    
C231  H132  S    
C217  H100  S    
C172  O79   S    
C40   C43   A    
C241  H154  S    
C307  H233  S    
C78   C96   A    
C175  O81   S    
C63   O68   S    
C33   C349  A    
C50   H265  S    
C123  H79   S    
C296  C336  A    
O37   Zn4   S    
C100  O86   S    
C7    C332  S    
C135  C285  A    
C191  H38   S    
C157  C288  A    
C165  H284  S    
C253  H183  S    
C5    O32   A    
C291  O95   S    
C85   C103  A    
C236  H143  S    
C237  H145  S    
C315  C328  A    
C225  H118  S    
C68   C283  A    
C28   C61   A    
C204  H69   S    
C174  H302  S    
C187  H30   S    
C242  O103  S    
C294  O98   S    
C259  H196  S    
C236  O100  S    
C293  O97   S    
C9    O45   A    
C5    C329  S    
C254  H187  S    
C255  O107  S    
O42   Zn10  S    
C274  O8    D    
C202  C203  S    
C67   N7    A    
C310  H235  S    
C264  H209  S    
C254  H185  S    
C297  C315  A    
C237  H144  S    
C240  H152  S    
C206  C207  S    
C90   C151  A    
C28   C346  A    
C116  C133  A    
C325  C351  S    
C213  C214  S    
C48   H263  S    
C233  H137  S    
C291  C333  A    
C102  O85   S    
C42   C45   A    
C150  C212  A    
C258  H195  S    
C302  O106  S    
C215  C216  S    
C290  O94   S    
C229  C230  S    
C277  O11   D    
C262  H205  S    
C210  H86   S    
C111  C130  A    
C175  C176  S    
C265  H211  S    
C251  H178  S    
C202  H64   S    
C284  C309  S    
C2    C268  A    
C153  C246  A    
C6    O38   A    
C287  O47   A    
C164  H281  S    
C73   H239  S    
C64   O70   S    
C321  H246  S    
C216  C217  S    
C27   C347  A    
C12   C212  S    
C2    C71   A    
O30   Zn9   S    
C317  C328  A    
C206  H75   S    
C225  H116  S    
C350  O22   A    
C83   C100  A    
C296  O100  S    
C131  C149  A    
C219  H106  S    
C120  C138  A    
C17   C34   A    
C298  O102  A    
C259  O108  S    
C103  C121  A    
C118  C136  A    
C75   C93   A    
O21   Zn7   S    
C68   C77   A    
C141  C168  A    
C305  C323  A    
C37   H252  S    
C1    O58   A    
C21   C39   A    
C196  C197  S    
C214  H93   S    
C55   O61   S    
C226  H119  S    
C171  H297  S    
C13   C72   A    
C185  H27   S    
C207  H77   S    
C23   C41   A    
C211  O93   S    
C261  H203  S    
C34   H249  S    
C181  H15   S    
C351  O23   A    
C60   O65   S    
C217  H102  S    
C161  H274  S    
C241  H156  S    
C160  H270  S    
C250  H175  S    
C51   H266  S    
C14   O50   A    
C57   C257  A    
C97   O89   S    
C209  H82   S    
C6    C330  S    
C178  H11   S    
C314  C327  A    
C129  C147  A    
C311  C326  A    
C194  H48   S    
C27   C64   A    
C195  C196  S    
C165  H282  S    
C147  C179  A    
C204  H71   S    
C193  C194  S    
C317  H243  S    
O29   Zn10  S    
C291  C308  A    
O80   Zn5   S    
C300  O104  S    
C172  H298  S    
C186  C187  S    
C306  C324  A    
C17   C54   A    
C303  C321  A    
C319  H245  S    
C243  H160  S    
C243  C244  S    
C114  C273  S    
C125  H90   S    
O26   Zn11  S    
C188  H33   S    
C252  H181  S    
C18   C36   A    
C84   C135  A    
C103  O84   S    
C136  C153  A    
C216  H98   S    
C80   C97   A    
O32   Zn2   S    
C126  C143  A    
C351  O26   A    
C326  C352  S    
C301  C338  A    
C115  C274  S    
C86   C104  A    
C265  O110  D    
C229  H127  S    
C222  H115  S    
C85   H57   S    
C267  O112  D    
C281  H228  S    
C333  N4    S    
C105  C123  A    
C249  C250  S    
C294  C336  A    
C29   C47   A    
C176  H5    S    
C126  H101  S    
C30   C48   A    
C71   H112  S    
C81   H13   S    
C192  H41   S    
C262  H204  S    
C253  C254  S    
O45   Zn11  S    
C44   H259  S    
C98   O88   S    
C170  C171  S    
C105  C265  S    
O48   Zn9   S    
C197  H55   S    
C264  H210  S    
C4    C328  S    
C198  H56   S    
C236  C237  S    
C38   H253  S    
C110  C129  A    
C188  H34   S    
C189  C191  S    
C170  H292  S    
C188  O85   S    
C80   H2    S    
C182  C183  S    
C27   C44   A    
C63   N5    A    
C315  H241  S    
C256  C258  S    
C207  H76   S    
C137  C154  A    
C68   C149  A    
C83   C124  A    
C19   C37   A    
C233  C234  S    
C30   C67   A    
C9    C179  S    
C288  C298  S    
C195  H50   S    
C162  H275  S    
C285  C320  S    
C297  C337  A    
O17   Zn6   S    
C237  C238  S    
C7    O39   A    
C196  H51   S    
C121  C281  S    
C275  H221  S    
C170  H293  S    
C70   C87   A    
C249  H174  S    
C46   C75   A    
C134  H190  S    
C140  H231  S    
C236  H142  S    
C33   C66   A    
C262  O109  S    
C239  H150  S    
C115  C132  A    
C112  O91   A    
C276  H222  S    
C296  C314  A    
C187  H31   S    
C221  H111  S    
C104  C122  A    
C175  H3    S    
C61   O66   S    
C259  H197  S    
C42   H257  S    
C1    C283  S    
C282  H229  S    
C59   O64   S    
C55   N2    A    
C222  C225  S    
C198  H58   S    
C159  H267  S    
O102  Zn6   S    
C71   C88   A    
C191  H39   S    
C269  H215  S    
C279  C287  S    
C1    O1    A    
C26   C63   A    
O91   Zn5   S    
C221  C222  S    
C77   H283  S    
C270  O4    D    
C192  O86   S    
C87   C105  A    
C24   C283  A    
C352  O29   A    
C245  H165  S    
C208  H81   S    
C209  C210  S    
C41   C47   A    
C309  O21   A    
C248  H171  S    
C281  O15   D    
C78   H294  S    
C223  C268  S    
C299  C316  A    
C54   N1    A    
C17   C341  A    
C199  H60   S    
C94   O75   S    
C53   O59   S    
C223  O36   A    
C271  O5    D    
C52   O57   S    
C2    C142  A    
C40   H255  S    
C238  H148  S    
C146  C284  A    
C223  O80   A    
O33   Zn3   S    
C205  H73   S    
C169  H291  S    
C255  H189  S    
C269  O3    D    
C34   C49   A    
C280  H227  S    
C25   C345  A    
C127  H113  S    
C208  O92   S    
C82   C113  A    
C249  O105  S    
C260  C261  S    
C45   H260  S    
C211  H88   S    
C162  O76   S    
C227  H122  S    
C39   C44   A    
C319  C330  A    
C228  H126  S    
C307  C325  A    
C93   C110  A    
C338  N7    S    
C132  H168  S    
C182  H19   S    
C74   H250  S    
C244  H162  S    
C189  H37   S    
C240  H153  S    
C292  C334  A    
O35   Zn12  S    
C205  H72   S    
O43   Zn11  S    
C271  H217  S    
C244  H163  S    
C234  H140  S    
C8    O40   A    
C203  H66   S    
C164  H280  S    
C240  C241  S    
C36   C48   A    
O51   Zn3   S    
C184  H23   S    
C218  H104  S    
C162  H276  S    
C144  C201  A    
C217  H99   S    
C263  H206  S    
C31   C69   A    
C215  O94   S    
C46   C268  A    
C226  C227  S    
C299  C338  A    
C252  C253  S    
C323  C332  A    
C60   N4    A    
C189  H36   S    
C31   C349  A    
C193  H44   S    
C312  H237  S    
C227  H121  S    
C256  H191  S    
C263  H207  S    
C112  O25   A    
C234  H141  S    
C124  C286  A    
C138  C155  A    
C226  O97   S    
C35   C74   A    
C204  H70   S    
C174  H303  S    
C297  O101  S    
C114  C131  A    
C72   H223  S    
C8    O46   A    
C239  C240  S    
C43   H258  S    
C84   H46   S    
C69   O74   S    
C49   H264  S    
C263  C264  S    
O47   Zn1   S    
O27   Zn8   S    
C266  O111  D    
C88   O81   S    
C256  H192  S    
C320  O13   A    
C87   O82   S    
C161  H271  S    
C254  H186  S    
C305  C340  A    
C274  H220  S    
O28   Zn11  S    
C82   C99   A    
C331  O19   A    
C171  H296  S    
C292  O96   S    
C24   C73   A    
C167  H287  S    
C81   C98   A    
C95   C114  A    
C100  C119  A    
C195  H49   S    
C322  C330  A    
C316  C329  A    
C84   C102  A    
C136  H201  S    
C299  O103  S    
C99   O92   S    
C318  H244  S    
C133  C151  A    
C19   C52   A    
C230  H129  S    
C278  H226  S    
C200  H61   S    
C251  H177  S    
C260  H199  S    
C208  C209  S    
C19   C341  A    
C154  C235  A    
C239  O101  S    
C131  H157  S    
C318  C329  A    
C301  O105  S    
C159  H268  S    
C159  O75   S    
O38   Zn3   S    
C26   C346  A    
C337  N8    S    
C129  H135  S    
C56   O62   S    
C229  O98   S    
C54   O60   S    
C47   H262  S    
C219  H105  S    
C220  H107  S    
C31   C49   A    
O20   Zn7   S    
C117  C134  A    
C18   C55   A    
O52   Zn4   S    
C273  O7    D    
C245  O104  S    
C106  C266  S    
C163  H277  S    
O13   Zn6   S    
C32   C65   A    
C166  H285  S    
C66   O72   S    
C300  C337  A    
C183  H20   S    
C113  C153  A    
C219  C220  S    
C178  O82   S    
C226  H120  S    
C215  H96   S    
C225  H117  S    
C250  C251  S    
C205  C206  S    
C202  O89   S    
C216  H97   S    
C138  H224  S    
C64   N6    A    
C141  C342  A    
C65   N7    A    
C116  C275  S    
O1    Zn1   S    
C261  H202  S    
C12   O55   A    
C213  H91   S    
C109  C270  S    
C10   O44   A    
C109  C128  A    
C15   O51   A    
C46   C147  A    
C241  H155  S    
C344  C347  A    
C250  H176  S    
C134  C152  A    
C191  H40   S    
C89   C107  A    
C242  C243  S    
C12   O49   A    
C97   C116  A    
C122  C282  S    
C96   O90   S    
C323  H248  S    
C262  C263  S    
C198  O88   S    
C228  H125  S    
C79   C150  A    
O46   Zn10  S    
C245  C247  S    
C148  C168  A    
C248  H170  S    
C177  H7    S    
C102  C120  A    
C180  C181  S    
C258  H193  S    
C162  C163  S    
C275  O9    D    
C210  H84   S    
C266  H213  S    
C252  H182  S    
C163  H278  S    
C177  H9    S    
C167  H289  S    
C287  O69   A    
C69   N8    A    
C91   C108  A    
C32   C50   A    
C260  H198  S    
C20   C53   A    
C16   O56   A    
O24   Zn10  S    
C25   C42   A    
C331  O17   A    
C118  C277  S    
C178  C180  S    
C289  O93   S    
C167  H288  S    
C33   C51   A    
C233  H138  S    
C128  H124  S    
C101  C152  A    
C304  C339  A    
C314  H240  S    
C302  C319  A    
C176  H6    S    
C258  H194  S    
C56   N3    A    
C185  H26   S    
C192  H42   S    
C340  N5    S    
C242  H159  S    
C93   O76   S    
C121  C139  A    
C185  C186  S    
C200  H63   S    
C92   O77   S    
C24   C144  A    
C242  H158  S    
C197  H54   S    
C181  H16   S    
C106  C125  A    
C232  C233  S    
C79   C284  A    
C101  C286  A    
O44   Zn8   S    
C20   C38   A    
C127  C144  A    
C13   C143  A    
C4    O31   A    
C230  C231  S    
C183  C184  S    
C247  H167  S    
C21   C344  A    
O41   Zn9   S    
C272  O6    D    
C293  C311  A    
C210  H85   S    
C206  H74   S    
C294  C312  A    
C203  H67   S    
C57   C148  A    
C15   C235  S    
C298  O18   A    
C220  H109  S    
O40   Zn8   S    
C304  C322  A    
O2    Zn6   S    
C184  H22   S    
C290  C334  A    
O53   Zn12  S    
C70   C342  A    
C320  O20   A    
C280  O14   D    
C203  C204  S    
C264  H208  S    
C83   H35   S    
C165  C166  S    
C286  C331  S    
C253  H184  S    
C124  C154  A    
C156  C212  A    
C169  C170  S    
O19   Zn7   S    
C163  C164  S    
C196  H52   S    
C3    O28   A    
C119  C278  S    
O31   Zn12  S    
C252  O106  S    
C23   C56   A    
C152  C235  A    
C272  H218  S    
C173  C174  S    
C66   N8    A    
C310  C325  A    
C207  H78   S    
C209  H83   S    
C290  C307  A    
C10   C190  S    
C137  H212  S    
C35   C279  A    
C334  N3    S    
C221  H110  S    
C14   C224  S    
C336  N1    S    
C322  H247  S    
C11   O43   A    
O25   Zn1   S    
C10   O42   A    
C113  C288  A    
C213  H89   S    
C110  C271  S    
C37   C51   A    
C62   O67   S    
C9    O41   A    
C214  H94   S    
C160  H269  S    
C67   O73   S    
C321  C332  A    
C255  H188  S    
C301  C318  A    
C29   C347  A    
C135  C155  A    
C169  O78   S    
C180  H12   S    
C11   C201  S    
C178  H10   S    
C227  C228  S    
C53   N2    A    
C194  H47   S    
C277  H225  S    
C161  H273  S    
C159  C160  S    
O54   Zn4   S    
C96   C115  A    
C198  C199  S    
C248  H172  S    
C192  C193  S    
C82   H24   S    
C313  C326  A    
C172  H299  S    
C232  H134  S    
C76   H272  S    
C140  C158  A    
C58   O63   S    
C3    C327  S    
C197  H53   S    
C343  C348  A    
C165  O77   S    
C130  H146  S    
C123  C141  A    
C155  C224  A    
C32   C348  A    
C341  C349  A    
C5    O34   A    
C117  C276  S    
C313  H238  S    
C229  H128  S    
C86   C157  A    
C22   C345  A    
C26   C43   A    
C222  H114  S    
C352  O27   A    
C169  H290  S    
C28   C45   A    
C130  C148  A    
C247  H169  S    
C295  O99   S    
C85   C146  A    
C73   C91   A    
C215  H95   S    
C261  H200  S    
C78   C79   A    
O22   Zn8   S    
C231  H131  S    
C6    O35   A    
C77   C95   A    
C324  C350  S    
C350  O24   A    
C188  C189  S    
C295  C335  A    
C4    O33   A    
C145  C190  A    
C270  H216  S    
O23   Zn9   S    
C39   H254  S    
C133  H179  S    
C112  C257  S    
C88   C106  A    
C142  C179  A    
C244  H164  S    
C125  C142  A    
C312  C327  A    
C22   C40   A    
C90   C285  A    
C200  H62   S    
C232  O99   S    
C303  C340  A    
C89   O79   S    
C173  H301  S    
C238  H149  S    
O50   Zn2   S    
C282  O16   D    
C15   O53   A    
C182  O83   S    
C36   H251  S    
C176  C177  S    
C211  C213  S    
C181  H17   S    
C308  H234  S    
C14   O54   A    
C107  C267  S    
C166  C167  S    
O39   Zn2   S    
C25   C58   A    
C255  C256  S    
C259  C260  S    
C193  H43   S    
C20   C343  A    
C149  C201  A    
C65   O71   S    
O69   Zn5   S    
C172  C173  S    
C13   C279  A    
C98   C117  A    
C239  H151  S    
C243  H161  S    
O34   Zn4   S    
C257  C342  A    
C29   C62   A    
C174  H304  S    
C62   N6    A    
C187  H32   S    
C316  H242  S    
C173  H300  S    
C7    O37   A    
C175  H4    S    
C18   C343  A    
C107  C126  A    
C303  O107  S    
C122  C140  A    
C308  C324  A    
C231  H133  S    
C247  C248  S    
C214  H92   S    
C38   C50   A    
C221  O96   S    
C16   C246  S    
C300  C317  A    
C3    O30   A    
C70   H1    S    
C180  H14   S    
O36   Zn1   S    
C339  N6    S    
C218  O95   S    
C139  H230  S    
C199  H59   S    
C309  O2    A    
C194  H45   S    
C99   C118  A    
C171  H295  S    
C72   C89   A    
C289  C333  A    
C218  C219  S    
C119  C137  A    
C139  C156  A    
C177  H8    S    
O58   Zn5   S    
O56   Zn2   S    
C245  H166  S    
C143  C190  A    
C335  N2    S    
C199  C200  S    
C108  C127  A    
C80   C90   A    
C160  C161  S    
C232  H136  S    
C292  C310  A    
O49   Zn12  S    
C211  H87   S    
C302  C339  A    
C249  H173  S    
C230  H130  S    
C185  O84   S    
C146  C156  A    
C251  H180  S    
C228  H123  S    
C30   C348  A    
C183  H21   S    
C111  C272  S    
O18   Zn7   S    
C75   H261  S    
C164  H279  S    
C305  O109  S    
C81   C101  A    
C158  C246  A    
C345  C346  A    
C16   O52   A    
C61   N5    A    
C238  H147  S    
C205  O90   S    
C59   N3    A    
