data_mof_unit_44859.cif
_audit_creation_date              2013-03-05T16:08:13-0500
_audit_creation_method            fapswitch 2.2
_symmetry_space_group_name_H-M    P1
_symmetry_Int_Tables_number       1
_space_group_crystal_system       triclinic
_cell_length_a                    6.943477
_cell_length_b                    14.59117
_cell_length_c                    16.002383
_cell_angle_alpha                 90.031711
_cell_angle_beta                  90.160236
_cell_angle_gamma                 90.014556
_cell_volume                      1621.25004135

loop_
_atom_site_label
_atom_site_type_symbol
_atom_site_description
_atom_site_fract_x
_atom_site_fract_y
_atom_site_fract_z
_atom_type_partial_charge
O1    O     O_R   0.505720 0.583900 0.413310 -0.606212
O2    O     O_R   0.175940 0.594920 0.586080 -0.561545
O3    O     O_R   0.005640 0.416100 0.586690 -0.587072
C1    C     C_R   0.345169 0.618625 0.613440 1.027326
O4    O     O_R   0.176000 0.594930 0.413930 -0.597422
O5    O     O_R   0.005700 0.416110 0.413310 -0.573985
C2    C     C_R   0.344614 0.616989 0.385178 0.999021
O6    O     O_R   0.505660 0.583890 0.586690 -0.607631
O7    O     O_3   0.339200 0.441330 0.500000 -0.237155
V1    V     V_3+5 0.064350 0.510880 0.500000 1.236762
O8    O     O_R   0.675980 0.405080 0.413920 -0.583871
C3    C     C_R   0.845403 0.381097 0.386790 1.028577
O9    O     O_R   0.675920 0.405070 0.586070 -0.593864
C4    C     C_R   0.845117 0.384168 0.615630 0.927886
V2    V     V_3+5 0.564340 0.489120 0.500000 1.218870
O10   O     O_3   0.839360 0.558670 0.500000 -0.275669
C5    C     C_R   0.997290 0.430955 0.780673 -0.423532
C6    C     C_R   0.068332 0.456572 0.859786 0.218355
C7    C     C_R   0.070124 0.391617 0.924155 0.781386
C8    C     C_R   0.005840 0.302912 0.909540 -0.351897
C9    C     C_R   0.939736 0.275150 0.829848 0.030241
C10   C     C_R   0.932055 0.340703 0.764196 0.089394
C11   C     C_R   0.878411 0.183882 0.815763 -0.192052
C12   C     C_R   0.806989 0.158049 0.736008 0.123656
C13   C     C_R   0.796315 0.223777 0.670343 0.013557
C14   C     C_R   0.857230 0.315453 0.684419 -0.184328
C15   C     C_R   0.749436 0.066655 0.719521 -0.295324
C16   C     C_R   0.681935 0.040892 0.640890 -0.271177
C17   C     C_R   0.672230 0.104835 0.576689 0.922972
C18   C     C_R   0.729546 0.195096 0.590773 -0.308955
H1    H     H_    0.994463 0.482296 0.732099 0.189632
H2    H     H_    0.007426 0.256612 0.962264 0.171703
H3    H     H_    0.757520 0.013773 0.766743 0.145708
H4    H     H_    0.638551 0.970659 0.629632 0.171770
H5    H     H_    0.723048 0.241517 0.538200 0.158649
C19   C     C_R   0.761444 0.260467 0.180130 -0.006585
C20   C     C_R   0.883900 0.184566 0.183451 -0.500098
C21   C     C_R   0.008006 0.177148 0.253098 0.753839
C22   C     C_R   0.994737 0.239245 0.321045 0.159666
C23   C     C_R   0.859484 0.312525 0.318646 -0.388497
C24   C     C_R   0.750629 0.323037 0.245418 0.077461
C25   C     C_3   0.539054 0.336271 0.233150 -0.545965
C26   C     C_3   0.551240 0.267292 0.161962 0.708078
H6    H     H_    0.503638 0.406951 0.212248 0.235456
H7    H     H_    0.453311 0.311059 0.286808 0.212138
H8    H     H_    0.470441 0.202604 0.172898 0.066358
C27   C     C_R   0.491890 0.679539 0.745451 0.025415
C28   C     C_R   0.353905 0.686895 0.681860 -0.352556
C29   C     C_R   0.214046 0.756814 0.690190 0.784131
C30   C     C_R   0.223908 0.820021 0.756995 -0.229863
H9    H     H_    0.117966 0.874374 0.760272 0.145679
C31   C     C_R   0.375421 0.816312 0.815965 -0.336110
C32   C     C_R   0.502888 0.742612 0.810213 0.116631
C33   C     C_3   0.717063 0.739107 0.812135 0.746171
C34   C     C_3   0.704973 0.669057 0.741629 -0.553608
H10   H     H_    0.787094 0.804860 0.794724 -0.021177
H11   H     H_    0.749804 0.598974 0.760240 0.237306
H12   H     H_    0.765320 0.693891 0.681608 0.223791
C35   C     C_R   0.494925 0.754402 0.315905 0.151350
C36   C     C_R   0.351724 0.686838 0.318181 -0.261598
C37   C     C_R   0.208586 0.690040 0.255546 -0.294272
H13   H     H_    0.092469 0.640502 0.255654 0.163087
C38   C     C_R   0.221822 0.752661 0.188553 0.834069
C39   C     C_R   0.376497 0.815489 0.183735 -0.450076
C40   C     C_R   0.505488 0.817762 0.251136 0.100704
C41   C     C_3   0.720855 0.817027 0.252712 0.148955
C42   C     C_3   0.708608 0.747636 0.323863 -0.544360
H14   H     H_    0.785418 0.790016 0.194366 0.154487
H15   H     H_    0.760662 0.773821 0.385170 0.242366
H16   H     H_    0.763446 0.678695 0.306439 0.187807
O11   O     O_R   0.229140 0.916090 0.913340 -0.584537
O12   O     O_R   0.558860 0.905090 0.086080 -0.600102
O13   O     O_R   0.729100 0.083920 0.086690 -0.600587
C43   C     C_R   0.389799 0.882458 0.114399 1.105375
O14   O     O_R   0.558860 0.905090 0.913930 -0.615525
O15   O     O_R   0.729100 0.083920 0.913310 -0.598242
C44   C     C_R   0.389658 0.884291 0.884252 1.006855
O16   O     O_R   0.229140 0.916080 0.086720 -0.540487
O17   O     O_3   0.395570 0.058660 0.000020 -0.279670
V3    V     V_3+5 0.670450 0.989140 0.000000 1.258699
O18   O     O_R   0.058810 0.094980 0.913910 -0.608144
C45   C     C_R   0.889765 0.115483 0.884365 0.907696
O19   O     O_R   0.058810 0.094980 0.086060 -0.575383
C46   C     C_R   0.890321 0.116643 0.114984 1.111014
V4    V     V_3+5 0.170450 0.010950 0.999970 1.276905
O20   O     O_3   0.895460 0.941370 0.999990 -0.245682
F1    F     F_    0.608760 0.079104 0.499949 -0.618546
N1    N     N_R   0.102790 0.220258 0.395476 0.251427
O21   O     O_R   0.248586 0.271544 0.415834 -0.373046
O22   O     O_R   0.078499 0.142527 0.433804 -0.278324
F2    F     F_    0.517242 0.306927 0.084758 -0.632023
F3    F     F_    0.074623 0.767509 0.631447 -0.713776
F4    F     F_    0.783025 0.701653 0.886294 -0.596680
F5    F     F_    0.091343 0.747170 0.125466 -0.667395
N2    N     N_R   0.804268 0.904410 0.279523 0.273133
O23   O     O_R   0.986494 0.908636 0.298138 -0.317124
O24   O     O_R   0.702886 0.979460 0.278656 -0.328977
N3    N     N_R   0.136264 0.548518 0.874324 0.277926
O25   O     O_R   0.230804 0.569569 0.941996 -0.247581
O26   O     O_R   0.106039 0.612169 0.819176 -0.408044
F6    F     F_    0.131361 0.413765 0.002225 -0.608642
F7    F     F_    0.134178 0.106163 0.257798 -0.624473

loop_
_geom_bond_atom_site_label_1
_geom_bond_atom_site_label_2
_geom_bond_distance
_ccdc_geom_bond_type
C41   H14   1.109086 S    
C11   C45   1.485991 S    
N2    O23   1.300506 A    
C24   C25   1.494175 S    
C7    C8    1.388505 A    
C12   C15   1.416471 A    
O11   C44   1.295029 A    
C1    O6    1.297935 A    
O18   C45   1.299222 A    
C32   C33   1.488244 S    
C15   H3    1.081660 S    
C38   F5    1.356894 S    
C17   C18   1.393777 A    
C18   H5    1.081210 S    
C16   C17   1.389685 A    
O5    C3    1.294890 A    
C21   C22   1.418187 A    
V2    O10   2.162271 S    
C1    C28   1.480920 S    
C6    C7    1.400153 A    
C37   C38   1.412164 A    
C33   F4    1.383667 S    
V3    O20   1.710944 S    
C35   C42   1.492099 S    
O11   V4    2.001240 S    
O8    V2    2.001652 S    
C27   C28   1.399897 A    
C30   C31   1.412341 A    
C11   C12   1.418700 A    
C20   C46   1.477751 S    
O1    V2    2.000482 S    
O7    V1    2.161685 S    
O13   C46   1.297216 A    
C27   C32   1.387551 A    
C41   C42   1.526595 S    
C16   H4    1.082917 S    
C35   C36   1.400569 A    
O9    C4    1.301615 A    
C19   C24   1.389279 A    
C25   H6    1.111760 S    
C22   N1    1.433098 S    
C30   H9    1.083187 S    
C9    C11   1.415771 A    
C33   H10   1.111477 S    
C12   C13   1.424840 A    
O12   C43   1.302047 A    
O15   C45   1.293840 A    
C22   C23   1.423741 A    
O4    C2    1.299607 A    
C13   C14   1.420489 A    
V4    O20   2.162294 S    
C26   F2    1.384104 S    
C38   C39   1.414143 A    
C36   C37   1.410347 A    
C42   H15   1.112038 S    
C25   H7    1.109116 S    
C3    C23   1.482978 S    
O2    C1    1.299536 A    
C20   C21   1.411110 A    
O19   C46   1.298405 A    
C8    C9    1.413190 A    
C5    C6    1.407720 A    
C4    C14   1.491581 S    
O14   C44   1.301712 A    
O3    C4    1.294883 A    
O16   V4    2.002156 S    
C23   C24   1.401170 A    
O19   V4    2.001672 S    
N1    O22   1.300873 A    
N3    O25   1.301353 A    
O6    V2    2.000984 S    
N3    O26   1.298222 A    
C34   H11   1.109629 S    
C10   C14   1.425174 A    
C5    H1    1.079972 S    
C25   C26   1.522240 S    
C29   F3    1.356587 S    
C31   C44   1.478484 S    
O2    V1    1.998289 S    
C2    C36   1.480571 S    
O17   V4    1.710961 S    
C31   C32   1.396083 A    
C27   C34   1.488883 S    
C8    H2    1.081187 S    
C13   C18   1.416831 A    
C33   C34   1.524095 S    
C19   C20   1.397351 A    
O1    C2    1.297998 A    
O15   V3    2.001961 S    
O5    V1    1.999219 S    
O8    C3    1.302964 A    
N2    O24   1.302017 A    
C5    C10   1.416868 A    
C42   H16   1.111357 S    
C39   C40   1.400400 A    
O9    V2    1.999419 S    
O7    V2    1.711566 S    
O4    V1    2.002350 S    
O12   V3    2.002297 S    
O3    V1    2.002046 S    
V1    O10   1.710937 S    
C35   C40   1.391323 A    
C7    F6    1.357395 S    
C28   C29   1.415170 A    
O13   V3    1.999320 S    
C40   C41   1.495579 S    
C37   H13   1.082699 S    
C26   H8    1.112079 S    
C17   F1    1.356311 S    
O17   V3    2.161664 S    
O14   V3    1.998268 S    
N1    O21   1.299397 A    
C21   F7    1.358718 S    
C29   C30   1.413002 A    
C43   O16   1.295768 A    
C34   H12   1.109941 S    
C15   C16   1.392977 A    
C39   C43   1.481965 S    
C19   C26   1.490786 S    
C6    N3    1.440563 S    
C9    C10   1.422065 A    
O18   V4    1.999290 S    
C41   N2    1.463839 S    
