data_mof_unit_60363.cif
_audit_creation_date              2012-12-10T19:42:51-0500
_audit_creation_method            fapswitch 2.2
_symmetry_space_group_name_H-M    P1
_symmetry_Int_Tables_number       1
_space_group_crystal_system       triclinic
_cell_length_a                    30.607726
_cell_length_b                    30.60038
_cell_length_c                    22.135296
_cell_angle_alpha                 90.08292
_cell_angle_beta                  46.431394
_cell_angle_gamma                 89.994558
_cell_volume                      15021.399621

loop_
_atom_site_label
_atom_site_type_symbol
_atom_type_description
_atom_site_fract_x
_atom_site_fract_y
_atom_site_fract_z
_atom_type_partial_charge
C1    C     C_R   0.190467 0.189879 0.499073 0.876865
C2    C     C_R   0.842328 0.156473 0.499335 -0.071051
C3    C     C_R   0.939898 0.939784 0.499904 0.907557
C4    C     C_R   0.059974 0.060252 0.500274 0.882417
C5    C     C_R   0.939551 0.060122 0.500071 0.880737
C6    C     C_R   0.560163 0.560246 0.500012 0.880400
C7    C     C_R   0.439793 0.560249 0.500099 0.880604
C8    C     C_R   0.168945 0.249417 0.661034 0.890272
C9    C     C_R   0.830937 0.249441 0.338948 0.885421
C10   C     C_R   0.668947 0.749417 0.661034 0.886062
C11   C     C_R   0.330913 0.749467 0.338946 0.886472
C12   C     C_R   0.536662 0.213377 0.956471 -0.185757
C13   C     C_R   0.657631 0.656404 0.500316 -0.081235
C14   C     C_R   0.493225 0.213377 0.043372 -0.184727
C15   C     C_R   0.010185 0.712357 0.956305 -0.184084
C16   C     C_R   0.966745 0.712334 0.043203 -0.185248
C17   C     C_R   0.543703 0.250296 0.913248 0.171442
C18   C     C_R   0.456989 0.250298 0.086741 0.169714
C19   C     C_R   0.043523 0.750253 0.913257 0.169410
C20   C     C_R   0.956798 0.750206 0.086750 0.170921
C21   C     C_R   0.507497 0.287230 0.956614 -0.185468
C22   C     C_R   0.464064 0.287232 0.043519 -0.184914
C23   C     C_R   0.033584 0.788126 0.956801 -0.185706
C24   C     C_R   0.342260 0.656380 0.499908 -0.082269
C25   C     C_R   0.990143 0.788102 0.043708 -0.185587
C26   C     C_1   0.588059 0.250252 0.824333 -0.075402
C27   C     C_1   0.412434 0.250246 0.175658 -0.075064
C28   C     C_1   0.087955 0.750260 0.824339 -0.074983
C29   C     C_1   0.912310 0.750177 0.175666 -0.074957
C30   C     C_1   0.374996 0.250171 0.250327 -0.182155
C31   C     C_1   0.625299 0.250184 0.749665 -0.184062
C32   C     C_1   0.874929 0.750125 0.250333 -0.183143
C33   C     C_1   0.125250 0.750208 0.749670 -0.183527
C34   C     C_3   0.464283 0.273520 0.385782 -0.741612
C35   C     C_R   0.187945 0.119222 0.449645 -0.210296
C36   C     C_3   0.537092 0.272492 0.607659 -0.738968
C37   C     C_3   0.964401 0.773640 0.385182 -0.740784
C38   C     C_3   0.037402 0.772259 0.606300 -0.739938
C39   C     C_3   0.171879 0.360722 0.695041 -0.723391
C40   C     C_3   0.828328 0.362750 0.309522 -0.699392
C41   C     C_3   0.671916 0.860517 0.695453 -0.723160
C42   C     C_3   0.328381 0.863230 0.310410 -0.701287
C43   C     C_3   0.050625 0.144615 0.884526 -0.777130
C44   C     C_3   0.864713 0.320111 0.116093 -0.798427
C45   C     C_3   0.548841 0.644765 0.884400 -0.783366
C46   C     C_R   0.876882 0.126480 0.433318 -0.218515
C47   C     C_3   0.366037 0.821481 0.115840 -0.797958
C48   C     C_R   0.632338 0.621708 0.557036 -0.214448
C49   C     C_R   0.366889 0.621252 0.443942 -0.214492
C50   C     C_R   0.155854 0.087131 0.449423 -0.223891
C51   C     C_R   0.908573 0.093982 0.433579 -0.217088
C52   C     C_R   0.600075 0.589566 0.557218 -0.222809
C53   C     C_R   0.810345 0.189963 0.499147 0.877001
C54   C     C_R   0.399134 0.589109 0.443786 -0.223146
C55   C     C_R   0.093403 0.091749 0.501989 -0.090611
C56   C     C_R   0.904002 0.091124 0.501056 -0.108048
C57   C     C_R   0.595114 0.591728 0.498899 -0.097298
C58   C     C_R   0.404728 0.591703 0.501417 -0.096655
C59   C     C_R   0.062986 0.125528 0.560250 0.146539
C60   C     C_R   0.862368 0.117219 0.571360 0.152598
C61   C     C_R   0.627676 0.622945 0.435818 0.147057
C62   C     C_R   0.372766 0.623369 0.563939 0.146975
C63   C     C_3   0.018540 0.157363 0.577421 -0.522731
C64   C     C_R   0.689503 0.689924 0.501042 0.876519
C65   C     C_3   0.870736 0.144884 0.618403 -0.488263
C66   C     C_3   0.606561 0.653668 0.407989 -0.499562
C67   C     C_3   0.394637 0.654277 0.590541 -0.500929
C68   C     C_3   0.053716 0.192983 0.576027 -0.459837
C69   C     C_3   0.837190 0.180833 0.617128 -0.489836
C70   C     C_3   0.640049 0.689462 0.409700 -0.473631
C71   C     C_3   0.361196 0.690078 0.588746 -0.472766
C72   C     C_R   0.990382 0.212138 0.044377 -0.321943
C73   C     C_R   0.005086 0.284978 0.955564 -0.323070
C74   C     C_R   0.489681 0.711919 0.044396 -0.322130
C75   C     C_R   0.310466 0.689917 0.499028 0.877462
C76   C     C_R   0.505751 0.785269 0.955529 -0.322450
C77   C     C_R   0.954310 0.249190 0.086870 0.100838
C78   C     C_R   0.041080 0.247888 0.913091 0.097775
C79   C     C_R   0.454282 0.749241 0.086863 0.100673
C80   C     C_R   0.541071 0.747915 0.913084 0.097927
C81   C     C_R   0.330602 0.250060 0.338900 0.915668
C82   C     C_R   0.669475 0.250074 0.661095 0.916260
C83   C     C_R   0.830584 0.750046 0.338902 0.917782
C84   C     C_R   0.169462 0.750083 0.661097 0.917780
C85   C     C_R   0.960875 0.285765 0.042750 0.238605
C86   C     C_R   0.094846 0.157807 0.558921 0.108758
C87   C     C_R   0.033531 0.210933 0.957221 0.235696
C88   C     C_R   0.461533 0.786080 0.042712 0.238374
C89   C     C_R   0.532827 0.710707 0.957238 0.236371
C90   C     C_1   0.911268 0.249343 0.175859 -0.013854
C91   C     C_1   0.086376 0.248550 0.824100 -0.013919
C92   C     C_1   0.411228 0.749390 0.175854 -0.013684
C93   C     C_1   0.586387 0.748555 0.824096 -0.013267
C94   C     C_1   0.124229 0.248950 0.749510 -0.189835
C95   C     C_1   0.874800 0.249387 0.250457 -0.194685
C96   C     C_1   0.624240 0.748949 0.749508 -0.188735
C97   C     C_R   0.832004 0.149763 0.570325 0.099502
C98   C     C_1   0.374762 0.749428 0.250453 -0.194501
C99   C     C_R   0.313451 0.372114 0.566171 0.012063
C100  C     C_R   0.686862 0.372899 0.435038 0.012814
C101  C     C_R   0.813472 0.872031 0.566296 0.011943
C102  C     C_R   0.186910 0.873098 0.435305 0.013543
C103  C     C_R   0.343601 0.342170 0.500447 -0.156659
C104  C     C_R   0.656457 0.342168 0.499334 -0.158628
C105  C     C_R   0.843597 0.842171 0.500446 -0.156409
C106  C     C_R   0.156471 0.842179 0.499297 -0.159521
C107  C     C_R   0.407258 0.340484 0.439601 0.200061
C108  C     C_R   0.658118 0.655313 0.437071 0.104601
C109  C     C_R   0.592847 0.339843 0.558358 0.200256
C110  C     C_R   0.907255 0.840551 0.439444 0.199801
C111  C     C_R   0.092876 0.839710 0.557967 0.200739
C112  C     C_R   0.439386 0.372907 0.439413 -0.286853
C113  C     C_R   0.560779 0.372294 0.558509 -0.287342
C114  C     C_R   0.939391 0.872964 0.439261 -0.287044
C115  C     C_R   0.060818 0.872179 0.558137 -0.286606
C116  C     C_R   0.408164 0.405562 0.500442 -0.118440
C117  C     C_R   0.592021 0.405623 0.499207 -0.116722
C118  C     C_R   0.908178 0.905545 0.500440 -0.118150
C119  C     C_R   0.342361 0.655748 0.562612 0.106294
C120  C     C_R   0.092057 0.905667 0.499193 -0.115452
C121  C     C_R   0.345899 0.403855 0.564799 0.092029
C122  C     C_R   0.654430 0.404663 0.436365 0.090194
C123  C     C_R   0.845927 0.903767 0.564919 0.092170
C124  C     C_R   0.154485 0.904871 0.436636 0.093714
C125  C     C_3   0.301360 0.439114 0.594176 -0.532530
C126  C     C_3   0.697639 0.440231 0.410603 -0.534561
C127  C     C_3   0.801295 0.939001 0.594577 -0.533079
C128  C     C_3   0.197468 0.940498 0.411476 -0.546406
C129  C     C_R   0.309886 0.309982 0.500442 0.918160
C130  C     C_R   0.157519 0.156245 0.500544 -0.088027
C131  C     C_R   0.690071 0.309985 0.499620 0.916081
C132  C     C_R   0.809876 0.809981 0.500460 0.917802
C133  C     C_R   0.190066 0.809989 0.499626 0.916325
C134  C     C_3   0.263977 0.404126 0.598601 0.039158
C135  C     C_3   0.735054 0.405250 0.406176 0.039603
C136  C     C_3   0.763907 0.904018 0.599006 0.039345
C137  C     C_3   0.234882 0.905510 0.407053 0.043846
C138  C     C_R   0.560185 0.439830 0.499981 0.907465
C139  C     C_R   0.439891 0.439793 0.499904 0.907322
C140  C     C_R   0.060201 0.939850 0.499978 0.907605
H1    H     H_    0.487851 0.184716 0.076665 0.139912
H2    H     H_    0.511901 0.371963 0.605638 0.164547
H3    H     H_    0.340549 0.793604 0.159454 0.253278
H4    H     H_    0.988231 0.873186 0.390733 0.165113
H5    H     H_    0.011940 0.871730 0.605008 0.164429
H6    H     H_    0.281203 0.452777 0.655370 0.207610
H7    H     H_    0.718599 0.454717 0.349662 0.206779
H8    H     H_    0.781212 0.952590 0.655783 0.206905
H9    H     H_    0.218561 0.955147 0.350587 0.203883
H10   H     H_    0.319369 0.464051 0.545283 0.180636
H11   H     H_    0.678069 0.464513 0.461186 0.180922
H12   H     H_    0.819184 0.963996 0.545819 0.181323
H13   H     H_    0.564633 0.184717 0.923062 0.138766
H14   H     H_    0.177648 0.964658 0.462319 0.180929
H15   H     H_    0.257164 0.409909 0.555920 0.163324
H16   H     H_    0.740331 0.410435 0.450653 0.163351
H17   H     H_    0.756972 0.909858 0.556472 0.163575
H18   H     H_    0.239899 0.910574 0.451829 0.163321
H19   H     H_    0.512838 0.315877 0.923317 0.138186
H20   H     H_    0.436066 0.315880 0.076928 0.139976
H21   H     H_    0.059330 0.817532 0.923640 0.139816
H22   H     H_    0.982544 0.817489 0.077258 0.138350
H23   H     H_    0.236480 0.116304 0.407416 0.157773
H24   H     H_    0.940990 0.682929 0.076359 0.139750
H25   H     H_    0.881548 0.129545 0.380328 0.147028
H26   H     H_    0.635015 0.620737 0.603349 0.153921
H27   H     H_    0.363743 0.619935 0.398118 0.153592
H28   H     H_    0.179624 0.059519 0.407338 0.156084
H29   H     H_    0.937743 0.072185 0.380525 0.165177
H30   H     H_    0.578074 0.563864 0.603531 0.159353
H31   H     H_    0.420665 0.563069 0.397975 0.158853
H32   H     H_    0.020974 0.159713 0.525030 0.195798
H33   H     H_    0.845581 0.131949 0.681915 0.206299
H34   H     H_    0.626579 0.645924 0.344113 0.209344
H35   H     H_    0.017777 0.682969 0.922761 0.140923
H36   H     H_    0.374964 0.647007 0.654347 0.209855
H37   H     H_    0.972553 0.152443 0.640002 0.207899
H38   H     H_    0.918820 0.152804 0.581222 0.195596
H39   H     H_    0.556797 0.658118 0.455481 0.191745
H40   H     H_    0.444441 0.658352 0.542502 0.191698
H41   H     H_    0.076300 0.216063 0.523049 0.216397
H42   H     H_    0.792566 0.188599 0.679899 0.201329
H43   H     H_    0.679345 0.702431 0.346817 0.201725
H44   H     H_    0.322275 0.703526 0.651511 0.202134
H45   H     H_    0.028116 0.208578 0.637883 0.200578
H46   H     H_    0.984747 0.184048 0.079008 0.152790
H47   H     H_    0.865831 0.209635 0.579289 0.218782
H48   H     H_    0.609683 0.714679 0.458359 0.217270
H49   H     H_    0.391629 0.714922 0.539492 0.217002
H50   H     H_    0.470247 0.322350 0.316183 0.218896
H51   H     H_    0.500540 0.286120 0.381208 0.221033
H52   H     H_    0.483858 0.248561 0.336372 0.232861
H53   H     H_    0.428965 0.257627 0.447363 0.259093
H54   H     H_    0.528767 0.320399 0.680791 0.217746
H55   H     H_    0.501285 0.285228 0.611361 0.220801
H56   H     H_    0.517298 0.246974 0.656068 0.233253
H57   H     H_    0.011158 0.313226 0.920892 0.151966
H58   H     H_    0.573334 0.257250 0.545545 0.258002
H59   H     H_    0.970128 0.822572 0.315936 0.217879
H60   H     H_    0.000703 0.786229 0.380519 0.220916
H61   H     H_    0.983952 0.748748 0.335676 0.233533
H62   H     H_    0.929177 0.757670 0.446707 0.259046
H63   H     H_    0.028578 0.819932 0.680172 0.219153
H64   H     H_    0.001690 0.785023 0.609824 0.220821
H65   H     H_    0.017570 0.746600 0.654486 0.232881
H66   H     H_    0.073836 0.757186 0.544080 0.257964
H67   H     H_    0.213020 0.393614 0.726380 0.238281
H68   H     H_    0.483519 0.683631 0.079051 0.152972
H69   H     H_    0.127498 0.360434 0.760551 0.224149
H70   H     H_    0.194716 0.329072 0.681458 0.228050
H71   H     H_    0.164152 0.365521 0.653268 0.255021
H72   H     H_    0.788622 0.396867 0.277114 0.234118
H73   H     H_    0.873595 0.363701 0.245030 0.243911
H74   H     H_    0.806871 0.331031 0.319100 0.230309
H75   H     H_    0.833983 0.366299 0.353766 0.251096
H76   H     H_    0.713151 0.893361 0.726685 0.238003
H77   H     H_    0.627593 0.860146 0.761017 0.224100
H78   H     H_    0.694846 0.828883 0.681641 0.228006
H79   H     H_    0.512348 0.813709 0.920838 0.152101
H80   H     H_    0.664057 0.865374 0.653836 0.255312
H81   H     H_    0.288857 0.897461 0.277824 0.234033
H82   H     H_    0.373746 0.864350 0.246051 0.243712
H83   H     H_    0.307133 0.831484 0.319513 0.230944
H84   H     H_    0.333782 0.866649 0.354941 0.251039
H85   H     H_    0.077791 0.156011 0.946561 0.221800
H86   H     H_    0.005243 0.131097 0.937902 0.233435
H87   H     H_    0.082993 0.117111 0.848856 0.239163
H88   H     H_    0.049054 0.162550 0.842477 0.249946
H89   H     H_    0.945387 0.352318 0.053114 0.222985
H90   H     H_    0.488231 0.373076 0.390998 0.165184
H91   H     H_    0.868007 0.315797 0.063189 0.239973
H92   H     H_    0.838800 0.350399 0.150315 0.234351
H93   H     H_    0.839791 0.292134 0.159626 0.253354
H94   H     H_    0.576023 0.655069 0.946672 0.221879
H95   H     H_    0.503184 0.631599 0.937684 0.234606
H96   H     H_    0.580707 0.616994 0.848792 0.237416
H97   H     H_    0.547719 0.663115 0.842241 0.249527
H98   H     H_    0.447247 0.852804 0.053057 0.222774
H99   H     H_    0.369363 0.817516 0.062853 0.240354
H100  H     H_    0.340677 0.851950 0.149912 0.234149
N1    N     N_2   0.438742 0.308699 0.374780 -0.300102
N2    N     N_2   0.924295 0.323635 0.085469 -0.310433
N3    N     N_2   0.568689 0.672556 0.914513 -0.299896
N4    N     N_2   0.425619 0.824215 0.085396 -0.310416
N5    N     N_2   0.561164 0.307365 0.621681 -0.298953
N6    N     N_2   0.938715 0.808848 0.374480 -0.300724
N7    N     N_2   0.061161 0.807058 0.620959 -0.298102
N8    N     N_2   0.208501 0.395439 0.684321 -0.295059
N9    N     N_2   0.791666 0.397653 0.320745 -0.299040
N10   N     N_2   0.708522 0.895241 0.684745 -0.295346
N11   N     N_2   0.291676 0.898117 0.321685 -0.300154
N12   N     N_2   0.070071 0.173053 0.914470 -0.300361
O1    O     O_R   0.178350 0.230070 0.500010 -0.623441
O2    O     O_R   0.919740 0.045800 0.568860 -0.623027
O3    O     O_R   0.580260 0.545800 0.431140 -0.621425
O4    O     O_R   0.419740 0.545800 0.568860 -0.621049
O5    O     O_R   0.011410 0.045760 0.568860 -0.621823
O6    O     O_R   0.988590 0.045760 0.431140 -0.625001
O7    O     O_R   0.511410 0.545760 0.568860 -0.625045
O8    O     O_R   0.488590 0.545760 0.431140 -0.625092
O9    O     O_R   0.230030 0.178320 0.500020 -0.623789
O10   O     O_R   0.769970 0.178320 0.499980 -0.621894
O11   O     O_R   0.730030 0.678320 0.500020 -0.622741
O12   O     O_R   0.821650 0.230070 0.499990 -0.622494
O13   O     O_R   0.269970 0.678320 0.499980 -0.623084
O14   O     O_R   0.285150 0.275890 0.378020 -0.617211
O15   O     O_R   0.714850 0.275890 0.621980 -0.618251
O16   O     O_R   0.785150 0.775890 0.378020 -0.618131
O17   O     O_R   0.214850 0.775890 0.621980 -0.618649
O18   O     O_R   0.336840 0.224130 0.378040 -0.613162
O19   O     O_R   0.663160 0.224130 0.621960 -0.608703
O20   O     O_R   0.836840 0.724130 0.378040 -0.608927
O21   O     O_R   0.163160 0.724130 0.621960 -0.609098
O22   O     O_R   0.269970 0.321680 0.499990 -0.637985
O23   O     O_R   0.678350 0.730070 0.500010 -0.623374
O24   O     O_R   0.730030 0.321680 0.500010 -0.639150
O25   O     O_R   0.769970 0.821680 0.499990 -0.637916
O26   O     O_R   0.230030 0.821680 0.500010 -0.639046
O27   O     O_R   0.321650 0.269930 0.500010 -0.605995
O28   O     O_R   0.678350 0.269930 0.499990 -0.604682
O29   O     O_R   0.821650 0.769930 0.500010 -0.606163
O30   O     O_R   0.178350 0.769930 0.499990 -0.604396
O31   O     O_R   0.163160 0.275870 0.621980 -0.626401
O32   O     O_R   0.836840 0.275870 0.378020 -0.621115
O33   O     O_R   0.663160 0.775870 0.621980 -0.624849
O34   O     O_R   0.321650 0.730070 0.499990 -0.623066
O35   O     O_R   0.336840 0.775870 0.378020 -0.621392
O36   O     O_R   0.214850 0.224110 0.621990 -0.609065
O37   O     O_R   0.785150 0.224110 0.378010 -0.619068
O38   O     O_R   0.714850 0.724110 0.621990 -0.612629
O39   O     O_R   0.285150 0.724110 0.378010 -0.619324
O40   O     O_R   0.580260 0.454160 0.431100 -0.621177
O41   O     O_R   0.419740 0.454160 0.568900 -0.620758
O42   O     O_R   0.080260 0.954160 0.431100 -0.623080
O43   O     O_R   0.919740 0.954160 0.568900 -0.621403
O44   O     O_R   0.511410 0.454120 0.568820 -0.630474
O45   O     O_R   0.488590 0.454120 0.431180 -0.630764
O46   O     O_R   0.011410 0.954120 0.568820 -0.628021
O47   O     O_R   0.988590 0.954120 0.431180 -0.630583
O48   O     O_R   0.080260 0.045800 0.431140 -0.622792
Zn1   Zn    Zn3+2 0.215490 0.284560 0.500000 0.936075
Zn2   Zn    Zn3+2 0.954010 0.000000 0.591950 0.946071
Zn3   Zn    Zn3+2 0.545990 0.500000 0.408050 0.944691
Zn4   Zn    Zn3+2 0.454010 0.500000 0.591950 0.945894
Zn5   Zn    Zn3+2 0.784510 0.284560 0.500000 0.938482
Zn6   Zn    Zn3+2 0.715490 0.784560 0.500000 0.937214
Zn7   Zn    Zn3+2 0.284510 0.784560 0.500000 0.936535
Zn8   Zn    Zn3+2 0.284510 0.215440 0.500020 0.959915
Zn9   Zn    Zn3+2 0.715490 0.215440 0.499980 0.958516
Zn10  Zn    Zn3+2 0.784510 0.715440 0.500020 0.961232
Zn11  Zn    Zn3+2 0.215490 0.715440 0.499980 0.956970
Zn12  Zn    Zn3+2 0.045990 0.000000 0.408050 0.944894

loop_
_geom_bond_atom_site_label_1
_geom_bond_atom_site_label_2
_ccdc_geom_bond_type
C99   C103  A    
C105  C110  A    
C55   C59   A    
C107  C112  A    
O1    Zn1   S    
C41   H78   S    
C90   C95   T    
C53   O12   A    
C137  H18   S    
C11   C98   S    
C125  H6    S    
C65   H38   S    
C47   H3    S    
C100  C104  A    
C85   N2    S    
C113  H2    S    
C39   H69   S    
O46   Zn2   S    
C106  C133  S    
C89   N3    S    
O9    Zn8   S    
C82   O15   A    
C45   N3    S    
C100  C135  S    
C128  H14   S    
C99   C121  A    
O31   Zn1   S    
C132  O29   A    
C38   H64   S    
C21   C22   A    
C21   H19   S    
C10   O33   A    
C136  N10   S    
C129  O22   A    
C134  N8    S    
O25   Zn6   S    
O33   Zn6   S    
C116  C121  A    
O29   Zn10  S    
C51   H29   S    
C127  C136  S    
C52   H30   S    
C8    O31   A    
O28   Zn9   S    
C17   C21   A    
C6    O7    A    
C19   C23   A    
C3    C118  S    
O48   Zn12  S    
C134  H15   S    
C67   H36   S    
C16   C20   A    
O41   Zn4   S    
C3    O47   A    
C62   C119  A    
O43   Zn2   S    
C28   C33   T    
C74   C79   A    
C41   H80   S    
C75   O13   A    
C32   C83   S    
C2    C53   S    
C126  H7    S    
C57   C61   A    
C66   H39   S    
C59   C63   S    
C71   C119  S    
C34   H52   S    
C11   O35   A    
C91   C94   T    
H89   N2    S    
O23   Zn6   S    
C63   H32   S    
C66   C70   S    
C75   O34   A    
C81   O18   A    
C6    O3    A    
O3    Zn3   S    
C83   O20   A    
C45   H97   S    
O4    Zn4   S    
C39   N8    S    
C8    O36   A    
C48   C52   A    
H50   N1    S    
C40   H74   S    
C107  N1    S    
C103  C107  A    
C4    O48   A    
C80   C93   S    
O12   Zn5   S    
O26   Zn7   S    
C78   C87   A    
O34   Zn7   S    
C46   H25   S    
C7    O4    A    
C45   H96   S    
O30   Zn11  S    
C64   O11   A    
C44   N2    S    
C10   O38   A    
C16   H24   S    
C84   O17   A    
C67   H40   S    
C47   N4    S    
C76   H79   S    
O32   Zn5   S    
O36   Zn8   S    
O17   Zn7   S    
O18   Zn8   S    
C104  C131  S    
C37   H62   S    
C120  C140  S    
O21   Zn11  S    
C67   C71   S    
O2    Zn2   S    
C70   H48   S    
C77   C85   A    
C34   N1    S    
C36   N5    S    
C35   C50   A    
C13   C108  A    
C42   H84   S    
C106  C111  A    
C64   O23   A    
O37   Zn9   S    
O39   Zn11  S    
C125  H10   S    
C86   C130  A    
C46   C51   A    
C135  H16   S    
C99   C134  S    
C82   O19   A    
C102  C137  S    
C12   C17   A    
C117  C122  A    
C36   H56   S    
C121  C125  S    
C60   C65   S    
C123  C127  S    
C48   H26   S    
C19   C28   S    
C35   C130  A    
C73   C85   A    
C113  C117  A    
C50   H28   S    
C47   H99   S    
C112  C116  A    
C72   C87   A    
C43   H88   S    
O44   Zn4   S    
C9    C95   S    
C63   C68   S    
C18   C22   A    
C66   H34   S    
C76   C80   A    
C41   H77   S    
C3    O43   A    
C131  O24   A    
C70   C108  S    
C44   H93   S    
C22   H20   S    
O47   Zn12  S    
H63   N7    S    
C111  N7    S    
C42   H82   S    
C69   C97   S    
C125  C134  S    
C58   C62   A    
C4    O5    A    
C38   H65   S    
C5    C56   S    
C117  C138  S    
C15   C19   A    
C31   C82   S    
C83   O16   A    
C44   H91   S    
C36   H58   S    
C29   C32   T    
O5    Zn2   S    
C20   C25   A    
C133  O30   A    
O7    Zn4   S    
C112  H90   S    
O40   Zn3   S    
C37   H60   S    
C80   C89   A    
C138  O40   A    
H59   N6    S    
C2    C97   A    
C41   N10   S    
C43   H86   S    
C127  H8    S    
C124  C128  S    
C116  C139  S    
C11   O39   A    
C84   O21   A    
C6    C57   S    
C7    O8    A    
C135  N9    S    
C102  C124  A    
C79   C88   A    
C1    O1    A    
C105  C132  S    
C77   C90   S    
C68   H41   S    
C8    C94   S    
C60   C97   A    
C37   N6    S    
C56   C60   A    
C9    O32   A    
C35   H23   S    
O24   Zn5   S    
O15   Zn5   S    
O45   Zn3   S    
C71   H49   S    
C103  C129  S    
C72   H46   S    
C34   H53   S    
C126  C135  S    
C1    C130  S    
H85   N12   S    
C4    C55   S    
O22   Zn1   S    
C24   C119  A    
C71   H44   S    
C45   H95   S    
O35   Zn7   S    
C88   N4    S    
O16   Zn6   S    
C24   C75   S    
C49   H27   S    
C115  H5    S    
C30   C81   S    
O27   Zn8   S    
C13   C64   S    
C65   C69   S    
O13   Zn11  S    
C118  C123  A    
C33   C84   S    
O20   Zn10  S    
C59   C86   A    
C25   H22   S    
C52   C57   A    
C133  O26   A    
C128  H9    S    
O42   Zn12  S    
C39   H70   S    
H76   N10   S    
C37   H61   S    
C15   C16   A    
C114  H4    S    
O8    Zn3   S    
C68   C86   S    
C14   C18   A    
C12   H13   S    
H67   N8    S    
C92   C98   T    
C74   H68   S    
C2    C46   A    
C132  O25   A    
C101  C123  A    
C62   C67   S    
C17   C26   S    
O19   Zn9   S    
C74   C89   A    
C34   H51   S    
C139  O45   A    
C140  O42   A    
C104  C109  A    
C49   C54   A    
H98   N4    S    
C51   C56   A    
C61   C108  A    
C43   N12   S    
H81   N11   S    
H54   N5    S    
C73   H57   S    
C40   H73   S    
C73   C78   A    
C129  O27   A    
C76   C88   A    
C7    C58   S    
C109  C113  A    
H94   N3    S    
C110  N6    S    
C14   H1    S    
C26   C31   T    
C27   C30   T    
C61   C66   S    
C137  N11   S    
C43   H87   S    
C20   C29   S    
C101  C105  A    
C87   N12   S    
C138  O44   A    
C139  O41   A    
C140  O46   A    
C53   O10   A    
C5    O2    A    
C122  C126  S    
C128  C137  S    
C72   C77   A    
C127  H12   S    
C126  H11   S    
C10   C96   S    
C69   H47   S    
O14   Zn1   S    
C131  O28   A    
C39   H71   S    
C79   C92   S    
C114  C118  A    
C1    O9    A    
C136  H17   S    
C12   C14   A    
C68   H45   S    
C93   C96   T    
C81   O14   A    
O10   Zn9   S    
C42   H83   S    
C54   C58   A    
C101  C136  S    
C24   C49   A    
C110  C114  A    
C38   H66   S    
C65   H33   S    
C54   H31   S    
C18   C27   S    
C42   N11   S    
C13   C48   A    
O38   Zn10  S    
C78   C91   S    
C69   H42   S    
C50   C55   A    
C63   H37   S    
C15   H35   S    
C44   H92   S    
C36   H55   S    
O6    Zn12  S    
C9    O37   A    
C40   N9    S    
C38   N7    S    
C40   H75   S    
C5    O6    A    
C102  C106  A    
C100  C122  A    
C23   C25   A    
C109  N5    S    
C47   H100  S    
C70   H43   S    
C115  C120  A    
C111  C115  A    
O11   Zn10  S    
H72   N9    S    
C120  C124  A    
C23   H21   S    
