data_mof_unit_27374.cif
_audit_creation_date              2012-10-26T20:37:33-0400
_audit_creation_method            fapswitch 2.2
_symmetry_space_group_name_H-M    P1
_symmetry_Int_Tables_number       1
_space_group_crystal_system       triclinic
_cell_length_a                    10.950471
_cell_length_b                    10.947366
_cell_length_c                    9.685679
_cell_angle_alpha                 89.487817
_cell_angle_beta                  102.36562
_cell_angle_gamma                 90.586945
_cell_volume                      1134.08456292

loop_
_atom_site_label
_atom_site_type_symbol
_atom_type_description
_atom_site_fract_x
_atom_site_fract_y
_atom_site_fract_z
_atom_type_partial_charge
C1    C     C_R   0.494381 0.264993 0.498293 0.576137
C2    C     C_2   0.123493 0.487239 0.414067 0.240989
C3    C     C_2   0.070317 0.445111 0.518605 -0.112548
C4    C     C_2   0.874308 0.486739 0.586248 -0.108659
C5    C     C_2   0.934616 0.429993 0.497575 0.002907
C6    C     C_2   0.482612 0.931591 0.384723 -0.162458
C7    C     C_3   0.869126 0.348097 0.379016 -0.326999
C8    C     C_3   0.072126 0.483248 0.169284 -0.007388
C9    C     C_3   0.957034 0.495469 0.049794 -0.377463
C10   C     C_3   0.639360 0.067693 0.236953 -0.010247
C11   C     C_3   0.677162 0.140271 0.117772 -0.376505
C12   C     C_2   0.518319 0.865550 0.502734 -0.165732
C13   C     C_3   0.387655 0.085914 0.588396 -0.435155
C14   C     C_3   0.296667 0.248229 0.874477 -0.040616
C15   C     C_3   0.178200 0.286075 0.921261 -0.413479
C16   C     C_2   0.499617 0.065194 0.386300 0.245238
C17   C     C_2   0.467935 0.133582 0.490074 -0.000225
C18   C     C_2   0.432254 0.421811 0.904301 0.377590
C19   C     C_2   0.443416 0.416683 0.065643 -0.040872
C20   C     C_R   0.261468 0.497939 0.442932 0.539632
C21   C     C_R   0.504185 0.734394 0.500469 0.561725
C22   C     C_R   0.737724 0.494810 0.556769 0.549642
Cu1   Cu    Cu3+1 0.500020 0.500020 0.638640 0.978392
Cu2   Cu    Cu3+1 0.499980 0.499980 0.361360 0.932245
H1    H     H_    0.566993 0.549253 0.910987 0.158217
H2    H     H_    0.815027 0.403468 0.290971 0.179292
H3    H     H_    0.095246 0.384266 0.183787 0.113495
H4    H     H_    0.149735 0.534043 0.136651 0.168498
H5    H     H_    0.929135 0.592792 0.035016 0.165378
H6    H     H_    0.977713 0.461592 0.949681 0.094062
H7    H     H_    0.878065 0.441065 0.073957 0.140463
H8    H     H_    0.618123 0.972729 0.198791 0.131141
H9    H     H_    0.719342 0.067369 0.329967 0.125972
H10   H     H_    0.692581 0.237699 0.147590 0.158903
H11   H     H_    0.764694 0.102829 0.095322 0.093363
H12   H     H_    0.399621 0.343263 0.112884 0.170650
H13   H     H_    0.602150 0.134393 0.020574 0.147378
H14   H     H_    0.308220 0.149254 0.581965 0.138932
H15   H     H_    0.343491 0.995844 0.558384 0.130709
H16   H     H_    0.443285 0.082173 0.698573 0.134282
H17   H     H_    0.365583 0.201771 0.959032 0.125306
H18   H     H_    0.267561 0.176672 0.794171 0.141745
H19   H     H_    0.101120 0.300364 0.827567 0.137860
H20   H     H_    0.149624 0.213462 0.988913 0.109960
H21   H     H_    0.193989 0.372367 0.980959 0.135178
H22   H     H_    0.533778 0.575171 0.112596 0.197858
H23   H     H_    0.126371 0.420054 0.621287 0.132641
H24   H     H_    0.927215 0.534046 0.678443 0.077134
H25   H     H_    0.446746 0.887624 0.283821 0.146802
H26   H     H_    0.557781 0.908802 0.603128 0.101336
H27   H     H_    0.937715 0.293738 0.336492 0.108383
H28   H     H_    0.806010 0.282806 0.418552 0.124988
N1    N     N_2   0.498650 0.498660 0.846590 -0.316035
N2    N     N_2   0.498620 0.498630 0.152710 -0.384914
O1    O     O_R   0.500020 0.321960 0.617050 -0.466205
O2    O     O_3   0.533976 0.123108 0.271397 -0.550362
O3    O     O_3   0.348664 0.347264 0.810867 -0.517750
O4    O     O_R   0.499980 0.321920 0.382890 -0.454128
O5    O     O_R   0.320700 0.500020 0.574050 -0.468709
O6    O     O_R   0.320660 0.499980 0.339890 -0.513708
O7    O     O_R   0.500020 0.678080 0.617110 -0.496465
O8    O     O_R   0.499980 0.678040 0.382950 -0.495109
O9    O     O_R   0.679340 0.500020 0.660110 -0.509173
O10   O     O_R   0.679300 0.499980 0.425950 -0.484161
O11   O     O_3   0.047033 0.535681 0.292633 -0.559361

loop_
_geom_bond_atom_site_label_1
_geom_bond_atom_site_label_2
_ccdc_geom_bond_type
C15   H20   S    
Cu2   N2    S    
C12   H26   S    
Cu1   Cu2   S    
C16   O2    S    
Cu1   O1    S    
C13   C17   S    
C20   O6    A    
C10   O2    S    
C18   O3    S    
C1    C17   S    
C9    H5    S    
Cu2   O6    S    
C2    O11   S    
H22   N2    S    
C11   H11   S    
C2    C3    D    
C1    O1    A    
C7    H27   S    
C8    O11   S    
Cu2   O10   S    
C14   H18   S    
C20   O5    A    
Cu1   O5    S    
C13   H14   S    
C7    H2    S    
C9    H6    S    
C14   H17   S    
C19   N2    D    
C3    H23   S    
C15   H19   S    
H1    N1    S    
C7    H28   S    
Cu1   N1    S    
C10   H9    S    
C5    C7    S    
C19   H12   S    
C6    H25   S    
C6    C12   D    
C8    H4    S    
Cu1   O9    S    
C13   H15   S    
C10   C11   S    
C9    H7    S    
C14   O3    S    
C6    C16   S    
C10   H8    S    
Cu1   O7    S    
C4    C22   S    
C8    C9    S    
Cu2   O4    S    
C18   C19   S    
C4    H24   S    
C21   O7    A    
C11   H13   S    
C2    C20   S    
C15   H21   S    
C14   C15   S    
C4    C5    D    
C13   H16   S    
Cu2   O8    S    
C18   N1    D    
C21   O8    A    
C8    H3    S    
C1    O4    A    
C22   O10   A    
C12   C21   S    
C11   H10   S    
C22   O9    A    
C16   C17   D    
C3    C5    S    
