data_mof_unit_5069.cif
_audit_creation_date              2012-12-10T19:46:54-0500
_audit_creation_method            fapswitch 2.2
_symmetry_space_group_name_H-M    P1
_symmetry_Int_Tables_number       1
_space_group_crystal_system       triclinic
_cell_length_a                    28.318163
_cell_length_b                    18.238778
_cell_length_c                    21.714328
_cell_angle_alpha                 90.000056
_cell_angle_beta                  139.865491
_cell_angle_gamma                 89.999902
_cell_volume                      7229.14404912

loop_
_atom_site_label
_atom_site_type_symbol
_atom_type_description
_atom_site_fract_x
_atom_site_fract_y
_atom_site_fract_z
_atom_type_partial_charge
C1    C     C_R   0.858710 0.500013 0.858690 0.969553
C2    C     C_R   0.141290 0.500013 0.141310 0.969545
C3    C     C_R   0.358710 0.000013 0.858690 0.969547
C4    C     C_R   0.641290 0.000013 0.141310 0.969544
C5    C     C_R   0.038386 0.458894 0.822724 -0.267649
C6    C     C_R   0.961620 0.458889 0.177282 -0.267654
C7    C     C_R   0.538383 0.958891 0.822721 -0.267645
C8    C     C_R   0.461627 0.958883 0.177290 -0.267677
C9    C     C_R   0.043569 0.457768 0.764786 0.359794
C10   C     C_R   0.956436 0.457763 0.235220 0.359800
C11   C     C_R   0.543566 0.957764 0.764782 0.359775
C12   C     C_R   0.456443 0.957757 0.235226 0.359875
C13   C     C_R   0.998867 0.505624 0.685830 -0.205534
C14   C     C_R   0.001133 0.505623 0.314170 -0.205519
C15   C     C_R   0.498866 0.005622 0.685830 -0.205526
C16   C     C_R   0.501133 0.005622 0.314171 -0.205487
C17   C     C_1   0.782239 0.500061 0.782027 -0.151219
C18   C     C_1   0.217761 0.500061 0.217973 -0.151169
C19   C     C_1   0.282239 0.000061 0.782027 -0.151203
C20   C     C_1   0.717761 0.000061 0.217974 -0.151018
C21   C     C_1   0.717435 0.500076 0.717190 -0.151765
C22   C     C_1   0.282565 0.500076 0.282811 -0.151786
C23   C     C_1   0.217435 0.000076 0.717190 -0.151782
C24   C     C_1   0.782565 0.000076 0.282811 -0.151830
C25   C     C_R   1.000000 0.641279 0.500000 0.879829
C26   C     C_R   0.000000 0.358722 0.500000 1.011666
C27   C     C_R   0.500000 0.141279 0.500000 0.879822
C28   C     C_R   0.500000 0.858722 0.500000 1.011722
C29   C     C_R   0.999919 0.501066 0.620414 0.914566
C30   C     C_R   0.000081 0.501066 0.379586 0.914589
C31   C     C_R   0.499919 0.001066 0.620413 0.914554
C32   C     C_R   0.500081 0.001065 0.379587 0.914674
C33   C     C_R   0.500000 0.640931 0.500000 0.930637
C34   C     C_R   0.500000 0.359067 0.500000 0.905009
C35   C     C_R   1.000000 0.140931 0.500000 0.930646
C36   C     C_R   1.000000 0.859067 0.500000 0.905039
C37   C     C_R   0.640943 0.500062 0.640866 0.921971
C38   C     C_R   0.359057 0.500062 0.359134 0.921947
C39   C     C_R   0.140943 0.000063 0.640866 0.921980
C40   C     C_R   0.859057 0.000063 0.359134 0.921906
C41   C     C_1   1.000000 0.717754 0.500000 -0.168623
C42   C     C_1   0.000000 0.282230 0.500000 -0.092609
C43   C     C_1   0.500000 0.217754 0.500000 -0.168623
C44   C     C_1   0.500000 0.782230 0.500000 -0.092610
C45   C     C_R   0.991512 0.500728 0.871840 0.982230
C46   C     C_R   0.008488 0.500728 0.128160 0.982217
C47   C     C_R   0.491513 0.000728 0.871841 0.982217
C48   C     C_R   0.508488 0.000729 0.128160 0.982202
C49   C     C_1   0.500000 0.282575 0.500000 -0.163578
C50   C     C_1   0.500000 0.717415 0.500000 -0.113486
C51   C     C_1   1.000000 0.782575 0.500000 -0.163591
C52   C     C_1   0.000000 0.217415 0.500000 -0.113475
C53   C     C_R   0.882485 0.594807 0.691507 0.329682
C54   C     C_R   0.117502 0.594822 0.308481 0.329755
C55   C     C_R   0.382491 0.094813 0.691512 0.329715
C56   C     C_R   0.617486 0.094847 0.308465 0.329939
C57   C     C_R   0.827503 0.624600 0.597865 0.325119
C58   C     C_R   0.172477 0.624630 0.402115 0.325201
C59   C     C_R   0.327514 0.124617 0.597876 0.325161
C60   C     C_R   0.672453 0.124668 0.402091 0.325391
C61   C     C_R   0.842105 0.633564 0.550242 -0.236860
C62   C     C_R   0.157876 0.633587 0.449740 -0.236893
C63   C     C_R   0.342116 0.133577 0.550253 -0.236872
C64   C     C_R   0.657853 0.133617 0.449718 -0.236991
C65   C     C_R   0.904306 0.602742 0.586675 -0.223830
C66   C     C_R   0.095682 0.602751 0.413315 -0.223847
C67   C     C_R   0.404312 0.102747 0.586680 -0.223841
C68   C     C_R   0.595668 0.102765 0.413303 -0.223865
C69   C     C_R   0.948096 0.553426 0.664633 0.010285
C70   C     C_R   0.051900 0.553430 0.335363 0.010271
C71   C     C_R   0.448098 0.053427 0.664634 0.010281
C72   C     C_R   0.551893 0.053438 0.335357 0.010248
C73   C     C_R   0.939922 0.551341 0.721314 -0.032794
C74   C     C_R   0.060073 0.551347 0.278682 -0.032857
C75   C     C_R   0.439924 0.051342 0.721315 -0.032836
C76   C     C_R   0.560066 0.051357 0.278675 -0.032967
C77   C     C_R   0.988074 0.503795 0.802462 -0.144030
C78   C     C_R   0.011926 0.503795 0.197539 -0.144020
C79   C     C_R   0.488074 0.003794 0.802461 -0.144020
C80   C     C_R   0.511926 0.003797 0.197540 -0.144008
H1    H     H_    0.074350 0.423874 0.885305 0.206604
H2    H     H_    0.925658 0.423865 0.114704 0.206608
H3    H     H_    0.574346 0.923869 0.885300 0.206604
H4    H     H_    0.425671 0.923854 0.114718 0.206615
H5    H     H_    0.804037 0.662887 0.482997 0.204277
H6    H     H_    0.195939 0.662919 0.516979 0.204284
H7    H     H_    0.304051 0.162906 0.483012 0.204280
H8    H     H_    0.695910 0.162956 0.516950 0.204302
H9    H     H_    0.914546 0.614695 0.548946 0.183487
H10   H     H_    0.085442 0.614700 0.451044 0.183490
H11   H     H_    0.414553 0.114698 0.548952 0.183491
H12   H     H_    0.585428 0.114707 0.451033 0.183492
O1    O     O_R   0.892670 0.439420 0.892670 -0.621285
O2    O     O_R   0.107330 0.560580 0.107330 -0.614298
O3    O     O_R   0.107330 0.439420 0.107330 -0.621292
O4    O     O_R   0.892670 0.560580 0.892670 -0.614315
O5    O     O_R   0.392670 0.939420 0.892670 -0.621287
O6    O     O_R   0.607330 0.060580 0.107330 -0.614280
O7    O     O_R   0.607330 0.939420 0.107330 -0.621307
O8    O     O_R   0.392670 0.060580 0.892670 -0.614311
O9    O     O_R   0.999990 0.439420 0.908380 -0.626227
O10   O     O_R   0.000010 0.560580 0.091620 -0.614351
O11   O     O_R   0.000010 0.439420 0.091620 -0.626230
O12   O     O_R   0.999990 0.560580 0.908380 -0.614361
O13   O     O_R   0.499990 0.939420 0.908380 -0.626231
O14   O     O_R   0.500010 0.060580 0.091620 -0.614352
O15   O     O_R   0.500010 0.939420 0.091620 -0.626228
O16   O     O_R   0.499990 0.060580 0.908380 -0.614348
O17   O     O_R   0.060590 0.607350 0.560620 -0.630497
O18   O     O_R   0.939410 0.392650 0.439380 -0.583430
O19   O     O_R   0.939410 0.607350 0.439380 -0.630499
O20   O     O_R   0.060590 0.392650 0.560620 -0.583439
O21   O     O_R   0.560590 0.107350 0.560620 -0.630497
O22   O     O_R   0.439410 0.892650 0.439380 -0.583443
O23   O     O_R   0.439410 0.107350 0.439380 -0.630501
O24   O     O_R   0.560590 0.892650 0.560620 -0.583439
O25   O     O_R   0.060610 0.500000 0.652240 -0.549188
O26   O     O_R   0.939390 0.500000 0.347760 -0.549195
O27   O     O_R   0.560610 0.000000 0.652240 -0.549194
O28   O     O_R   0.439390 0.000000 0.347760 -0.549208
O29   O     O_R   0.939430 0.500000 0.531050 -0.637912
O30   O     O_R   0.060570 0.500000 0.468950 -0.637915
O31   O     O_R   0.439430 1.000000 0.531050 -0.637919
O32   O     O_R   0.560570 1.000000 0.468950 -0.637911
O33   O     O_R   0.500010 0.607330 0.448300 -0.594247
O34   O     O_R   0.499990 0.392670 0.551700 -0.618362
O35   O     O_R   0.499990 0.607330 0.551700 -0.594248
O36   O     O_R   0.500010 0.392670 0.448300 -0.618363
O37   O     O_R   0.000010 0.107330 0.448300 -0.594231
O38   O     O_R   0.999990 0.892670 0.551700 -0.618354
O39   O     O_R   0.999990 0.107330 0.551700 -0.594290
O40   O     O_R   0.000010 0.892670 0.448300 -0.618358
O41   O     O_R   0.607330 0.500000 0.555630 -0.607177
O42   O     O_R   0.392670 0.500000 0.444370 -0.607246
O43   O     O_R   0.107330 1.000000 0.555630 -0.607201
O44   O     O_R   0.892670 0.000000 0.444370 -0.607414
O45   O     O_R   0.607340 0.500000 0.659080 -0.612196
O46   O     O_R   0.392660 0.500000 0.340920 -0.612186
O47   O     O_R   0.107340 0.000000 0.659080 -0.612182
O48   O     O_R   0.892660 0.000000 0.340920 -0.612148
Zn1   Zn    Zn3+2 1.000000 0.419100 0.000000 1.027382
Zn2   Zn    Zn3+2 0.000000 0.580900 0.000000 0.942312
Zn3   Zn    Zn3+2 0.500000 0.919100 0.000000 1.027383
Zn4   Zn    Zn3+2 0.500000 0.080900 0.000000 0.942335
Zn5   Zn    Zn3+2 0.080920 0.500000 0.580940 1.072343
Zn6   Zn    Zn3+2 0.919080 0.500000 0.419060 1.072351
Zn7   Zn    Zn3+2 0.580920 0.000000 0.580940 1.072347
Zn8   Zn    Zn3+2 0.419080 0.000000 0.419060 1.072333
Zn9   Zn    Zn3+2 0.500000 0.500000 0.430940 1.060107
Zn10  Zn    Zn3+2 0.500000 0.500000 0.569060 1.060057
Zn11  Zn    Zn3+2 0.000000 1.000000 0.430940 1.060098
Zn12  Zn    Zn3+2 0.000000 1.000000 0.569060 1.059909
O49   O     O_3   0.877558 0.604019 0.749943 -0.628384
C81   C     C_3   0.880000 0.679833 0.768833 0.203583
H13   H     H_    0.857796 0.685210 0.794091 0.178111
H14   H     H_    0.844484 0.714768 0.704392 0.180567
C82   C     C_3   0.958061 0.711587 0.846237 -0.417550
H15   H     H_    0.989109 0.690671 0.917442 0.245246
H16   H     H_    0.987020 0.695554 0.832165 0.239257
C83   C     C_3   0.956977 0.795114 0.849527 -0.922589
H17   H     H_    0.928757 0.819001 0.780744 0.282992
H18   H     H_    0.014032 0.816191 0.907662 0.282302
H19   H     H_    0.928392 0.812736 0.863706 0.268699
O50   O     O_3   0.122424 0.604038 0.250041 -0.628311
C84   C     C_3   0.119946 0.679852 0.231117 0.203595
H20   H     H_    0.142076 0.685231 0.205762 0.178058
H21   H     H_    0.155509 0.714785 0.295563 0.180653
C85   C     C_3   0.041883 0.711603 0.153795 -0.417718
H22   H     H_    0.010777 0.690693 0.082562 0.245257
H23   H     H_    0.012984 0.695563 0.167953 0.239237
C86   C     C_3   0.042959 0.795130 0.150505 -0.922459
H24   H     H_    0.071240 0.819010 0.219322 0.282994
H25   H     H_    0.985901 0.816206 0.092433 0.282325
H26   H     H_    0.071478 0.812760 0.136232 0.268671
O51   O     O_3   0.377568 0.104027 0.749952 -0.628356
C87   C     C_3   0.380039 0.179841 0.768869 0.203567
H27   H     H_    0.357912 0.185218 0.794228 0.178054
H28   H     H_    0.344470 0.214771 0.704418 0.180660
C88   C     C_3   0.458098 0.211601 0.846184 -0.417689
H29   H     H_    0.489209 0.190694 0.917420 0.245259
H30   H     H_    0.486996 0.195564 0.832024 0.239235
C89   C     C_3   0.457014 0.295128 0.849464 -0.922476
H31   H     H_    0.428727 0.319005 0.780643 0.282995
H32   H     H_    0.514069 0.316211 0.907531 0.282323
H33   H     H_    0.428496 0.312756 0.863739 0.268672
O52   O     O_3   0.622405 0.104066 0.250022 -0.628133
C90   C     C_3   0.619897 0.179880 0.231071 0.203706
H34   H     H_    0.642008 0.185266 0.205689 0.178039
H35   H     H_    0.655463 0.214821 0.295511 0.180665
C91   C     C_3   0.541825 0.211612 0.153760 -0.417863
H36   H     H_    0.510712 0.190703 0.082523 0.245265
H37   H     H_    0.512941 0.195555 0.167937 0.239236
C92   C     C_3   0.542877 0.295140 0.150461 -0.922404
H38   H     H_    0.571161 0.319019 0.219280 0.282996
H39   H     H_    0.485814 0.316202 0.092394 0.282333
H40   H     H_    0.571382 0.312789 0.136172 0.268664
S1    S     S_3+6 0.738240 0.646511 0.535278 0.031360
O53   O     O_2   0.728190 0.728280 0.524126 -0.278262
O54   O     O_2   0.682733 0.612626 0.437449 -0.272645
O55   O     O_3   0.723871 0.615490 0.592888 -0.519354
H41   H     H_    0.725673 0.561377 0.591106 0.366033
S2    S     S_3+6 0.261734 0.646564 0.464693 0.031340
O56   O     O_2   0.271766 0.728335 0.475835 -0.278254
O57   O     O_2   0.317251 0.612686 0.562527 -0.272697
O58   O     O_3   0.276104 0.615556 0.407081 -0.519379
H42   H     H_    0.274398 0.561440 0.408967 0.366065
S3    S     S_3+6 0.238254 0.146541 0.535294 0.031355
O59   O     O_2   0.228214 0.228311 0.524145 -0.278258
O60   O     O_2   0.182742 0.112657 0.437463 -0.272662
O61   O     O_3   0.223884 0.115529 0.592905 -0.519355
H43   H     H_    0.225656 0.061415 0.591093 0.366042
S4    S     S_3+6 0.761699 0.146634 0.464656 0.031270
O62   O     O_2   0.771713 0.228407 0.475788 -0.278236
O63   O     O_2   0.817232 0.112763 0.562495 -0.272861
O64   O     O_3   0.776066 0.115645 0.407034 -0.519493
H44   H     H_    0.774638 0.061526 0.409228 0.366175
S5    S     S_3+6 0.103781 0.392173 0.791345 0.062938
O65   O     O_2   0.168053 0.431145 0.827174 -0.229891
O66   O     O_2   0.131753 0.339321 0.866896 -0.274337
O67   O     O_3   0.059817 0.344596 0.692548 -0.544117
H45   H     H_    0.015851 0.324344 0.669342 0.349631
S6    S     S_3+6 0.896229 0.392163 0.208666 0.062934
O68   O     O_2   0.831955 0.431131 0.172835 -0.229884
O69   O     O_2   0.868261 0.339309 0.133118 -0.274341
O70   O     O_3   0.940198 0.344590 0.307466 -0.544138
H46   H     H_    0.984154 0.324325 0.330658 0.349654
S7    S     S_3+6 0.603775 0.892166 0.791337 0.062942
O71   O     O_2   0.668048 0.931135 0.827168 -0.229892
O72   O     O_2   0.631744 0.839313 0.866886 -0.274321
O73   O     O_3   0.559808 0.844591 0.692538 -0.544115
H47   H     H_    0.515832 0.824355 0.669320 0.349620
S8    S     S_3+6 0.396241 0.892153 0.208679 0.062896
O74   O     O_2   0.331965 0.931114 0.172848 -0.229880
O75   O     O_2   0.368275 0.839298 0.133132 -0.274395
O76   O     O_3   0.440216 0.844582 0.307483 -0.544227
H48   H     H_    0.484126 0.824246 0.330607 0.349741

loop_
_geom_bond_atom_site_label_1
_geom_bond_atom_site_label_2
_ccdc_geom_bond_type
C58   C62   A    
C7    H3    S    
C86   H24   S    
C53   O49   S    
C84   H20   S    
C56   C76   A    
C55   C59   A    
C2    C18   S    
C1    O1    A    
C32   O32   A    
O22   Zn8   S    
O6    Zn4   S    
C16   C72   A    
C47   C79   S    
C72   C76   A    
C66   H10   S    
C39   O43   A    
O58   H42   S    
S5    O67   S    
C65   H9    S    
C86   H25   S    
C26   C42   S    
C91   H36   S    
S2    O57   D    
C6    H2    S    
C64   C68   A    
C13   C29   S    
O50   C84   S    
C32   O28   A    
O37   Zn11  S    
C4    O6    A    
C36   O40   A    
O35   Zn10  S    
C61   H5    S    
O43   Zn11  S    
C6    C78   A    
C48   O15   A    
S1    O53   D    
O27   Zn7   S    
O42   Zn10  S    
O47   Zn12  S    
C33   O35   A    
O20   Zn5   S    
C15   C31   S    
O25   Zn5   S    
O30   Zn5   S    
S1    O54   D    
C9    C13   A    
C89   H31   S    
O5    Zn3   S    
C90   C91   S    
C44   C50   T    
C28   O24   A    
C91   C92   S    
C11   S7    S    
C54   C74   A    
C85   H22   S    
C11   C15   A    
C3    O8    A    
C82   H15   S    
C48   O14   A    
O49   C81   S    
C20   C24   T    
O55   H41   S    
C47   O13   A    
S2    O58   S    
C29   O29   A    
C70   C74   A    
S3    O61   S    
O76   H48   S    
C3    C19   S    
C8    C12   A    
C26   O18   A    
C10   S6    S    
C81   H14   S    
C92   H38   S    
C68   C72   A    
C88   C89   S    
C55   C75   A    
C87   H28   S    
C82   H16   S    
C37   O45   A    
O21   Zn7   S    
C88   H30   S    
C14   C70   A    
O39   Zn12  S    
O73   H47   S    
O9    Zn1   S    
C14   C30   S    
O11   Zn1   S    
C67   H11   S    
O67   H45   S    
O44   Zn12  S    
C12   S8    S    
C63   C67   A    
C85   C86   S    
O46   Zn9   S    
C86   H26   S    
C39   O47   A    
C71   C75   A    
C90   H35   S    
S2    O56   D    
C62   C66   A    
S3    O59   D    
O2    Zn2   S    
C83   H19   S    
C12   C16   A    
C2    O2    A    
O41   Zn9   S    
C81   C82   S    
O13   Zn3   S    
O8    Zn4   S    
O19   Zn6   S    
C25   C41   S    
C46   C78   S    
C53   C57   A    
C43   C49   T    
C30   O26   A    
S6    O70   S    
C92   H39   S    
S5    O65   D    
C29   O25   A    
O23   Zn8   S    
C28   C44   S    
S8    O76   S    
C17   C21   T    
C56   C60   A    
C89   H33   S    
C83   H18   S    
C30   O30   A    
S1    O55   S    
C19   C23   T    
O64   H44   S    
C5    C9    A    
C45   O12   A    
C36   O38   A    
C5    H1    S    
C69   C73   A    
C3    O5    A    
C7    C11   A    
S7    O71   D    
S4    O64   S    
O26   Zn6   S    
C34   O34   A    
C92   H40   S    
C55   O51   S    
C33   O33   A    
O70   H46   S    
C38   O46   A    
S4    O62   D    
C57   C61   A    
C60   S4    S    
O48   Zn11  S    
C31   O27   A    
C81   H13   S    
C36   C51   S    
C28   O22   A    
C27   O21   A    
C34   O36   A    
C87   H27   S    
S7    O72   D    
S4    O63   D    
O3    Zn1   S    
C82   C83   S    
C45   O9    A    
C10   C14   A    
O12   Zn2   S    
O45   Zn10  S    
C16   C32   S    
C40   O44   A    
C1    C17   S    
C5    C77   A    
C26   O20   A    
O16   Zn4   S    
O1    Zn1   S    
C9    S5    S    
C62   H6    S    
C7    C79   A    
C54   C58   A    
C59   S3    S    
C47   O16   A    
C27   C43   S    
C35   O37   A    
S6    O69   D    
C34   C49   S    
C91   H37   S    
O28   Zn8   S    
C63   H7    S    
S8    O75   D    
C8    H4    S    
C53   C73   A    
O17   Zn5   S    
C76   C80   A    
C56   O52   S    
C2    O3    A    
C6    C10   A    
O24   Zn7   S    
S3    O60   D    
C57   S1    S    
O14   Zn4   S    
C84   C85   S    
C25   O17   A    
S5    O66   D    
C15   C71   A    
C46   O11   A    
C59   C63   A    
C60   C64   A    
C83   H17   S    
C87   C88   S    
C18   C22   T    
C33   C50   S    
C35   O39   A    
C31   O31   A    
C90   H34   S    
O51   C87   S    
O15   Zn3   S    
O38   Zn12  S    
O34   Zn10  S    
C48   C80   S    
C66   C70   A    
C13   C69   A    
C64   H8    S    
C1    O4    A    
C65   C69   A    
C40   O48   A    
C85   H23   S    
S8    O74   D    
C68   H12   S    
C41   C51   T    
C67   C71   A    
C38   O42   A    
S6    O68   D    
O33   Zn9   S    
C37   O41   A    
C89   H32   S    
C24   C40   S    
C25   O19   A    
O7    Zn3   S    
O4    Zn2   S    
C88   H29   S    
C4    C20   S    
C61   C65   A    
O36   Zn9   S    
S7    O73   S    
C21   C37   S    
O31   Zn8   S    
C58   S2    S    
C84   H21   S    
O61   H43   S    
C74   C78   A    
C4    O7    A    
C35   C52   S    
C8    C80   A    
O40   Zn11  S    
C73   C77   A    
O29   Zn6   S    
C45   C77   S    
O10   Zn2   S    
C54   O50   S    
O52   C90   S    
O18   Zn6   S    
C75   C79   A    
C23   C39   S    
O32   Zn7   S    
C42   C52   T    
C46   O10   A    
C22   C38   S    
C27   O23   A    
