data_mof_unit_39799.cif
_audit_creation_date              2012-12-11T14:52:49-0500
_audit_creation_method            fapswitch 2.2
_symmetry_space_group_name_H-M    P1
_symmetry_Int_Tables_number       1
_space_group_crystal_system       triclinic
_cell_length_a                    20.679062
_cell_length_b                    7.250253
_cell_length_c                    20.355212
_cell_angle_alpha                 91.042569
_cell_angle_beta                  101.285104
_cell_angle_gamma                 90.461057
_cell_volume                      2992.1145596

loop_
_atom_site_label
_atom_site_type_symbol
_atom_type_description
_atom_site_fract_x
_atom_site_fract_y
_atom_site_fract_z
_atom_type_partial_charge
O1    O     O_R   0.673670 0.377510 0.185950 -0.534014
O2    O     O_R   0.326330 0.622490 0.814050 -0.534364
O3    O     O_R   0.826330 0.877510 0.314050 -0.540946
O4    O     O_R   0.173670 0.122490 0.685950 -0.541331
O5    O     O_R   0.806260 0.705340 0.185590 -0.533060
O6    O     O_R   0.193740 0.294660 0.814410 -0.533532
O7    O     O_R   0.693740 0.205340 0.314410 -0.533371
O8    O     O_R   0.306260 0.794660 0.685590 -0.532753
C1    C     C_R   0.825227 0.538079 0.170526 0.710456
C2    C     C_R   0.174622 0.461879 0.829318 0.708967
C3    C     C_R   0.674694 0.039363 0.329539 0.713330
C4    C     C_R   0.325453 0.960629 0.670614 0.712986
O9    O     O_R   0.672940 0.707120 0.178050 -0.541617
O10   O     O_R   0.327060 0.292880 0.821950 -0.541980
O11   O     O_R   0.827060 0.207120 0.321950 -0.539108
O12   O     O_R   0.172940 0.792880 0.678050 -0.538846
O13   O     O_R   0.692060 0.879040 0.306460 -0.534687
O14   O     O_R   0.307940 0.120960 0.693540 -0.532534
O15   O     O_R   0.807940 0.379040 0.193540 -0.530733
O16   O     O_R   0.192060 0.620960 0.806460 -0.531356
C5    C     C_R   0.649339 0.536389 0.160635 0.690468
C6    C     C_R   0.350674 0.463605 0.839348 0.690255
C7    C     C_R   0.850519 0.040540 0.339922 0.691954
C8    C     C_R   0.149474 0.959458 0.660085 0.691972
O17   O     O_3   0.756430 0.544390 0.292140 -0.377717
O18   O     O_3   0.243570 0.455610 0.707860 -0.376002
O19   O     O_3   0.743570 0.044390 0.207860 -0.371532
O20   O     O_3   0.256430 0.955610 0.792140 -0.372754
V1    V     V_3+5 0.748810 0.818610 0.242180 1.405492
V2    V     V_3+5 0.251190 0.181390 0.757820 1.409727
V3    V     V_3+5 0.751190 0.318610 0.257820 1.420410
V4    V     V_3+5 0.248810 0.681390 0.742180 1.426442
C9    C     C_R   0.089664 0.957867 0.605111 -0.101302
C10   C     C_R   0.910316 0.042136 0.394911 -0.101873
C11   C     C_R   0.411441 0.484948 0.892413 -0.097051
C12   C     C_R   0.588594 0.515009 0.107543 -0.097061
C13   C     C_R   0.006941 0.214877 0.453845 -0.158114
C14   C     C_R   0.993020 0.785156 0.546197 -0.159327
C15   C     C_R   0.487614 0.337426 0.065755 -0.153363
C16   C     C_R   0.512454 0.662424 0.934167 -0.153447
C17   C     C_R   0.952824 0.196613 0.401223 -0.219512
C18   C     C_R   0.047148 0.803409 0.598810 -0.219352
C19   C     C_R   0.542346 0.378719 0.115907 -0.224922
C20   C     C_R   0.457710 0.621158 0.884023 -0.225571
C21   C     C_R   0.923931 0.901814 0.443496 0.130851
C22   C     C_R   0.076038 0.098200 0.556533 0.130624
C23   C     C_R   0.578483 0.612925 0.046693 0.134797
C24   C     C_R   0.421563 0.387008 0.953256 0.134744
C25   C     C_R   0.979057 0.921062 0.497316 0.108897
C26   C     C_R   0.020908 0.078955 0.502719 0.108641
C27   C     C_R   0.522937 0.569618 0.995247 0.110677
C28   C     C_R   0.477121 0.430282 0.004689 0.110584
H1    H     H_    0.055903 0.694126 0.634984 0.138455
H2    H     H_    0.944071 0.305906 0.365052 0.139139
H3    H     H_    0.451141 0.698236 0.838115 0.135096
H4    H     H_    0.548919 0.301597 0.161804 0.135231
H5    H     H_    0.037586 0.337542 0.456047 0.170251
H6    H     H_    0.962368 0.662509 0.544002 0.169198
H7    H     H_    0.453851 0.230539 0.075072 0.168197
H8    H     H_    0.546233 0.769253 0.924837 0.167936
C29   C     C_3   0.547439 0.121262 0.527896 0.438183
C30   C     C_3   0.454136 0.878326 0.473795 0.479641
C31   C     C_3   0.940005 0.536245 0.963179 0.419928
C32   C     C_3   0.058385 0.463208 0.035167 0.430839
C33   C     C_3   0.532374 0.939668 0.562026 -0.356694
C34   C     C_3   0.469094 0.059772 0.439726 -0.321032
C35   C     C_3   0.980508 0.362242 0.952117 -0.319813
C36   C     C_3   0.017881 0.637084 0.046168 -0.306581
H9    H     H_    0.558026 0.889063 0.611319 0.132481
H10   H     H_    0.443738 0.113107 0.390757 0.136745
H11   H     H_    0.965420 0.249568 0.914476 0.141563
H12   H     H_    0.032093 0.750353 0.083687 0.145031
C37   C     C_1   0.370755 0.966398 0.624569 -0.176339
C38   C     C_1   0.629903 0.033598 0.376109 -0.185144
C39   C     C_1   0.129424 0.471489 0.875378 -0.174580
C40   C     C_1   0.869893 0.528313 0.123926 -0.174684
C41   C     C_3   0.473392 0.160210 0.508160 0.128666
C42   C     C_3   0.528224 0.838964 0.493551 0.114949
C43   C     C_3   0.001860 0.658764 0.969267 0.145113
C44   C     C_3   0.996568 0.340504 0.029081 0.143160
C45   C     C_3   0.457302 0.981176 0.541442 0.021005
C46   C     C_3   0.544256 0.018602 0.460182 -0.013971
C47   C     C_3   0.043028 0.488422 0.958604 0.004716
C48   C     C_3   0.955365 0.510992 0.039733 0.005896
C49   C     C_1   0.409314 0.971153 0.586648 0.043906
C50   C     C_1   0.591820 0.028852 0.414524 0.011311
C51   C     C_1   0.090943 0.479252 0.913323 0.048455
C52   C     C_1   0.907878 0.520366 0.085470 0.049244
N1    N     N_3   0.118440 0.257214 0.559480 -0.679225
H13   H     H_    0.115723 0.335606 0.602424 0.249094
H14   H     H_    0.166878 0.213846 0.561501 0.240387
N2    N     N_3   0.881520 0.742819 0.440553 -0.682127
H15   H     H_    0.884239 0.664411 0.397613 0.249785
H16   H     H_    0.833081 0.786203 0.438523 0.236115
N3    N     N_3   0.374942 0.249255 0.964642 -0.680045
H17   H     H_    0.328045 0.307493 0.957371 0.232587
H18   H     H_    0.374648 0.140766 0.930076 0.251180
N4    N     N_3   0.625105 0.750672 0.035314 -0.680570
H19   H     H_    0.672004 0.692446 0.042604 0.232367
H20   H     H_    0.625391 0.859161 0.069874 0.251410
O21   O     O_3   0.595291 0.258076 0.553176 -0.556607
C53   C     C_3   0.600974 0.277597 0.623276 0.101050
H21   H     H_    0.633174 0.167115 0.648483 0.119459
H22   H     H_    0.552158 0.269325 0.638693 0.103142
C54   C     C_3   0.631996 0.465265 0.646554 -0.286869
H23   H     H_    0.681657 0.475975 0.633614 0.201675
H24   H     H_    0.600616 0.575387 0.620404 0.215370
C55   C     C_3   0.638070 0.494176 0.721998 -0.864769
H25   H     H_    0.588906 0.482335 0.735959 0.234065
H26   H     H_    0.658406 0.634185 0.736961 0.235868
H27   H     H_    0.671603 0.390388 0.749597 0.239973
O22   O     O_3   0.404492 0.746253 0.448617 -0.561635
C56   C     C_3   0.406280 0.696110 0.381467 0.092158
H28   H     H_    0.402094 0.543395 0.376597 0.145034
H29   H     H_    0.453035 0.735197 0.365385 0.096275
C57   C     C_3   0.347578 0.779773 0.334333 -0.304010
H30   H     H_    0.300995 0.726043 0.346659 0.208746
H31   H     H_    0.348556 0.932070 0.341266 0.193193
C58   C     C_3   0.348946 0.732788 0.261220 -0.844608
H32   H     H_    0.395802 0.782178 0.248279 0.232252
H33   H     H_    0.307453 0.801553 0.228137 0.238022
H34   H     H_    0.343980 0.581338 0.252099 0.235928
O23   O     O_3   0.877077 0.585587 0.927673 -0.562476
C59   C     C_3   0.872023 0.545024 0.858723 0.083260
H35   H     H_    0.860318 0.395737 0.849046 0.126211
H36   H     H_    0.918382 0.578595 0.840974 0.102163
C60   C     C_3   0.816542 0.658477 0.818577 -0.280404
H37   H     H_    0.769097 0.621536 0.833191 0.205190
H38   H     H_    0.826820 0.807559 0.830138 0.197171
C61   C     C_3   0.810469 0.624403 0.743366 -0.857656
H39   H     H_    0.857477 0.660413 0.727744 0.232841
H40   H     H_    0.770933 0.711875 0.715505 0.236106
H41   H     H_    0.797892 0.477331 0.730236 0.237812
O24   O     O_3   0.121833 0.416872 0.070312 -0.563832
C62   C     C_3   0.125801 0.436321 0.140286 0.082469
H42   H     H_    0.151630 0.313936 0.164391 0.138675
H43   H     H_    0.076939 0.439994 0.155761 0.096330
C63   C     C_3   0.166169 0.609315 0.166679 -0.295317
H44   H     H_    0.217248 0.594391 0.157859 0.205688
H45   H     H_    0.144226 0.731936 0.139300 0.195027
C64   C     C_3   0.168330 0.640614 0.241427 -0.848869
H46   H     H_    0.117589 0.652585 0.251419 0.231770
H47   H     H_    0.195576 0.770766 0.258487 0.235818
H48   H     H_    0.193723 0.524611 0.270363 0.238114
N5    N     N_3   0.558878 0.662069 0.485310 -0.645053
H49   H     H_    0.609532 0.679072 0.503169 0.245610
H50   H     H_    0.552723 0.632665 0.434036 0.221196
N6    N     N_3   0.442267 0.336104 0.516485 -0.618815
H51   H     H_    0.463538 0.432457 0.489588 0.287189
H52   H     H_    0.454934 0.376033 0.566953 0.232825
N7    N     N_3   0.993680 0.165028 0.062166 -0.644848
H53   H     H_    0.033665 0.087309 0.053645 0.255988
H54   H     H_    0.001179 0.191683 0.113710 0.211719
N8    N     N_3   0.004847 0.834401 0.936301 -0.645385
H55   H     H_    0.964405 0.911292 0.944081 0.258794
H56   H     H_    0.998321 0.807879 0.884813 0.215380

loop_
_geom_bond_atom_site_label_1
_geom_bond_atom_site_label_2
_ccdc_geom_bond_type
O17   V3    S    
C62   C63   S    
C47   C51   S    
O1    C5    A    
O21   C53   S    
C16   H8    S    
C24   N3    S    
C31   O23   S    
O19   V1    S    
O13   V1    S    
O3    C7    A    
N3    H17   S    
C44   C48   S    
O15   V3    S    
N5    H49   S    
C62   H42   S    
C14   C25   A    
C31   C43   S    
C55   H25   S    
O7    C3    A    
C6    C11   S    
C54   H24   S    
C23   N4    S    
C53   C54   S    
C9    C18   A    
C32   C36   S    
O9    V1    S    
N6    H52   S    
C14   C18   A    
C29   C46   S    
C64   H47   S    
C18   H1    S    
O4    C8    A    
C44   N7    S    
O1    V3    S    
C57   H30   S    
C12   C23   A    
O2    V4    S    
O3    V1    S    
C21   N2    S    
C42   N5    S    
C14   H6    S    
C1    O15   A    
C29   C41   S    
O2    C6    A    
N7    H53   S    
O14   V2    S    
C1    C40   S    
C21   C25   A    
N1    H14   S    
C40   C52   T    
C16   C20   A    
N8    H56   S    
C36   H12   S    
C56   C57   S    
C36   C43   S    
O11   C7    A    
C15   C28   A    
O12   C8    A    
C4    C37   S    
C9    C22   A    
C32   C44   S    
C10   C17   A    
O10   V2    S    
C11   C24   A    
O22   C56   S    
N5    H50   S    
O5    V1    S    
C58   H33   S    
C54   C55   S    
C31   C35   S    
O7    V3    S    
C30   C34   S    
C27   C28   A    
O8    V4    S    
C32   O24   S    
O23   C59   S    
N6    H51   S    
C64   H48   S    
C2    O16   A    
C5    C12   S    
O18   V4    S    
C15   C19   A    
C46   C50   S    
C63   C64   S    
O4    V2    S    
C29   O21   S    
C36   C48   S    
C61   H40   S    
C60   H38   S    
C32   C47   S    
O5    C1    A    
C22   N1    S    
C34   C46   S    
C2    C39   S    
C42   C46   S    
C33   C45   S    
C41   C45   S    
O8    C4    A    
C7    C10   S    
C15   H7    S    
N2    H16   S    
O9    C5    A    
C10   C21   A    
C35   C47   S    
C38   C50   T    
C53   H22   S    
C11   C20   A    
C41   N6    S    
C37   C49   T    
N8    H55   S    
C63   H45   S    
C59   C60   S    
C39   C51   T    
O6    V2    S    
C30   C45   S    
N4    H19   S    
N4    H20   S    
C61   H41   S    
C60   H37   S    
C59   H36   S    
C56   H28   S    
O16   V4    S    
C58   H34   S    
C62   H43   S    
C34   C41   S    
C57   C58   S    
C3    O13   A    
C33   C42   S    
C30   C42   S    
C35   C44   S    
C48   C52   S    
C3    C38   S    
O6    C2    A    
C23   C27   A    
C58   H32   S    
N3    H18   S    
O11   V3    S    
O24   C62   S    
O12   V4    S    
C16   C27   A    
C54   H23   S    
C22   C26   A    
C8    C9    S    
C55   H27   S    
C31   C48   S    
O10   C6    A    
O20   V2    S    
C61   H39   S    
C60   C61   S    
C64   H46   S    
C43   N8    S    
C43   C47   S    
C13   C26   A    
C20   H3    S    
C34   H10   S    
C55   H26   S    
C33   H9    S    
N2    H15   S    
C57   H31   S    
C35   H11   S    
N7    H54   S    
C13   C17   A    
C53   H21   S    
C45   C49   S    
C17   H2    S    
C63   H44   S    
C29   C33   S    
C19   H4    S    
C24   C28   A    
C30   O22   S    
C25   C26   A    
C4    O14   A    
C12   C19   A    
N1    H13   S    
C13   H5    S    
C59   H35   S    
C56   H29   S    
