data_mof_unit_11353.cif
_audit_creation_date              2012-12-10T20:45:29-0500
_audit_creation_method            fapswitch 2.2
_symmetry_space_group_name_H-M    P1
_symmetry_Int_Tables_number       1
_space_group_crystal_system       triclinic
_cell_length_a                    10.669301
_cell_length_b                    10.649254
_cell_length_c                    9.902545
_cell_angle_alpha                 88.795939
_cell_angle_beta                  91.142659
_cell_angle_gamma                 89.724272
_cell_volume                      1124.64059082

loop_
_atom_site_label
_atom_site_type_symbol
_atom_type_description
_atom_site_fract_x
_atom_site_fract_y
_atom_site_fract_z
_atom_type_partial_charge
C1    C     C_R   0.501173 0.260245 0.501462 0.867334
C2    C     C_R   0.230194 0.796950 0.085630 -0.093316
C3    C     C_R   0.929866 0.571830 0.403384 -0.226460
C4    C     C_R   0.872261 0.497110 0.501640 -0.057758
C5    C     C_R   0.941870 0.424388 0.596469 0.021354
C6    C     C_R   0.070212 0.431660 0.593656 -0.233438
C7    C     C_R   0.127909 0.506811 0.496714 -0.052464
C8    C     C_R   0.058715 0.576788 0.398592 0.008029
C9    C     C_R   0.910674 0.334392 0.828287 -0.117774
C10   C     C_R   0.876854 0.234272 0.913183 -0.153880
C11   C     C_R   0.821628 0.127448 0.858729 -0.015302
C12   C     C_R   0.260439 0.504234 0.498568 0.863646
C13   C     C_R   0.796965 0.121992 0.719722 -0.035924
C14   C     C_R   0.828679 0.222821 0.634767 -0.169968
C15   C     C_R   0.887151 0.329094 0.688371 0.137828
C16   C     C_R   0.412338 0.061700 0.575912 0.025711
C17   C     C_R   0.501095 0.127984 0.502287 -0.046328
C18   C     C_R   0.573747 0.066085 0.407582 -0.222042
C19   C     C_R   0.570250 0.936447 0.403133 -0.203214
C20   C     C_R   0.492332 0.870970 0.491837 -0.095001
C21   C     C_R   0.404683 0.934664 0.566609 0.029350
C22   C     C_3   0.359178 0.916560 0.706892 0.021302
C23   C     C_R   0.498588 0.739405 0.498343 0.892304
C24   C     C_3   0.373038 0.058191 0.720724 0.024181
C25   C     C_R   0.392303 0.478521 0.069095 0.224236
C26   C     C_R   0.600418 0.541595 0.074441 -0.164022
C27   C     C_R   0.599704 0.545279 0.931198 0.302692
C28   C     C_R   0.391520 0.480811 0.927416 0.178342
C29   C     C_3   0.303341 0.373228 0.921149 -0.490293
C30   C     C_3   0.309118 0.366806 0.075014 -0.468187
C31   C     C_R   0.739683 0.497120 0.501042 0.881661
C32   C     C_R   0.254847 0.823757 0.221033 -0.125546
C33   C     C_R   0.198387 0.752925 0.323339 -0.094575
C34   C     C_R   0.116866 0.654466 0.290783 0.122383
C35   C     C_R   0.090623 0.629722 0.154280 -0.180702
C36   C     C_R   0.147768 0.700260 0.052250 -0.102230
H1    H     H_    0.274928 0.851270 0.006810 0.179613
H2    H     H_    0.797511 0.048998 0.924293 0.165639
H3    H     H_    0.754127 0.039148 0.677681 0.169710
H4    H     H_    0.812457 0.215957 0.526851 0.107992
H5    H     H_    0.636879 0.117244 0.342253 0.163435
H6    H     H_    0.423378 0.858788 0.772869 0.197704
H7    H     H_    0.283359 0.108933 0.736115 0.162054
H8    H     H_    0.681177 0.575169 0.130419 0.173985
H9    H     H_    0.318054 0.899163 0.246677 0.156061
H10   H     H_    0.209640 0.402973 0.881176 0.188953
H11   H     H_    0.343392 0.290904 0.871888 0.253576
H12   H     H_    0.217789 0.387792 0.121752 0.197482
H13   H     H_    0.358298 0.281669 0.116432 0.234772
H14   H     H_    0.218690 0.774042 0.427699 0.153344
H15   H     H_    0.027747 0.554389 0.126972 0.134137
H16   H     H_    0.128692 0.679217 0.947431 0.188098
H17   H     H_    0.874162 0.627371 0.330981 0.157278
H18   H     H_    0.957792 0.414726 0.870937 0.144690
N1    N     N_R   0.499160 0.499140 0.142800 -0.123795
N2    N     N_R   0.499160 0.499180 0.857150 -0.120403
O1    O     O_R   0.500020 0.316790 0.614690 -0.582383
O2    O     O_R   0.500000 0.316760 0.385350 -0.622873
O3    O     O_R   0.316770 0.500030 0.614670 -0.613628
O4    O     O_R   0.316750 0.499990 0.385330 -0.618800
O5    O     O_R   0.500000 0.683240 0.614650 -0.590114
O6    O     O_R   0.499980 0.683210 0.385310 -0.623778
O7    O     O_R   0.683250 0.500010 0.614670 -0.556884
O8    O     O_R   0.683230 0.499970 0.385330 -0.645811
Zn1   Zn    Zn3+2 0.500010 0.500020 0.653130 1.016950
Zn2   Zn    Zn3+2 0.499990 0.499980 0.346870 0.953510
H19   H     H_    0.632699 0.887562 0.336796 0.168049
Br1   Br    Br    0.185641 0.862416 0.706540 -0.594623
Br2   Br    Br    0.506600 0.095149 0.849874 -0.593064
Br3   Br    Br    0.735881 0.634127 0.851620 -0.514111
H20   H     H_    0.125840 0.372501 0.662548 0.144753
H21   H     H_    0.895748 0.238472 0.020788 0.136549

loop_
_geom_bond_atom_site_label_1
_geom_bond_atom_site_label_2
_ccdc_geom_bond_type
C22   H6    S    
C11   H2    S    
O7    Zn1   S    
C19   H19   S    
C16   C21   A    
C1    O1    A    
C11   C13   A    
C9    C10   A    
C1    C17   S    
C19   C20   A    
C36   H16   S    
C20   C23   S    
C29   H10   S    
C26   N1    A    
C14   C15   A    
C17   C18   A    
C28   N2    A    
O4    Zn2   S    
C7    C8    A    
C16   C24   S    
O8    Zn2   S    
C8    C34   S    
C21   C22   S    
C32   C33   A    
C25   C28   A    
C3    H17   S    
C2    H1    S    
C22   Br1   S    
C26   C27   A    
C29   C30   S    
C27   Br3   S    
C29   H11   S    
C30   H12   S    
C28   C29   S    
C30   H13   S    
C25   N1    A    
C24   Br2   S    
C33   C34   A    
C6    C7    A    
O5    Zn1   S    
C35   H15   S    
C5    C6    A    
C22   C24   S    
C7    C12   S    
C5    C15   S    
C4    C31   S    
C13   H3    S    
C10   C11   A    
O6    Zn2   S    
C26   H8    S    
N2    Zn1   S    
C12   O4    A    
C16   C17   A    
C31   O7    A    
C23   O5    A    
N1    Zn2   S    
C20   C21   A    
C3    C8    A    
C2    C32   A    
C34   C35   A    
C32   H9    S    
C18   H5    S    
C2    C36   A    
C25   C30   S    
C24   H7    S    
C27   N2    A    
C18   C19   A    
C9    H18   S    
C13   C14   A    
C33   H14   S    
C1    O2    A    
C12   O3    A    
C14   H4    S    
C31   O8    A    
O2    Zn2   S    
C23   O6    A    
O3    Zn1   S    
C3    C4    A    
C9    C15   A    
O1    Zn1   S    
C4    C5    A    
C6    H20   S    
C35   C36   A    
C10   H21   S    
