data_mof_unit_14844.cif
_audit_creation_date              2012-12-10T20:51:27-0500
_audit_creation_method            fapswitch 2.2
_symmetry_space_group_name_H-M    P1
_symmetry_Int_Tables_number       1
_space_group_crystal_system       triclinic
_cell_length_a                    17.356993
_cell_length_b                    8.925348
_cell_length_c                    8.108521
_cell_angle_alpha                 90.014988
_cell_angle_beta                  89.33366
_cell_angle_gamma                 89.855657
_cell_volume                      1256.06040482

loop_
_atom_site_label
_atom_site_type_symbol
_atom_type_description
_atom_site_fract_x
_atom_site_fract_y
_atom_site_fract_z
_atom_type_partial_charge
C1    C     C_R   0.500033 0.218005 0.499995 0.913216
C2    C     C_R   0.847720 0.553722 0.342653 -0.075657
C3    C     C_R   0.764242 0.345016 0.537442 -0.134486
C4    C     C_R   0.226311 0.602260 0.425503 -0.052860
C5    C     C_R   0.234972 0.349996 0.547568 -0.083498
C6    C     C_R   0.772322 0.588511 0.394642 -0.106884
C7    C     C_R   0.730592 0.482839 0.489969 -0.112223
C8    C     C_R   0.269416 0.486966 0.500128 -0.118076
C9    C     C_R   0.882832 0.420987 0.398739 0.086469
C10   C     C_R   0.114342 0.438660 0.433540 -0.020497
C11   C     C_1   0.965123 0.413988 0.395993 0.099324
C12   C     C_R   0.500105 0.782000 0.500022 1.040601
C13   C     C_1   0.033538 0.419899 0.407437 -0.056402
C14   C     C_2   0.879111 0.173060 0.546674 0.451315
C15   C     C_2   0.100698 0.695722 0.312099 0.378239
C16   C     C_2   0.115583 0.186746 0.572537 0.497858
C17   C     C_2   0.890597 0.657860 0.232020 0.362738
C18   C     C_2   0.716775 0.230815 0.626242 0.343750
C19   C     C_2   0.263467 0.746462 0.376608 0.498304
C20   C     C_2   0.282347 0.231430 0.625713 0.455253
C21   C     C_2   0.736419 0.733578 0.344259 0.442745
C22   C     C_1   0.500079 0.065220 0.500015 -0.136209
C23   C     C_1   0.500111 0.934811 0.500052 -0.090013
C24   C     C_R   0.352948 0.498388 0.500849 0.935712
C25   C     C_R   0.647116 0.497972 0.498678 0.930809
C26   C     C_R   0.841366 0.314424 0.492234 -0.022524
C27   C     C_R   0.148217 0.577266 0.391101 -0.046607
C28   C     C_R   0.156289 0.325470 0.515253 -0.069803
H1    H     H_    0.864687 0.124461 0.665682 0.108373
H2    H     H_    0.060947 0.665826 0.215956 0.137960
H3    H     H_    0.053801 0.188126 0.592142 0.108481
H4    H     H_    0.887176 0.778086 0.250697 0.111332
H5    H     H_    0.675361 0.264881 0.720054 0.104891
H6    H     H_    0.245105 0.805275 0.266746 0.102511
H7    H     H_    0.289693 0.123642 0.565638 0.134925
H8    H     H_    0.753286 0.787517 0.229640 0.066100
N1    N     N_1   0.500000 0.500000 0.073640 -0.020460
N2    N     N_1   0.500000 0.500000 0.926360 -0.014089
O1    O     O_R   0.500000 0.285350 0.636850 -0.608826
O2    O     O_2   0.104006 0.826093 0.356966 -0.503815
O3    O     O_2   0.149608 0.069314 0.597550 -0.521270
O4    O     O_2   0.928081 0.609373 0.115302 -0.561251
O5    O     O_2   0.721771 0.097948 0.591863 -0.524406
O6    O     O_2   0.313651 0.802651 0.460660 -0.603169
O7    O     O_2   0.312577 0.253228 0.758710 -0.531201
O8    O     O_2   0.688642 0.796006 0.432218 -0.537135
O9    O     O_R   0.500000 0.714650 0.363150 -0.609769
O10   O     O_R   0.500000 0.714650 0.636850 -0.610843
O11   O     O_R   0.500000 0.285350 0.363150 -0.618082
O12   O     O_R   0.389120 0.500000 0.636930 -0.561662
O13   O     O_R   0.610880 0.500000 0.363070 -0.612843
O14   O     O_R   0.610880 0.500000 0.636930 -0.636720
O15   O     O_R   0.389120 0.500000 0.363070 -0.628945
O16   O     O_2   0.924886 0.107377 0.456708 -0.560627
Zn1   Zn    Zn3+2 0.500000 0.500000 0.682780 1.050998
Zn2   Zn    Zn3+2 0.500000 0.500000 0.317220 1.028951

loop_
_geom_bond_atom_site_label_1
_geom_bond_atom_site_label_2
_ccdc_geom_bond_type
C10   C27   A    
C16   C28   S    
O10   Zn1   S    
C25   O13   A    
C6    C7    A    
C5    C8    A    
C5    C28   A    
C9    C11   S    
C15   C27   S    
C20   O7    D    
C7    C25   S    
O14   Zn1   S    
C12   O10   A    
C4    C8    A    
C25   O14   A    
C1    C22   S    
N1    Zn2   S    
C21   H8    S    
C10   C13   S    
C18   O5    D    
C14   C26   S    
C16   H3    S    
C11   C13   T    
C12   C23   S    
C2    C6    A    
C15   H2    S    
C12   O9    A    
C8    C24   S    
N1    N2    T    
C9    C26   A    
O13   Zn2   S    
C3    C7    A    
C6    C21   S    
C22   C23   T    
C24   O12   A    
C18   H5    S    
C15   O2    D    
C1    O1    A    
C14   H1    S    
O11   Zn2   S    
C4    C27   A    
C19   O6    D    
C3    C18   S    
C21   O8    D    
O15   Zn2   S    
C10   C28   A    
C5    C20   S    
C17   H4    S    
C17   O4    D    
C14   O16   D    
C24   O15   A    
C2    C9    A    
C4    C19   S    
C1    O11   A    
C16   O3    D    
C20   H7    S    
C3    C26   A    
O1    Zn1   S    
N2    Zn1   S    
O12   Zn1   S    
O9    Zn2   S    
C2    C17   S    
C19   H6    S    
