data_mof_unit_38203.cif
_audit_creation_date              2013-03-05T15:53:31-0500
_audit_creation_method            fapswitch 2.2
_symmetry_space_group_name_H-M    P1
_symmetry_Int_Tables_number       1
_space_group_crystal_system       triclinic
_cell_length_a                    30.46837
_cell_length_b                    7.256453
_cell_length_c                    26.032475
_cell_angle_alpha                 89.487664
_cell_angle_beta                  112.170416
_cell_angle_gamma                 89.824153
_cell_volume                      5329.70193898

loop_
_atom_site_label
_atom_site_type_symbol
_atom_site_description
_atom_site_fract_x
_atom_site_fract_y
_atom_site_fract_z
_atom_type_partial_charge
O1    O     O_R   0.295360 0.592990 0.320420 -0.584343
O2    O     O_R   0.704640 0.407010 0.679580 -0.578223
O3    O     O_R   0.204640 0.092990 0.179580 -0.585908
O4    O     O_R   0.795360 0.907010 0.820420 -0.585951
O5    O     O_R   0.294060 0.265620 0.213230 -0.583555
O6    O     O_R   0.705940 0.734380 0.786770 -0.582460
O7    O     O_R   0.205940 0.765620 0.286770 -0.586491
O8    O     O_R   0.794060 0.234380 0.713230 -0.589546
C1    C     C_R   0.303924 0.432171 0.199450 0.925768
C2    C     C_R   0.696020 0.567709 0.800401 0.929333
C3    C     C_R   0.196193 0.931448 0.300403 0.931174
C4    C     C_R   0.804981 0.067528 0.700414 0.923735
O9    O     O_R   0.300850 0.263360 0.322080 -0.583052
O10   O     O_R   0.699150 0.736640 0.677920 -0.587555
O11   O     O_R   0.199150 0.763360 0.177920 -0.581975
O12   O     O_R   0.800850 0.236640 0.822080 -0.583042
O13   O     O_R   0.211480 0.091820 0.289210 -0.584977
O14   O     O_R   0.788520 0.908180 0.710790 -0.584333
O15   O     O_R   0.288520 0.591820 0.210790 -0.584293
O16   O     O_R   0.711480 0.408180 0.789210 -0.584656
C5    C     C_R   0.313227 0.431142 0.343318 0.932470
C6    C     C_R   0.686707 0.569798 0.656526 0.933578
C7    C     C_R   0.187020 0.933165 0.156628 0.932433
C8    C     C_R   0.813099 0.066953 0.843251 0.929605
O17   O     O_3   0.220670 0.426670 0.239090 -0.282189
O18   O     O_3   0.779330 0.573330 0.760910 -0.284789
O19   O     O_3   0.279330 0.926670 0.260910 -0.282778
O20   O     O_3   0.720670 0.073330 0.739090 -0.279966
V1    V     V_3+5 0.255440 0.152290 0.252020 1.184788
V2    V     V_3+5 0.744560 0.847710 0.747980 1.183545
V3    V     V_3+5 0.244560 0.652290 0.247980 1.183268
V4    V     V_3+5 0.755440 0.347710 0.752020 1.179946
C9    C     C_R   0.849009 0.051127 0.900350 -0.176543
C10   C     C_R   0.151315 0.950096 0.099361 -0.177919
C11   C     C_R   0.649860 0.569072 0.599375 -0.182039
C12   C     C_R   0.349713 0.438930 0.400307 -0.178914
C13   C     C_R   0.869537 0.976249 0.998095 0.315348
C14   C     C_R   0.130925 0.033235 0.002124 0.314959
C15   C     C_R   0.624442 0.643978 0.500828 0.315943
C16   C     C_R   0.371473 0.447578 0.500501 0.312354
C17   C     C_R   0.835106 0.008238 0.944698 -0.138354
C18   C     C_R   0.165269 0.001216 0.055598 -0.137075
C19   C     C_R   0.658609 0.652508 0.555118 -0.150323
C20   C     C_R   0.336548 0.453540 0.446344 -0.139598
C21   C     C_R   0.897348 0.057300 0.909203 -0.234966
C22   C     C_R   0.102940 0.939669 0.090019 -0.233885
C23   C     C_R   0.604497 0.498388 0.589777 -0.223864
C24   C     C_R   0.397894 0.441076 0.408315 -0.233896
C25   C     C_R   0.933156 0.019822 0.962249 0.094529
C26   C     C_R   0.067210 0.980360 0.037186 0.093376
C27   C     C_R   0.567200 0.510833 0.536496 0.091463
C28   C     C_R   0.433986 0.452718 0.462157 0.092551
C29   C     C_R   0.918414 0.982755 0.007008 -0.020491
C30   C     C_R   0.082025 0.021656 0.992762 -0.019637
C31   C     C_R   0.578861 0.573023 0.491353 -0.013205
C32   C     C_R   0.420191 0.442065 0.508411 -0.021735
C33   C     C_R   0.983023 0.017319 0.972298 0.092471
C34   C     C_R   0.017350 0.982601 0.027100 0.091959
C35   C     C_R   0.518428 0.471517 0.526807 0.088975
C36   C     C_R   0.483163 0.478471 0.471550 0.092895
C37   C     C_R   0.000721 0.955141 0.070263 -0.212303
C38   C     C_R   0.999722 0.046773 0.929262 -0.214320
C39   C     C_R   0.497678 0.524500 0.427750 -0.208986
C40   C     C_R   0.503193 0.438385 0.570856 -0.210335
C41   C     C_R   0.952710 0.954918 0.060395 -0.111168
C42   C     C_R   0.047783 0.049611 0.939344 -0.109605
C43   C     C_R   0.544060 0.573491 0.437581 -0.111595
C44   C     C_R   0.455318 0.427163 0.561897 -0.108508
H1    H     H_    0.942781 0.934089 0.095777 0.186903
H2    H     H_    0.057810 0.073122 0.904145 0.187869
H3    H     H_    0.551929 0.618256 0.402245 0.185997
H4    H     H_    0.446099 0.407710 0.597845 0.185507
H5    H     H_    0.094591 0.903379 0.125405 0.121945
H6    H     H_    0.905540 0.088142 0.873292 0.113725
H7    H     H_    0.406079 0.433271 0.371614 0.120920
H8    H     H_    0.599067 0.439088 0.625021 0.122891
H9    H     H_    0.023986 0.935249 0.112875 0.143098
H10   H     H_    0.976520 0.068540 0.886701 0.139398
H11   H     H_    0.473224 0.536790 0.385306 0.140871
H12   H     H_    0.527375 0.430727 0.613505 0.142094
C45   C     C_R   0.092396 0.890273 0.479476 0.526064
C46   C     C_R   0.913099 0.061213 0.525102 0.529602
C47   C     C_R   0.422687 0.339030 0.036967 0.530759
C48   C     C_R   0.574697 0.664402 0.959666 0.529620
N1    N     N_R   0.077622 0.967729 0.427569 -0.179907
N2    N     N_R   0.931039 0.018558 0.580535 -0.182500
N3    N     N_R   0.424052 0.474905 0.073446 -0.186855
N4    N     N_R   0.573436 0.528266 0.923284 -0.186367
C49   C     C_R   0.034814 0.056657 0.405087 0.499256
C50   C     C_R   0.977476 0.966197 0.606742 0.484967
C51   C     C_R   0.453657 0.621919 0.081165 0.534778
C52   C     C_R   0.543640 0.381724 0.915380 0.535253
C53   C     C_R   0.003372 0.062272 0.433806 -0.089109
C54   C     C_R   0.007279 0.943244 0.576359 -0.085509
C55   C     C_R   0.484925 0.636074 0.052135 -0.052231
C56   C     C_R   0.512183 0.368156 0.944181 -0.052194
C57   C     C_R   0.019544 0.991758 0.488915 -0.016859
C58   C     C_R   0.989987 0.001490 0.520013 -0.018497
C59   C     C_R   0.483333 0.497319 0.013286 0.010300
C60   C     C_R   0.513796 0.506848 0.983053 0.010363
C61   C     C_R   0.065278 0.911103 0.512892 -0.195905
C62   C     C_R   0.943008 0.069169 0.494728 -0.199324
C63   C     C_R   0.450977 0.349643 0.004406 -0.204339
C64   C     C_R   0.546214 0.654327 0.992010 -0.203572
C65   C     C_R   0.956814 0.137721 0.409723 -0.184241
C66   C     C_R   0.053737 0.867215 0.600465 -0.182548
C67   C     C_R   0.517769 0.782725 0.060852 -0.146299
C68   C     C_R   0.479213 0.221868 0.935315 -0.146859
C69   C     C_R   0.926914 0.139879 0.439755 0.343251
C70   C     C_R   0.082256 0.850433 0.568982 0.340671
C71   C     C_R   0.548873 0.788763 0.032278 0.330350
C72   C     C_R   0.448205 0.215550 0.964013 0.330319
O21   O     O_2   0.132773 0.789714 0.497955 -0.476590
O22   O     O_2   0.866103 0.091577 0.499307 -0.459660
O23   O     O_2   0.394603 0.192457 0.033321 -0.466788
O24   O     O_2   0.602831 0.810864 0.963380 -0.467459
O25   O     O_2   0.023221 0.140867 0.355283 -0.562944
O26   O     O_2   0.994774 0.939991 0.662186 -0.559766
O27   O     O_2   0.452619 0.753075 0.117054 -0.539286
O28   O     O_2   0.544820 0.249992 0.879721 -0.539298
C73   C     C_R   0.896982 0.885264 0.645415 -0.095260
C74   C     C_R   0.090339 0.879781 0.342485 -0.078080
C75   C     C_R   0.585931 0.591244 0.836232 -0.088107
C76   C     C_R   0.411642 0.391399 0.159202 -0.090643
H13   H     H_    0.917487 0.760560 0.648183 0.138175
H14   H     H_    0.054450 0.827572 0.325488 0.145805
H15   H     H_    0.548492 0.623365 0.816140 0.133528
H16   H     H_    0.448245 0.345423 0.177224 0.132445
C77   C     C_R   0.868016 0.898609 0.676208 -0.002822
C78   C     C_R   0.118786 0.871307 0.311015 0.006416
C79   C     C_R   0.615594 0.602174 0.806055 0.020636
C80   C     C_R   0.382580 0.378840 0.190082 0.019062
C81   C     C_R   0.838947 0.057246 0.671033 -0.236053
C82   C     C_R   0.165762 0.937115 0.333165 -0.216437
C83   C     C_R   0.664388 0.559031 0.832029 -0.215346
C84   C     C_R   0.334912 0.440461 0.166893 -0.218333
C85   C     C_R   0.842728 0.204471 0.636604 0.000744
C86   C     C_R   0.184107 0.002784 0.388055 -0.028709
C87   C     C_R   0.682759 0.508497 0.888861 -0.027241
C88   C     C_R   0.316831 0.507790 0.111575 -0.023078
C89   C     C_R   0.873980 0.192282 0.608817 -0.103238
C90   C     C_R   0.154799 0.016160 0.418343 -0.063666
C91   C     C_R   0.652703 0.499327 0.918542 -0.044277
C92   C     C_R   0.346306 0.518750 0.081187 -0.048174
H17   H     H_    0.877118 0.307723 0.583698 0.146749
H18   H     H_    0.168879 0.070604 0.460029 0.168592
H19   H     H_    0.666918 0.460877 0.962117 0.155735
H20   H     H_    0.332299 0.570124 0.038798 0.155260
C93   C     C_R   0.900518 0.031829 0.611795 0.171681
C94   C     C_R   0.107690 0.955436 0.395845 0.147093
C95   C     C_R   0.604214 0.539575 0.892456 0.166094
C96   C     C_R   0.393832 0.462221 0.104896 0.169184
C97   C     C_1   0.814104 0.368946 0.627246 0.138341
N5    N     N_1   0.791175 0.500996 0.619809 -0.071484
C98   C     C_1   0.234026 0.039838 0.415795 0.123893
N6    N     N_1   0.274188 0.066138 0.438123 -0.039947
C99   C     C_1   0.732719 0.471599 0.917984 0.115084
N7    N     N_1   0.772789 0.442900 0.941311 -0.035819
C100  C     C_1   0.267350 0.555993 0.084114 0.118001
N8    N     N_1   0.227600 0.592934 0.062043 -0.040196
C101  C     C_1   0.214975 0.029429 0.065981 0.184925
N9    N     N_1   0.254660 0.052241 0.074360 -0.041823
C102  C     C_1   0.785267 0.989158 0.935040 0.183743
N10   N     N_1   0.745464 0.973701 0.927230 -0.040472
C103  C     C_1   0.287311 0.484631 0.438030 0.184112
N11   N     N_1   0.247994 0.510307 0.431293 -0.044345
C104  C     C_1   0.702236 0.751084 0.564845 0.221532
N12   N     N_1   0.736664 0.832492 0.572247 -0.043585
N13   N     N_R   0.854632 0.930544 0.042827 0.230736
O29   O     O_R   0.827606 0.043544 0.056311 -0.331702
O30   O     O_R   0.864026 0.768255 0.066212 -0.362800
N14   N     N_R   0.145898 0.085170 0.957893 0.231004
O31   O     O_R   0.174175 0.978032 0.944582 -0.330951
O32   O     O_R   0.135294 0.247738 0.934914 -0.363915
N15   N     N_R   0.635571 0.714838 0.455520 0.230091
O33   O     O_R   0.642999 0.890075 0.451918 -0.349961
O34   O     O_R   0.640712 0.602600 0.419472 -0.330034
N16   N     N_R   0.357356 0.455823 0.547263 0.234543
O35   O     O_R   0.326964 0.338373 0.552195 -0.332414
O36   O     O_R   0.371344 0.591229 0.582019 -0.351545
C105  C     C_1   0.938127 0.214511 0.353893 0.350188
N17   N     N_1   0.922989 0.275969 0.309380 -0.002217
C106  C     C_1   0.073353 0.801449 0.657505 0.357938
N18   N     N_1   0.089206 0.748635 0.702972 0.003405
C107  C     C_1   0.521502 0.928613 0.100017 0.343305
N19   N     N_1   0.524587 0.045718 0.131082 -0.037040
C108  C     C_1   0.475213 0.076770 0.895824 0.343102
N20   N     N_1   0.471903 0.960320 0.864487 -0.035007
N21   N     N_R   0.881032 0.225524 0.414947 0.264974
O37   O     O_R   0.873344 0.386013 0.431980 -0.329279
O38   O     O_R   0.848404 0.151001 0.372320 -0.298710
N22   N     N_R   0.129630 0.779629 0.595627 0.265641
O39   O     O_R   0.165394 0.891811 0.610037 -0.283292
O40   O     O_R   0.136636 0.606823 0.610374 -0.331890
N23   N     N_R   0.585313 0.926105 0.047363 0.263958
O41   O     O_R   0.574251 0.099965 0.038631 -0.400938
O42   O     O_R   0.629049 0.878408 0.075901 -0.285881
N24   N     N_R   0.411772 0.078185 0.948978 0.263695
O43   O     O_R   0.367996 0.125951 0.920701 -0.285059
O44   O     O_R   0.422858 0.904299 0.957494 -0.401305
C109  C     C_1   0.871072 0.749984 0.714750 0.098485
N25   N     N_1   0.873841 0.630825 0.745696 -0.056689
C110  C     C_1   0.099117 0.792463 0.256353 0.068949
N26   N     N_1   0.083317 0.728325 0.212682 -0.083946
C111  C     C_1   0.595152 0.656338 0.748276 0.058204
N27   N     N_1   0.578805 0.700007 0.701997 -0.080725
C112  C     C_1   0.402511 0.301869 0.245485 0.066722
N28   N     N_1   0.418565 0.239282 0.289780 -0.078319

loop_
_geom_bond_atom_site_label_1
_geom_bond_atom_site_label_2
_geom_bond_distance
_ccdc_geom_bond_type
C86   C98   1.443643 S    
O17   V3    1.775038 S    
C59   C63   1.418647 A    
C110  N26   1.156972 T    
C25   C29   1.421920 A    
O1    C5    1.330275 A    
C99   N7    1.157291 T    
N3    C51   1.365658 A    
O19   V1    1.767082 S    
C9    C21   1.403082 A    
C109  N25   1.157392 T    
C90   H18   1.084038 S    
C68   C108  1.451182 S    
O3    C7    1.328298 A    
C102  N10   1.157479 T    
C10   C18   1.405418 A    
C60   C64   1.418586 A    
C84   C88   1.415271 A    
C11   C23   1.407770 A    
C57   C58   1.422061 A    
C107  N19   1.157738 T    
C18   C101  1.449996 S    
C89   C93   1.400266 A    
C33   C38   1.409356 A    
N15   O34   1.300889 A    
C5    C12   1.482276 S    
C45   C61   1.416450 A    
C105  N17   1.157807 T    
C81   C85   1.421091 A    
C6    C11   1.487767 S    
C35   C40   1.409147 A    
C103  N11   1.157556 T    
C47   C63   1.420597 A    
C36   C39   1.407811 A    
C50   O26   1.348159 S    
O9    V1    2.004719 S    
C23   H8    1.078080 S    
C14   C18   1.407170 A    
C79   C83   1.414247 A    
C54   C66   1.421407 A    
C88   C100  1.444004 S    
C66   C70   1.407200 A    
O4    C8    1.328958 A    
C55   C59   1.421428 A    
C44   H4    1.082061 S    
C54   C58   1.418480 A    
C52   C56   1.425495 A    
O13   V1    1.974461 S    
C31   C43   1.401231 A    
C76   C80   1.405372 A    
O2    V4    1.978772 S    
N13   O29   1.301066 A    
C32   C44   1.402766 A    
O3    V1    1.988147 S    
N1    C94   1.449531 S    
C65   C69   1.406776 A    
C28   C36   1.437270 A    
C53   C65   1.422308 A    
C87   C91   1.404839 A    
C1    O15   1.325472 A    
C15   C31   1.415172 A    
C100  N8    1.157092 T    
C37   H9    1.075598 S    
C16   C32   1.419908 A    
O2    C6    1.337905 A    
N24   O43   1.301013 A    
C10   C22   1.402772 A    
C23   C27   1.425113 A    
C11   C19   1.409006 A    
C73   C77   1.402023 A    
C16   C20   1.410033 A    
C43   H3    1.082044 S    
C80   C84   1.415324 A    
C76   H16   1.084069 S    
C13   C29   1.419035 A    
O11   C7    1.338838 A    
C34   C37   1.408959 A    
C91   C95   1.402029 A    
C76   C96   1.401248 A    
O15   V3    1.976482 S    
C35   C36   1.434610 A    
O12   C8    1.337534 A    
C49   C53   1.420995 A    
C40   H12   1.076970 S    
C24   H7    1.076525 S    
N13   O30   1.301134 A    
C78   C82   1.412564 A    
O10   V2    2.004719 S    
C72   N24   1.436941 S    
N14   O32   1.301157 A    
C22   C26   1.422916 A    
C50   C54   1.421741 A    
O5    V1    1.992099 S    
O1    V3    1.978773 S    
C75   C95   1.402394 A    
O7    V3    1.996565 S    
C38   C42   1.387002 A    
O9    C5    1.337051 A    
C112  N28   1.157033 T    
C26   C34   1.440771 A    
N16   O35   1.301132 A    
C2    C83   1.486270 S    
C46   O22   1.348889 S    
C15   N15   1.436182 S    
C86   C90   1.400250 A    
C3    C82   1.478496 S    
C2    O16   1.324050 A    
C104  N12   1.157483 T    
N1    C49   1.368239 A    
O18   V4    1.775039 S    
C15   C19   1.405898 A    
C61   C70   1.417908 A    
C58   C62   1.414956 A    
C56   C68   1.423085 A    
C25   C33   1.441200 A    
C68   C72   1.408967 A    
C21   H6    1.076589 S    
N22   O40   1.301251 A    
C74   H14   1.084145 S    
O7    C3    1.321791 A    
C106  N18   1.157743 T    
C39   C43   1.385895 A    
C73   H13   1.084312 S    
C47   O23   1.348519 S    
C53   C57   1.419346 A    
C75   H15   1.083996 S    
C59   C60   1.427025 A    
C14   C30   1.418910 A    
C21   C25   1.423248 A    
O8    C4    1.332851 A    
C7    C10   1.480852 S    
C57   C61   1.416282 A    
C46   C62   1.415043 A    
C85   C97   1.439611 S    
N4    C52   1.366076 A    
C14   N14   1.437257 S    
C55   C67   1.422966 A    
C77   C81   1.424301 A    
C111  N27   1.157256 T    
O6    V2    1.992099 S    
C49   O25   1.348340 S    
C91   H19   1.083984 S    
C4    C81   1.503159 S    
C17   C102  1.449873 S    
N2    C50   1.369390 A    
O14   V2    1.974467 S    
C48   C64   1.420630 A    
N4    C95   1.448256 S    
C51   O27   1.348199 S    
C48   O24   1.348545 S    
N2    C93   1.451978 S    
C27   C35   1.440213 A    
C45   O21   1.348659 S    
C79   C111  1.444196 S    
C40   C44   1.390353 A    
C29   C41   1.400659 A    
N14   O31   1.301081 A    
O16   V4    1.976480 S    
C69   N21   1.436550 S    
C85   C89   1.399354 A    
C3    O13   1.325071 A    
C75   C79   1.405500 A    
C67   C71   1.408922 A    
C38   H10   1.075792 S    
C48   N4    1.365239 A    
O5    C1    1.324952 A    
N24   O44   1.300470 A    
C47   N3    1.364864 A    
C82   C86   1.411505 A    
C64   C71   1.418381 A    
N16   O36   1.301207 A    
O11   V3    1.988118 S    
C39   H11   1.077237 S    
C19   C104  1.448342 S    
O12   V4    1.988120 S    
C67   C107  1.451088 S    
C8    C9    1.479379 S    
C46   N2    1.368457 A    
N3    C96   1.447293 S    
C83   C87   1.414442 A    
C9    C17   1.404480 A    
N22   O39   1.301212 A    
C90   C94   1.404080 A    
C88   C92   1.405037 A    
C52   O28   1.348196 S    
C77   C109  1.445007 S    
O20   V2    1.767082 S    
C26   C30   1.421115 A    
N15   O33   1.301012 A    
C101  N9    1.157506 T    
C13   N13   1.437141 S    
O10   C6    1.332356 A    
C33   C34   1.434742 A    
C16   N16   1.437657 S    
O8    V4    1.996572 S    
C41   H1    1.082051 S    
C56   C60   1.421367 A    
C70   N22   1.435970 S    
C89   H17   1.084602 S    
C73   C93   1.401408 A    
C12   C24   1.402833 A    
C27   C31   1.420421 A    
C20   C103  1.449250 S    
C13   C17   1.406704 A    
N21   O37   1.301422 A    
C45   N1    1.367549 A    
C66   C106  1.451082 S    
C74   C94   1.404156 A    
C12   C20   1.404701 A    
O6    C2    1.324971 A    
C51   C55   1.425441 A    
N23   O41   1.300528 A    
C1    C84   1.488866 S    
C37   C41   1.386465 A    
C24   C28   1.421415 A    
C42   H2    1.082061 S    
C87   C99   1.444447 S    
C80   C112  1.443396 S    
C92   C96   1.401189 A    
C4    O14   1.327309 A    
C98   N6    1.156835 T    
C63   C72   1.418246 A    
C62   C69   1.416839 A    
C108  N20   1.157788 T    
C65   C105  1.451226 S    
C97   N5    1.155083 T    
C30   C42   1.400754 A    
C74   C78   1.400928 A    
C22   H5    1.074974 S    
O4    V2    1.988150 S    
C78   C110  1.443761 S    
C28   C32   1.418798 A    
C71   N23   1.436967 S    
N21   O38   1.301366 A    
N23   O42   1.301081 A    
C92   H20   1.083980 S    
