data_mof_unit_28655.cif
_audit_creation_date              2012-12-10T17:35:55-0500
_audit_creation_method            fapswitch 2.2
_symmetry_space_group_name_H-M    P1
_symmetry_Int_Tables_number       1
_space_group_crystal_system       triclinic
_cell_length_a                    24.321386
_cell_length_b                    24.320569
_cell_length_c                    27.5838
_cell_angle_alpha                 90.012547
_cell_angle_beta                  89.986988
_cell_angle_gamma                 90.00043
_cell_volume                      16316.0912468

loop_
_atom_site_label
_atom_site_type_symbol
_atom_type_description
_atom_site_fract_x
_atom_site_fract_y
_atom_site_fract_z
_atom_type_partial_charge
C1    C     C_1   0.000002 0.499988 0.569119 -0.114006
C2    C     C_1   0.000005 0.500006 0.474487 0.024361
C3    C     C_R   0.233981 0.316177 0.717751 -0.163731
C4    C     C_R   0.309390 0.772095 0.287860 -0.174401
C5    C     C_R   0.685107 0.232482 0.716606 -0.168728
C6    C     C_R   0.227848 0.309358 0.287920 -0.174431
C7    C     C_R   0.766037 0.683780 0.717650 -0.163414
C8    C     C_R   0.189519 0.271256 0.213158 -0.168909
C9    C     C_R   0.814746 0.732279 0.782997 -0.176296
C10   C     C_R   0.271283 0.810462 0.213118 -0.167197
C11   C     C_R   0.732544 0.185068 0.783326 -0.168666
C12   C     C_R   0.810383 0.728633 0.213029 -0.166889
C13   C     C_1   0.500009 0.000011 0.525513 0.024603
C14   C     C_R   0.185021 0.267522 0.782849 -0.176532
C15   C     C_R   0.729213 0.189123 0.213253 -0.168294
C16   C     C_R   0.267516 0.814949 0.782810 -0.176618
C17   C     C_R   0.190687 0.727839 0.787899 -0.174700
C18   C     C_R   0.816684 0.265505 0.218952 -0.171463
C19   C     C_R   0.272141 0.190698 0.787952 -0.174743
C20   C     C_R   0.734081 0.816258 0.217873 -0.163722
C21   C     C_R   0.809063 0.272510 0.787942 -0.170865
C22   C     C_R   0.183663 0.734136 0.217906 -0.163722
C23   C     C_R   0.727595 0.809068 0.788092 -0.173888
C24   C     C_1   0.499996 0.000010 0.474487 0.024377
C25   C     C_R   0.265827 0.183629 0.217908 -0.163807
C26   C     C_R   0.729075 0.769577 0.750546 -0.092684
C27   C     C_R   0.269915 0.228510 0.250467 -0.100196
C28   C     C_R   0.770231 0.270226 0.749964 -0.092304
C29   C     C_R   0.228564 0.730020 0.250420 -0.100409
C30   C     C_R   0.270799 0.230290 0.750502 -0.092506
C31   C     C_R   0.729955 0.771359 0.250377 -0.100124
C32   C     C_R   0.230340 0.729140 0.750484 -0.092630
C33   C     C_R   0.770602 0.270638 0.249957 -0.098916
C34   C     C_R   0.729665 0.229679 0.249946 -0.093746
C35   C     C_1   0.500060 0.000005 0.025513 0.023017
C36   C     C_R   0.271428 0.770008 0.750379 -0.100115
C37   C     C_R   0.770819 0.730279 0.250465 -0.092934
C38   C     C_R   0.229945 0.271388 0.750398 -0.100269
C39   C     C_R   0.269649 0.770887 0.250529 -0.092648
C40   C     C_R   0.729256 0.229228 0.749969 -0.101804
C41   C     C_R   0.229065 0.269609 0.250580 -0.092850
C42   C     C_R   0.769937 0.728481 0.750432 -0.100350
C43   C     C_R   0.684967 0.726065 0.681279 0.426350
C44   C     C_R   0.313076 0.272187 0.320425 0.433027
C45   C     C_R   0.727663 0.313052 0.679643 0.429657
C46   C     C_1   0.500061 0.000018 0.974487 0.023286
C47   C     C_R   0.272284 0.686783 0.320305 0.432655
C48   C     C_R   0.315098 0.273937 0.681383 0.426586
C49   C     C_R   0.686793 0.727715 0.320349 0.432638
C50   C     C_R   0.274117 0.684779 0.681444 0.427045
C51   C     C_R   0.724499 0.316076 0.317535 0.430018
C52   C     C_R   0.683702 0.275652 0.317164 0.428037
C53   C     C_R   0.314489 0.725594 0.680751 0.407852
C54   C     C_R   0.726518 0.686279 0.319458 0.427945
C55   C     C_R   0.274340 0.314369 0.680734 0.407859
C56   C     C_R   0.313716 0.726507 0.319438 0.428220
C57   C     C_1   0.000015 0.500054 0.025513 0.025915
C58   C     C_R   0.687618 0.271942 0.678884 0.411487
C59   C     C_R   0.273410 0.313668 0.319522 0.428258
C60   C     C_R   0.725751 0.685658 0.680587 0.407141
C61   C     C_R   0.184538 0.225676 0.181726 0.425252
C62   C     C_R   0.812680 0.771759 0.820790 0.432642
C63   C     C_R   0.225710 0.815417 0.181688 0.426249
C64   C     C_R   0.772057 0.187560 0.821005 0.411156
C65   C     C_R   0.815320 0.774194 0.181576 0.426425
C66   C     C_R   0.186942 0.227934 0.820540 0.432656
C67   C     C_R   0.775614 0.183823 0.182655 0.428415
C68   C     C_1   0.000003 0.500052 0.974487 0.026253
C69   C     C_R   0.227884 0.813045 0.820480 0.432856
C70   C     C_R   0.186424 0.773354 0.819579 0.428116
C71   C     C_R   0.816034 0.224630 0.182330 0.429637
C72   C     C_R   0.226649 0.186482 0.819662 0.427976
C73   C     C_R   0.774529 0.814594 0.180934 0.407591
C74   C     C_R   0.813146 0.227623 0.820223 0.429315
C75   C     C_R   0.185329 0.774609 0.181001 0.407718
C76   C     C_R   0.772945 0.813182 0.819948 0.428544
C77   C     C_R   0.225356 0.185305 0.181002 0.407908
C78   C     C_3   0.593576 0.702364 0.677484 0.155504
C79   C     C_R   0.999996 0.500009 0.879031 0.857858
C80   C     C_3   0.592453 0.639582 0.682505 -0.369228
C81   C     C_3   0.538072 0.619708 0.703853 -0.879241
C82   C     C_3   0.336041 0.228179 0.391341 0.154742
C83   C     C_3   0.291452 0.245833 0.427431 -0.388335
C84   C     C_3   0.283315 0.202536 0.466844 -0.869103
C85   C     C_3   0.704050 0.404414 0.674540 0.155214
C86   C     C_3   0.641279 0.405513 0.679660 -0.372241
C87   C     C_3   0.621392 0.460161 0.700480 -0.877307
C88   C     C_3   0.228445 0.663626 0.391275 0.153754
C89   C     C_3   0.246536 0.707489 0.427866 -0.387332
C90   C     C_R   0.000006 0.500012 0.120969 0.854653
C91   C     C_3   0.203338 0.715445 0.467410 -0.868463
C92   C     C_3   0.406581 0.297336 0.677666 0.154200
C93   C     C_3   0.408038 0.360095 0.682816 -0.368122
C94   C     C_3   0.462412 0.379582 0.704442 -0.882526
C95   C     C_3   0.663687 0.771760 0.391245 0.154644
C96   C     C_3   0.708282 0.754236 0.427352 -0.388476
C97   C     C_3   0.716277 0.797584 0.466760 -0.869449
C98   C     C_3   0.297810 0.593366 0.677894 0.156245
C99   C     C_3   0.360563 0.592261 0.683182 -0.370447
C100  C     C_3   0.380318 0.537922 0.704679 -0.879250
C101  C     C_R   0.500012 0.000006 0.879031 0.857965
C102  C     C_3   0.764208 0.341843 0.389692 0.145067
C103  C     C_3   0.739235 0.308679 0.431438 -0.377520
C104  C     C_3   0.779679 0.302859 0.473438 -0.857300
C105  C     C_3   0.592155 0.299287 0.318541 0.158623
C106  C     C_3   0.591013 0.361804 0.311482 -0.369476
C107  C     C_3   0.536972 0.380648 0.288805 -0.879922
C108  C     C_3   0.330438 0.761294 0.605932 0.140133
C109  C     C_3   0.367713 0.757294 0.561446 -0.302934
C110  C     C_3   0.350218 0.797492 0.521890 -0.861096
C111  C     C_3   0.702635 0.594830 0.322633 0.164367
C112  C     C_1   0.000005 0.500012 0.430881 -0.117219
C113  C     C_R   0.500010 0.999996 0.120968 0.854740
C114  C     C_3   0.640177 0.594518 0.315028 -0.377737
C115  C     C_3   0.620701 0.540184 0.293300 -0.872018
C116  C     C_3   0.238867 0.330251 0.605831 0.139834
C117  C     C_3   0.242798 0.367655 0.561439 -0.302959
C118  C     C_3   0.202993 0.349883 0.521665 -0.860910
C119  C     C_3   0.405198 0.702706 0.322470 0.159687
C120  C     C_3   0.405973 0.640191 0.315323 -0.371989
C121  C     C_3   0.460255 0.620990 0.293297 -0.877955
C122  C     C_3   0.673667 0.232773 0.605139 0.138450
C123  C     C_3   0.638351 0.235313 0.559370 -0.300221
C124  C     C_R   0.499995 0.000001 0.379031 0.855309
C125  C     C_3   0.655762 0.191935 0.522451 -0.871225
C126  C     C_3   0.297120 0.405182 0.322583 0.161195
C127  C     C_3   0.359599 0.405955 0.315203 -0.374130
C128  C     C_3   0.378685 0.460251 0.293141 -0.877598
C129  C     C_3   0.761212 0.670018 0.605618 0.141150
C130  C     C_3   0.757253 0.632755 0.561123 -0.304297
C131  C     C_3   0.797085 0.650602 0.521389 -0.861901
C132  C     C_3   0.093099 0.202036 0.178539 0.166198
C133  C     C_3   0.092462 0.139382 0.184852 -0.377579
C134  C     C_3   0.038174 0.119638 0.206472 -0.874037
C135  C     C_R   0.500005 0.000003 0.620969 0.857235
C136  C     C_3   0.835215 0.727475 0.891675 0.154455
C137  C     C_3   0.790463 0.745088 0.927622 -0.388265
C138  C     C_3   0.782118 0.701750 0.966965 -0.870293
C139  C     C_3   0.201975 0.906826 0.178390 0.156692
C140  C     C_3   0.139235 0.907855 0.183845 -0.370281
C141  C     C_3   0.119480 0.962145 0.205467 -0.879876
C142  C     C_3   0.733116 0.173385 0.894818 0.140756
C143  C     C_3   0.735821 0.137931 0.940500 -0.303134
C144  C     C_3   0.692518 0.155163 0.977551 -0.872352
C145  C     C_3   0.906761 0.797820 0.178221 0.157548
C146  C     C_R   0.000003 0.500005 0.379031 0.855284
C147  C     C_3   0.907824 0.860540 0.183864 -0.371561
C148  C     C_3   0.962162 0.880185 0.205447 -0.879667
C149  C     C_3   0.164151 0.272127 0.891435 0.155257
C150  C     C_3   0.208920 0.254600 0.927375 -0.388257
C151  C     C_3   0.217176 0.297976 0.966714 -0.869959
C152  C     C_3   0.799487 0.092348 0.180966 0.155213
C153  C     C_3   0.862069 0.091257 0.187560 -0.368312
C154  C     C_3   0.881220 0.037102 0.209824 -0.881738
C155  C     C_3   0.272000 0.835868 0.891389 0.154578
C156  C     C_3   0.254452 0.791099 0.927329 -0.388214
C157  C     C_R   1.000000 0.499995 0.620969 0.857151
C158  C     C_3   0.297790 0.782871 0.966687 -0.870411
C159  C     C_3   0.094939 0.797104 0.822864 0.158894
C160  C     C_3   0.094057 0.859644 0.815939 -0.371694
C161  C     C_3   0.039738 0.878837 0.794007 -0.877965
C162  C     C_3   0.841822 0.264580 0.110281 0.146380
C163  C     C_3   0.808139 0.239968 0.068690 -0.378323
C164  C     C_3   0.802303 0.280571 0.026810 -0.855682
C165  C     C_3   0.202877 0.095009 0.823052 0.159162
C166  C     C_3   0.140328 0.094141 0.816196 -0.371522
C167  C     C_3   0.121076 0.039784 0.794352 -0.877264
C168  C     C_R   0.105971 0.605996 0.750025 0.956568
C169  C     C_3   0.739298 0.830699 0.105979 0.140613
C170  C     C_3   0.743263 0.868318 0.061732 -0.305814
C171  C     C_3   0.703887 0.850404 0.021675 -0.862437
C172  C     C_3   0.904581 0.204206 0.825058 0.159452
C173  C     C_3   0.905672 0.141489 0.819414 -0.373945
C174  C     C_3   0.960243 0.121847 0.798260 -0.875104
C175  C     C_3   0.169377 0.739406 0.105998 0.139633
C176  C     C_3   0.131873 0.743421 0.061682 -0.303196
C177  C     C_3   0.149786 0.703967 0.021670 -0.860926
C178  C     C_3   0.796635 0.904659 0.823779 0.152918
C179  C     C_R   0.894095 0.394117 0.250012 0.987028
C180  C     C_3   0.859255 0.905811 0.817500 -0.368228
C181  C     C_3   0.878528 0.960266 0.795874 -0.880862
C182  C     C_3   0.260511 0.169393 0.105972 0.139742
C183  C     C_3   0.256480 0.131903 0.061632 -0.302921
C184  C     C_3   0.295885 0.149861 0.021604 -0.860891
C185  C     C_R   0.606007 0.894031 0.750036 0.956162
C186  C     C_R   0.393977 0.105706 0.249817 0.995750
C187  C     C_R   0.893996 0.394014 0.749985 0.952812
C188  C     C_1   0.500014 0.000008 0.569119 -0.114368
C189  C     C_R   0.105720 0.606008 0.249826 0.995771
C190  C     C_R   0.393989 0.105963 0.750042 0.956657
C191  C     C_R   0.605999 0.894267 0.249834 0.996032
C192  C     C_R   0.106006 0.394039 0.250038 0.959599
C193  C     C_R   0.893987 0.605701 0.749818 0.996961
C194  C     C_R   0.605987 0.105954 0.249974 0.962187
C195  C     C_R   0.394284 0.893999 0.749827 0.995934
C196  C     C_R   0.894003 0.605972 0.250031 0.958793
C197  C     C_R   0.105999 0.394280 0.749825 0.995959
C198  C     C_R   0.394031 0.893999 0.250032 0.957174
C199  C     C_1   0.499989 0.000006 0.430881 -0.117577
C200  C     C_R   0.605857 0.105837 0.750010 1.002990
C201  C     C_R   0.680102 0.842164 0.792543 0.362868
C202  C     C_R   0.301634 0.138396 0.224582 0.374652
C203  C     C_R   0.841519 0.320359 0.792479 0.359798
C204  C     C_R   0.138422 0.698347 0.224617 0.374819
C205  C     C_R   0.319642 0.157622 0.792459 0.363259
C206  C     C_R   0.698345 0.861518 0.224649 0.374256
C207  C     C_R   0.157593 0.680354 0.792412 0.363022
C208  C     C_R   0.861962 0.300881 0.226791 0.369215
C209  C     C_R   0.681654 0.156223 0.208317 0.362284
C210  C     C_1   0.500040 0.999994 0.069118 -0.117175
C211  C     C_R   0.302530 0.860548 0.775254 0.362092
C212  C     C_R   0.842657 0.680718 0.208121 0.356604
C213  C     C_R   0.139429 0.302546 0.775295 0.362752
C214  C     C_R   0.319212 0.842704 0.208178 0.357338
C215  C     C_R   0.697090 0.139596 0.776647 0.371127
C216  C     C_R   0.157337 0.319213 0.208203 0.360321
C217  C     C_R   0.860382 0.697309 0.775456 0.362175
C218  C     C_R   0.180398 0.342502 0.292430 0.361893
C219  C     C_R   0.801833 0.638517 0.724265 0.374789
C220  C     C_R   0.342515 0.819558 0.292387 0.363072
C221  C     C_1   0.500044 0.000018 0.930881 -0.116574
C222  C     C_R   0.639640 0.197028 0.723299 0.371507
C223  C     C_R   0.819576 0.657548 0.292375 0.365897
C224  C     C_R   0.198232 0.361455 0.724447 0.374506
C225  C     C_R   0.656242 0.181638 0.291574 0.362355
C226  C     C_R   0.361508 0.801750 0.724441 0.374313
C227  C     C_R   0.180683 0.657408 0.708095 0.357617
C228  C     C_R   0.800825 0.361997 0.273172 0.368903
C229  C     C_R   0.342446 0.180538 0.708087 0.357215
C230  C     C_R   0.639364 0.802417 0.275140 0.362212
C231  C     C_R   0.820348 0.341541 0.707449 0.359031
C232  C     C_1   0.000017 0.500039 0.069119 -0.114925
C233  C     C_R   0.197556 0.639392 0.275099 0.362587
C234  C     C_R   0.657590 0.819447 0.708064 0.358254
C235  C     C_R   0.360509 0.197499 0.275175 0.361950
C236  C     C_R   0.648506 0.851527 0.750169 -0.320649
C237  C     C_R   0.351497 0.147815 0.249728 -0.315529
C238  C     C_R   0.851483 0.351516 0.749971 -0.322582
C239  C     C_R   0.147843 0.648466 0.249730 -0.315686
C240  C     C_R   0.351459 0.148434 0.750170 -0.320832
C241  C     C_R   0.648443 0.852119 0.249751 -0.315686
C242  C     C_R   0.148463 0.648502 0.750141 -0.321440
C243  C     C_1   0.999993 0.500035 0.930880 -0.114341
C244  C     C_R   0.851741 0.351771 0.250003 -0.311422
C245  C     C_R   0.648475 0.148429 0.249956 -0.322567
C246  C     C_R   0.352163 0.851547 0.749726 -0.315252
C247  C     C_R   0.851506 0.648466 0.250143 -0.323965
C248  C     C_R   0.148435 0.352145 0.749735 -0.315310
C249  C     C_R   0.351545 0.851497 0.250160 -0.321838
C250  C     C_R   0.648122 0.148092 0.749997 -0.319404
C251  C     C_R   0.148514 0.351558 0.250182 -0.324545
C252  C     C_R   0.851517 0.647794 0.749720 -0.315637
C253  C     C_R   0.689762 0.771462 0.712938 -0.167355
C254  C     C_1   0.000004 0.499994 0.525513 0.024692
C255  C     C_R   0.314912 0.232490 0.282800 -0.176874
C256  C     C_R   0.772512 0.309051 0.711971 -0.169954
C257  C     C_R   0.232569 0.684980 0.282714 -0.176491
C258  C     C_R   0.310230 0.228491 0.712969 -0.167132
C259  C     C_R   0.684946 0.767389 0.282725 -0.176676
C260  C     C_R   0.228620 0.689652 0.712990 -0.167579
C261  C     C_R   0.765437 0.316716 0.280969 -0.171552
C262  C     C_R   0.689096 0.229217 0.286620 -0.168912
C263  C     C_R   0.316247 0.765979 0.717747 -0.164255
C264  C     C_R   0.772070 0.690589 0.287829 -0.175612
H1    H     H_    0.556573 0.715598 0.656953 0.228020
H2    H     H_    0.303272 0.285461 0.444609 0.269270
H3    H     H_    0.275691 0.408549 0.286974 0.108185
H4    H     H_    0.380514 0.399855 0.350622 0.263938
H5    H     H_    0.371627 0.371882 0.290577 0.249233
H6    H     H_    0.357997 0.467415 0.257801 0.284707
H7    H     H_    0.423808 0.458904 0.287101 0.259212
H8    H     H_    0.369316 0.494911 0.318041 0.291098
H9    H     H_    0.804555 0.670439 0.618716 0.146500
H10   H     H_    0.748959 0.712468 0.594717 0.150549
H11   H     H_    0.766768 0.589701 0.571674 0.275047
H12   H     H_    0.714591 0.633967 0.546698 0.233726
H13   H     H_    0.251940 0.251693 0.407948 0.252722
H14   H     H_    0.787876 0.693228 0.509577 0.264933
H15   H     H_    0.792872 0.622775 0.489693 0.305908
H16   H     H_    0.840133 0.648496 0.534707 0.268642
H17   H     H_    0.055984 0.214434 0.157763 0.231811
H18   H     H_    0.089895 0.222760 0.214505 0.106287
H19   H     H_    0.098720 0.119248 0.149091 0.262285
H20   H     H_    0.126495 0.126885 0.209322 0.249189
H21   H     H_    0.030697 0.139724 0.242042 0.285652
H22   H     H_    0.039761 0.074431 0.211946 0.257833
H23   H     H_    0.003604 0.129171 0.181544 0.291699
H24   H     H_    0.271539 0.162533 0.450404 0.268947
H25   H     H_    0.872977 0.717252 0.912448 0.211869
H26   H     H_    0.822777 0.689024 0.872558 0.118866
H27   H     H_    0.802211 0.784694 0.944881 0.268889
H28   H     H_    0.751046 0.750975 0.907999 0.253266
H29   H     H_    0.770443 0.661762 0.950442 0.269293
H30   H     H_    0.748733 0.714884 0.991833 0.270242
H31   H     H_    0.820413 0.696425 0.988401 0.289777
H32   H     H_    0.214997 0.943939 0.157902 0.228569
H33   H     H_    0.222035 0.909743 0.214663 0.107801
H34   H     H_    0.119712 0.901966 0.147782 0.260909
H35   H     H_    0.250075 0.215695 0.491850 0.270125
H36   H     H_    0.126073 0.873748 0.207965 0.250151
H37   H     H_    0.138919 0.969220 0.241370 0.284757
H38   H     H_    0.074163 0.960862 0.210263 0.258200
H39   H     H_    0.129765 0.996819 0.180882 0.291239
H40   H     H_    0.690466 0.172147 0.880104 0.149010
H41   H     H_    0.743680 0.216540 0.904942 0.141980
H42   H     H_    0.729071 0.094111 0.930737 0.275439
H43   H     H_    0.777323 0.141750 0.957053 0.231592
H44   H     H_    0.698572 0.198702 0.988397 0.264968
H45   H     H_    0.696047 0.128848 0.010279 0.307114
H46   H     H_    0.321727 0.197222 0.488120 0.289911
H47   H     H_    0.650614 0.150133 0.962162 0.269104
H48   H     H_    0.943838 0.784861 0.157637 0.228364
H49   H     H_    0.909726 0.777622 0.214428 0.107883
H50   H     H_    0.901876 0.880208 0.147872 0.261014
H51   H     H_    0.873770 0.873620 0.208089 0.249965
H52   H     H_    0.969304 0.860586 0.241270 0.285123
H53   H     H_    0.960908 0.925481 0.210401 0.257957
H54   H     H_    0.996781 0.869998 0.180758 0.291196
H55   H     H_    0.126340 0.282221 0.912208 0.212427
H56   H     H_    0.176499 0.310637 0.872378 0.118849
H57   H     H_    0.717168 0.441040 0.653427 0.225674
H58   H     H_    0.197230 0.214985 0.944635 0.269361
H59   H     H_    0.248356 0.248765 0.907750 0.252755
H60   H     H_    0.228782 0.337977 0.950188 0.269033
H61   H     H_    0.250578 0.284924 0.991578 0.270152
H62   H     H_    0.178865 0.303244 0.988157 0.290055
H63   H     H_    0.786844 0.054940 0.160703 0.229371
H64   H     H_    0.778598 0.090078 0.216912 0.107937
H65   H     H_    0.882471 0.096855 0.151835 0.261327
H66   H     H_    0.874665 0.125512 0.211748 0.252423
H67   H     H_    0.860859 0.030281 0.245372 0.284864
H68   H     H_    0.723859 0.408252 0.710848 0.109037
H69   H     H_    0.926405 0.038389 0.215492 0.258951
H70   H     H_    0.871541 0.002273 0.185209 0.290559
H71   H     H_    0.282059 0.873687 0.912160 0.211749
H72   H     H_    0.310532 0.823530 0.872349 0.119018
H73   H     H_    0.214816 0.802779 0.944570 0.269164
H74   H     H_    0.248652 0.751655 0.907708 0.252805
H75   H     H_    0.337810 0.771276 0.950179 0.269155
H76   H     H_    0.284726 0.749468 0.991552 0.270217
H77   H     H_    0.303020 0.821190 0.988125 0.289695
H78   H     H_    0.057969 0.784845 0.843919 0.228244
H79   H     H_    0.622003 0.399019 0.643575 0.261350
H80   H     H_    0.091596 0.775979 0.787100 0.108275
H81   H     H_    0.100112 0.880254 0.851512 0.263377
H82   H     H_    0.128117 0.871947 0.791411 0.249859
H83   H     H_    0.032647 0.858494 0.758491 0.284363
H84   H     H_    0.041001 0.924027 0.788346 0.259713
H85   H     H_    0.005078 0.869137 0.818805 0.290673
H86   H     H_    0.881471 0.279661 0.095369 0.214006
H87   H     H_    0.820367 0.301289 0.125575 0.110751
H88   H     H_    0.828574 0.202031 0.055233 0.262523
H89   H     H_    0.766563 0.228924 0.082096 0.264169
H90   H     H_    0.627959 0.371806 0.704150 0.249380
H91   H     H_    0.780727 0.318315 0.039159 0.267014
H92   H     H_    0.778120 0.261481 0.997133 0.273244
H93   H     H_    0.843400 0.291874 0.012327 0.289354
H94   H     H_    0.215150 0.058066 0.844125 0.228363
H95   H     H_    0.223953 0.091600 0.787269 0.108327
H96   H     H_    0.119772 0.100279 0.851785 0.263413
H97   H     H_    0.128008 0.128157 0.791641 0.249995
H98   H     H_    0.141371 0.032603 0.758826 0.284380
H99   H     H_    0.075882 0.041064 0.788732 0.259730
H100  H     H_    0.130782 0.005172 0.819186 0.290711
H101  H     H_    0.640459 0.467735 0.736459 0.285246
H102  H     H_    0.695928 0.830112 0.119022 0.145398
H103  H     H_    0.751649 0.788354 0.094825 0.151096
H104  H     H_    0.733295 0.911208 0.072501 0.274406
H105  H     H_    0.786038 0.867577 0.047527 0.234259
H106  H     H_    0.713575 0.807947 0.009662 0.265534
H107  H     H_    0.708084 0.878487 0.990160 0.304855
H108  H     H_    0.660724 0.852023 0.034773 0.268782
H109  H     H_    0.941222 0.217089 0.846260 0.228653
H110  H     H_    0.908407 0.224410 0.788921 0.107302
H111  H     H_    0.899325 0.121829 0.855359 0.261936
H112  H     H_    0.590513 0.722132 0.713881 0.108095
H113  H     H_    0.576024 0.459034 0.704915 0.258256
H114  H     H_    0.871876 0.128414 0.794917 0.248998
H115  H     H_    0.967639 0.141263 0.762396 0.284399
H116  H     H_    0.959131 0.076517 0.793498 0.258802
H117  H     H_    0.994637 0.132276 0.823105 0.291540
H118  H     H_    0.169932 0.696023 0.118993 0.145970
H119  H     H_    0.211748 0.751763 0.094937 0.151040
H120  H     H_    0.088935 0.733562 0.072372 0.275485
H121  H     H_    0.132746 0.786184 0.047469 0.234355
H122  H     H_    0.192293 0.713539 0.009734 0.264738
H123  H     H_    0.121789 0.708206 0.990103 0.306047
H124  H     H_    0.632020 0.494452 0.675588 0.290461
H125  H     H_    0.148029 0.660817 0.034775 0.268588
H126  H     H_    0.783942 0.941500 0.844818 0.224793
H127  H     H_    0.776002 0.908056 0.787803 0.109523
H128  H     H_    0.879397 0.899748 0.853271 0.262524
H129  H     H_    0.872026 0.871862 0.793035 0.250414
H130  H     H_    0.858670 0.967352 0.760153 0.284129
H131  H     H_    0.923799 0.959211 0.790698 0.259887
H132  H     H_    0.868321 0.994828 0.820625 0.289981
H133  H     H_    0.303903 0.169968 0.118939 0.145840
H134  H     H_    0.248122 0.211763 0.094947 0.151194
H135  H     H_    0.217982 0.625531 0.411481 0.212016
H136  H     H_    0.266377 0.088966 0.072283 0.275486
H137  H     H_    0.213705 0.132754 0.047449 0.234725
H138  H     H_    0.286275 0.192369 0.009708 0.264736
H139  H     H_    0.291634 0.121875 0.990020 0.306130
H140  H     H_    0.339046 0.148125 0.034677 0.268596
H141  H     H_    0.578578 0.866353 0.888492 0.381611
H142  H     H_    0.293484 0.986969 0.231428 0.372234
H143  H     H_    0.863342 0.423213 0.887724 0.381999
H144  H     H_    0.987013 0.706478 0.231597 0.372186
H145  H     H_    0.420525 0.132493 0.888725 0.381012
H146  H     H_    0.190030 0.676768 0.372483 0.118052
H147  H     H_    0.707909 0.012788 0.232659 0.373444
H148  H     H_    0.132389 0.579539 0.888730 0.381210
H149  H     H_    0.011121 0.287824 0.246040 0.372647
H150  H     H_    0.583328 0.128418 0.110485 0.380247
H151  H     H_    0.290759 0.010958 0.763837 0.373206
H152  H     H_    0.866636 0.579886 0.111548 0.382208
H153  H     H_    0.989017 0.291016 0.763940 0.372191
H154  H     H_    0.419913 0.866800 0.111517 0.381711
H155  H     H_    0.706520 0.988152 0.772196 0.373673
H156  H     H_    0.133445 0.419920 0.111574 0.381317
H157  H     H_    0.286051 0.695026 0.444876 0.268731
H158  H     H_    0.010847 0.709038 0.764563 0.373239
H159  H     H_    0.079712 0.367936 0.388839 0.381876
H160  H     H_    0.794126 0.486961 0.729909 0.372004
H161  H     H_    0.368076 0.920140 0.388859 0.381163
H162  H     H_    0.488206 0.205898 0.727487 0.372862
H163  H     H_    0.920334 0.632525 0.388748 0.380846
H164  H     H_    0.206481 0.512881 0.731103 0.372217
H165  H     H_    0.628239 0.083492 0.389502 0.380116
H166  H     H_    0.512934 0.793605 0.731053 0.372137
H167  H     H_    0.079735 0.633620 0.611611 0.381615
H168  H     H_    0.252782 0.747227 0.408837 0.253565
H169  H     H_    0.787596 0.511194 0.253961 0.373429
H170  H     H_    0.365605 0.079240 0.611756 0.381939
H171  H     H_    0.489025 0.790611 0.263298 0.373224
H172  H     H_    0.923341 0.363243 0.612296 0.382299
H173  H     H_    0.209420 0.489070 0.262991 0.373157
H174  H     H_    0.634305 0.920712 0.611760 0.381338
H175  H     H_    0.510835 0.209369 0.263335 0.373464
H176  H     H_    0.163501 0.728054 0.451157 0.268717
H177  H     H_    0.216931 0.748023 0.492903 0.270109
H178  H     H_    0.197511 0.676710 0.488121 0.289657
H179  H     H_    0.443535 0.283953 0.657122 0.227495
H180  H     H_    0.598437 0.620355 0.646323 0.260512
H181  H     H_    0.409509 0.277485 0.714028 0.107813
H182  H     H_    0.402395 0.379427 0.646644 0.260536
H183  H     H_    0.373955 0.373660 0.706802 0.250331
H184  H     H_    0.469154 0.360439 0.740515 0.283923
H185  H     H_    0.461513 0.424957 0.708883 0.258820
H186  H     H_    0.497102 0.368731 0.680050 0.291174
H187  H     H_    0.625761 0.781803 0.411872 0.211749
H188  H     H_    0.676105 0.810301 0.372271 0.118962
H189  H     H_    0.696540 0.714592 0.444534 0.269016
H190  H     H_    0.747825 0.748458 0.407882 0.252947
H191  H     H_    0.626466 0.626175 0.706617 0.250521
H192  H     H_    0.727965 0.837603 0.450315 0.268921
H193  H     H_    0.749528 0.784529 0.491777 0.270156
H194  H     H_    0.677834 0.802816 0.488024 0.289729
H195  H     H_    0.284692 0.556309 0.657364 0.228214
H196  H     H_    0.277851 0.590389 0.714214 0.107823
H197  H     H_    0.379987 0.598173 0.647075 0.260817
H198  H     H_    0.373833 0.626326 0.707311 0.250248
H199  H     H_    0.360993 0.530838 0.740633 0.284784
H200  H     H_    0.425653 0.539137 0.709336 0.258381
H201  H     H_    0.369899 0.503286 0.680085 0.290975
H202  H     H_    0.530923 0.638825 0.739887 0.284737
H203  H     H_    0.779565 0.381485 0.404398 0.212959
H204  H     H_    0.800782 0.319974 0.374599 0.110770
H205  H     H_    0.701425 0.329514 0.444694 0.262131
H206  H     H_    0.727900 0.267087 0.418262 0.264864
H207  H     H_    0.817273 0.280868 0.461307 0.267355
H208  H     H_    0.760309 0.279082 0.503231 0.273702
H209  H     H_    0.791282 0.343981 0.487680 0.288432
H210  H     H_    0.554722 0.286805 0.338845 0.231949
H211  H     H_    0.589953 0.278046 0.282753 0.106950
H212  H     H_    0.596348 0.382546 0.347086 0.261794
H213  H     H_    0.539278 0.574343 0.708305 0.258441
H214  H     H_    0.625404 0.374236 0.287376 0.251928
H215  H     H_    0.530474 0.360021 0.253330 0.284139
H216  H     H_    0.538178 0.425800 0.282903 0.259455
H217  H     H_    0.501985 0.371033 0.313265 0.291392
H218  H     H_    0.330274 0.804585 0.619183 0.146632
H219  H     H_    0.287921 0.749350 0.594959 0.149594
H220  H     H_    0.410827 0.766416 0.572081 0.275610
H221  H     H_    0.366184 0.714723 0.546816 0.233804
H222  H     H_    0.307529 0.788697 0.510005 0.264633
H223  H     H_    0.378036 0.793237 0.490189 0.306106
H224  H     H_    0.503485 0.630277 0.679270 0.290833
H225  H     H_    0.352662 0.840447 0.535416 0.268488
H226  H     H_    0.714245 0.557816 0.343901 0.229038
H227  H     H_    0.724254 0.591169 0.287126 0.108786
H228  H     H_    0.619132 0.601159 0.350323 0.264374
H229  H     H_    0.628574 0.628441 0.290103 0.249217
H230  H     H_    0.641579 0.532420 0.258134 0.285753
H231  H     H_    0.575638 0.541932 0.287003 0.258927
H232  H     H_    0.629514 0.505711 0.318540 0.290500
H233  H     H_    0.195540 0.329839 0.618987 0.146159
H234  H     H_    0.251062 0.287823 0.594793 0.150731
H235  H     H_    0.373931 0.218082 0.411982 0.212126
H236  H     H_    0.233233 0.410665 0.572117 0.275621
H237  H     H_    0.285463 0.366531 0.547000 0.234272
H238  H     H_    0.212267 0.307311 0.509722 0.264753
H239  H     H_    0.207168 0.377820 0.490048 0.306222
H240  H     H_    0.159941 0.351882 0.535003 0.268537
H241  H     H_    0.442224 0.714825 0.343502 0.228689
H242  H     H_    0.408510 0.723970 0.286776 0.108157
H243  H     H_    0.399886 0.619446 0.350826 0.263548
H244  H     H_    0.371892 0.628048 0.290766 0.249814
H245  H     H_    0.467398 0.641491 0.257865 0.284433
H246  H     H_    0.323564 0.189644 0.372378 0.118546
H247  H     H_    0.458897 0.575831 0.287446 0.259523
H248  H     H_    0.494928 0.630491 0.318128 0.290883
H249  H     H_    0.672416 0.190163 0.619946 0.149310
H250  H     H_    0.716843 0.243337 0.595088 0.142015
H251  H     H_    0.594514 0.228524 0.569046 0.277106
H252  H     H_    0.642164 0.276779 0.542742 0.231544
H253  H     H_    0.699324 0.198027 0.511693 0.264329
H254  H     H_    0.629540 0.195333 0.489655 0.308313
H255  H     H_    0.650753 0.150064 0.537917 0.268980
H256  H     H_    0.285112 0.442186 0.343711 0.228493
O1    O     O_3   1.000000 0.500000 0.750000 -0.548754
O2    O     O_R   0.954240 0.500000 0.143870 -0.627955
O3    O     O_2   0.778306 0.934592 0.198287 -0.297788
O4    O     O_2   0.687789 0.943250 0.159621 -0.306953
O5    O     O_3   0.700652 0.976758 0.248117 -0.524981
O6    O     O_2   0.157482 0.689578 0.891732 -0.280385
O7    O     O_2   0.071928 0.660960 0.851876 -0.312003
O8    O     O_3   0.152636 0.591426 0.859379 -0.510329
O9    O     O_2   0.935113 0.219438 0.203370 -0.296104
O10   O     O_2   0.950302 0.311151 0.168689 -0.316791
O11   O     O_3   0.973652 0.293729 0.259143 -0.516149
O12   O     O_2   0.693045 0.154514 0.109325 -0.284579
O13   O     O_R   0.500000 0.954240 0.856130 -0.627935
O14   O     O_2   0.664408 0.069311 0.149726 -0.314721
O15   O     O_3   0.594198 0.149062 0.139928 -0.511507
O16   O     O_2   0.222256 0.932727 0.803343 -0.292515
O17   O     O_2   0.314634 0.944882 0.837583 -0.314314
O18   O     O_3   0.296113 0.974380 0.748747 -0.520825
O19   O     O_2   0.840616 0.690130 0.108998 -0.258454
O20   O     O_2   0.927176 0.661643 0.147318 -0.314232
O21   O     O_3   0.846575 0.591800 0.140993 -0.512304
O22   O     O_2   0.067232 0.222334 0.803459 -0.291939
O23   O     O_2   0.055070 0.314773 0.837612 -0.316778
O24   O     O_R   0.500000 0.045760 0.143870 -0.627912
O25   O     O_3   0.025602 0.296108 0.748791 -0.520299
O26   O     O_2   0.309708 0.840635 0.109063 -0.258523
O27   O     O_2   0.338129 0.927240 0.147382 -0.314184
O28   O     O_3   0.408061 0.846725 0.140967 -0.512066
O29   O     O_2   0.776232 0.067224 0.806246 -0.294113
O30   O     O_2   0.684724 0.059725 0.843298 -0.310660
O31   O     O_3   0.699680 0.023755 0.755844 -0.527334
O32   O     O_2   0.159480 0.309635 0.109101 -0.259498
O33   O     O_2   0.072905 0.338208 0.147388 -0.302650
O34   O     O_3   0.153517 0.408033 0.141009 -0.513483
O35   O     O_R   0.454240 1.000000 0.356130 -0.627745
O36   O     O_2   0.932446 0.777503 0.803903 -0.292431
O37   O     O_2   0.944406 0.685054 0.838052 -0.314057
O38   O     O_3   0.974341 0.703722 0.749344 -0.521500
O39   O     O_2   0.189731 0.342814 0.391724 -0.280607
O40   O     O_2   0.161119 0.428306 0.351768 -0.310500
O41   O     O_3   0.091541 0.347657 0.359482 -0.511096
O42   O     O_2   0.722287 0.565339 0.697196 -0.294384
O43   O     O_2   0.812726 0.557848 0.658157 -0.313425
O44   O     O_3   0.800369 0.522745 0.746163 -0.524297
O45   O     O_2   0.342860 0.810149 0.391680 -0.280784
O46   O     O_R   0.545760 1.000000 0.643870 -0.628783
O47   O     O_2   0.428356 0.838718 0.351678 -0.310897
O48   O     O_3   0.347779 0.908361 0.359505 -0.510532
O49   O     O_2   0.567292 0.276083 0.693484 -0.294752
O50   O     O_2   0.559836 0.184471 0.656626 -0.310133
O51   O     O_3   0.523802 0.199666 0.744035 -0.528451
O52   O     O_2   0.810265 0.657625 0.391659 -0.282157
O53   O     O_2   0.838939 0.572003 0.351918 -0.306366
O54   O     O_3   0.908461 0.652729 0.359378 -0.511137
O55   O     O_2   0.278005 0.434537 0.697675 -0.295700
O56   O     O_2   0.187509 0.442650 0.658877 -0.310903
O57   O     O_R   1.000000 0.545760 0.356130 -0.627984
O58   O     O_3   0.200185 0.476978 0.747118 -0.524856
O59   O     O_2   0.654257 0.193234 0.390542 -0.284467
O60   O     O_2   0.569199 0.164468 0.349974 -0.308615
O61   O     O_3   0.648956 0.094313 0.360084 -0.512121
O62   O     O_2   0.434643 0.722029 0.697612 -0.295739
O63   O     O_2   0.442722 0.812558 0.658863 -0.311505
O64   O     O_3   0.477025 0.799836 0.747090 -0.524558
O65   O     O_2   0.189966 0.659665 0.608956 -0.258417
O66   O     O_2   0.161534 0.573017 0.647172 -0.314847
O67   O     O_3   0.091685 0.653633 0.641066 -0.511844
O68   O     O_R   0.000000 0.454240 0.643870 -0.628245
O69   O     O_2   0.719330 0.435159 0.296445 -0.295112
O70   O     O_2   0.810937 0.450276 0.331367 -0.316983
O71   O     O_3   0.793810 0.473753 0.240901 -0.515539
O72   O     O_2   0.339879 0.189585 0.608941 -0.258086
O73   O     O_2   0.426569 0.160964 0.646950 -0.316649
O74   O     O_3   0.345701 0.091362 0.641218 -0.511545
O75   O     O_2   0.567133 0.722099 0.303004 -0.292799
O76   O     O_2   0.554816 0.814478 0.337239 -0.314093
O77   O     O_3   0.525658 0.795937 0.248307 -0.520826
O78   O     O_2   0.812977 0.337875 0.608151 -0.258422
O79   O     O_R   0.545760 1.000000 0.356130 -0.627861
O80   O     O_2   0.841234 0.424878 0.645855 -0.317675
O81   O     O_3   0.910605 0.343656 0.641715 -0.509940
O82   O     O_2   0.277944 0.567152 0.302792 -0.292789
O83   O     O_2   0.185595 0.554708 0.337043 -0.314300
O84   O     O_3   0.204122 0.525728 0.248053 -0.520594
O85   O     O_2   0.660217 0.810425 0.608909 -0.258782
O86   O     O_2   0.573470 0.838890 0.646960 -0.315060
O87   O     O_3   0.654224 0.908631 0.641215 -0.511889
O88   O     O_2   0.432641 0.277897 0.303002 -0.294317
O89   O     O_2   0.444975 0.185564 0.337286 -0.310664
O90   O     O_R   0.454240 1.000000 0.643870 -0.628323
O91   O     O_3   0.474216 0.204040 0.248341 -0.522280
O92   O     O_R   1.000000 0.454240 0.356130 -0.627679
O93   O     O_3   1.000000 0.500000 0.250000 -0.548588
O94   O     O_R   0.000000 0.545760 0.643870 -0.628527
O95   O     O_R   0.110440 0.564520 0.777740 -0.575987
O96   O     O_R   0.889560 0.435480 0.222260 -0.592044
O97   O     O_R   0.564520 0.889560 0.777740 -0.576161
O98   O     O_R   0.435480 0.110440 0.222260 -0.592534
O99   O     O_R   0.889560 0.435480 0.777740 -0.575329
O100  O     O_R   0.110440 0.564520 0.222260 -0.592537
O101  O     O_R   0.435480 0.110440 0.777740 -0.575727
O102  O     O_R   0.564520 0.889560 0.222260 -0.592841
O103  O     O_R   0.110440 0.435480 0.222260 -0.579386
O104  O     O_3   0.500000 1.000000 0.750000 -0.548795
O105  O     O_R   0.889560 0.564520 0.777740 -0.593997
O106  O     O_R   0.564520 0.110440 0.222260 -0.579812
O107  O     O_R   0.435480 0.889560 0.777740 -0.593900
O108  O     O_R   0.889560 0.564520 0.222260 -0.580713
O109  O     O_R   0.110440 0.435480 0.777740 -0.593749
O110  O     O_R   0.435480 0.889560 0.222260 -0.579368
O111  O     O_R   0.564520 0.110440 0.777740 -0.593867
O112  O     O_R   0.610440 0.064520 0.277740 -0.576727
O113  O     O_R   0.389560 0.935480 0.722260 -0.592786
O114  O     O_R   0.064520 0.389560 0.277740 -0.580544
O115  O     O_3   0.500000 1.000000 0.250000 -0.548706
O116  O     O_R   0.935480 0.610440 0.722260 -0.592667
O117  O     O_R   0.389560 0.935480 0.277740 -0.576095
O118  O     O_R   0.610440 0.064520 0.722260 -0.593542
O119  O     O_R   0.935480 0.610440 0.277740 -0.576230
O120  O     O_R   0.064520 0.389560 0.722260 -0.592885
O121  O     O_R   0.610440 0.935480 0.722260 -0.575793
O122  O     O_R   0.389560 0.064520 0.277740 -0.593871
O123  O     O_R   0.064520 0.610440 0.722260 -0.578972
O124  O     O_R   0.935480 0.389560 0.277740 -0.592252
O125  O     O_R   0.389560 0.064520 0.722260 -0.579178
O126  O     O_R   0.954240 0.500000 0.856130 -0.628127
O127  O     O_R   0.610440 0.935480 0.277740 -0.593345
O128  O     O_R   0.935480 0.389560 0.722260 -0.578638
O129  O     O_R   0.064520 0.610440 0.277740 -0.593735
O130  O     O_3   0.640260 0.719421 0.650697 -0.567019
O131  O     O_3   0.349318 0.271594 0.359168 -0.561923
O132  O     O_3   0.721178 0.357239 0.648448 -0.566763
O133  O     O_3   0.271766 0.650425 0.358964 -0.562616
O134  O     O_3   0.359835 0.280594 0.650819 -0.566452
O135  O     O_3   0.650521 0.728286 0.359085 -0.562749
O136  O     O_3   0.280887 0.639982 0.650967 -0.566646
O137  O     O_R   0.045760 0.500000 0.143870 -0.628291
O138  O     O_3   0.723423 0.354310 0.354728 -0.566189
O139  O     O_3   0.638246 0.283473 0.346667 -0.573407
O140  O     O_3   0.350869 0.725854 0.642246 -0.560073
O141  O     O_3   0.719003 0.641489 0.349801 -0.571120
O142  O     O_3   0.274103 0.350776 0.642263 -0.559986
O143  O     O_3   0.358544 0.718925 0.349717 -0.570452
O144  O     O_3   0.652528 0.270304 0.639492 -0.558341
O145  O     O_3   0.281006 0.358495 0.349821 -0.570267
O146  O     O_3   0.726058 0.649329 0.642047 -0.560342
O147  O     O_3   0.139632 0.218809 0.151405 -0.567233
O148  O     O_R   0.500000 0.045760 0.856130 -0.628533
O149  O     O_3   0.848734 0.770971 0.859665 -0.562640
O150  O     O_3   0.218875 0.860286 0.151325 -0.566874
O151  O     O_3   0.770560 0.152370 0.860333 -0.558450
O152  O     O_3   0.860175 0.781031 0.151179 -0.567023
O153  O     O_3   0.150783 0.228638 0.859356 -0.562448
O154  O     O_3   0.783372 0.138471 0.153017 -0.573889
O155  O     O_3   0.228541 0.849216 0.859290 -0.562421
O156  O     O_3   0.141668 0.780860 0.849975 -0.570231
O157  O     O_3   0.854241 0.223634 0.145112 -0.566384
O158  O     O_3   0.219178 0.141775 0.850105 -0.570339
O159  O     O_R   0.500000 0.954240 0.143870 -0.627939
O160  O     O_3   0.774367 0.851147 0.142569 -0.560079
O161  O     O_3   0.857425 0.221079 0.851309 -0.566332
O162  O     O_3   0.148836 0.774434 0.142594 -0.560035
O163  O     O_3   0.780232 0.857758 0.850588 -0.570669
O164  O     O_3   0.225527 0.148817 0.142577 -0.559700
O165  O     O_2   0.688733 0.841670 0.891915 -0.280224
O166  O     O_2   0.659987 0.927373 0.852406 -0.320228
O167  O     O_3   0.590773 0.846298 0.859132 -0.509202
O168  O     O_2   0.221844 0.065200 0.198106 -0.295967
O169  O     O_2   0.312232 0.057086 0.159076 -0.310165
O170  O     O_R   0.045760 0.500000 0.856130 -0.628391
O171  O     O_3   0.299825 0.022903 0.247384 -0.524788
O172  O     O_2   0.838036 0.312822 0.891769 -0.258388
O173  O     O_2   0.924949 0.341176 0.853958 -0.310405
O174  O     O_3   0.843713 0.410518 0.858313 -0.510448
O175  O     O_2   0.065240 0.778156 0.198155 -0.296146
O176  O     O_2   0.057042 0.687727 0.159215 -0.310575
O177  O     O_3   0.022958 0.700257 0.247555 -0.524481
O178  O     O_2   0.310499 0.157645 0.891781 -0.280455
O179  O     O_2   0.339049 0.072026 0.851959 -0.311532
O180  O     O_3   0.408623 0.152716 0.859374 -0.510829
S1    S     S_3+6 0.656438 0.865705 0.850639 0.034116
S2    S     S_3+6 0.282804 0.928879 0.793070 0.026547
S3    S     S_3+6 0.865572 0.657546 0.149718 0.042054
S4    S     S_3+6 0.071091 0.282865 0.793132 0.025513
S5    S     S_3+6 0.342306 0.865640 0.149763 0.042421
S6    S     S_3+6 0.715467 0.071887 0.797270 0.029252
S7    S     S_3+6 0.134503 0.342304 0.149782 0.045466
S8    S     S_3+6 0.928632 0.716973 0.793530 0.026860
S9    S     S_3+6 0.157238 0.366646 0.350476 0.035373
S10   S     S_3+6 0.783265 0.570409 0.704753 0.027863
S11   S     S_3+6 0.366701 0.842655 0.350433 0.035837
S12   S     S_3+6 0.282838 0.070176 0.205591 0.028307
S13   S     S_3+6 0.571955 0.215345 0.702595 0.028970
S14   S     S_3+6 0.842777 0.633656 0.350461 0.036857
S15   S     S_3+6 0.217029 0.429621 0.705326 0.028294
S16   S     S_3+6 0.630821 0.159959 0.349607 0.035416
S17   S     S_3+6 0.429689 0.782998 0.705298 0.027938
S18   S     S_3+6 0.157437 0.634619 0.649682 0.042374
S19   S     S_3+6 0.780086 0.431117 0.287295 0.024486
S20   S     S_3+6 0.364965 0.157080 0.649650 0.042490
S21   S     S_3+6 0.570991 0.782649 0.292761 0.026357
S22   S     S_3+6 0.844831 0.363286 0.649108 0.042608
S23   S     S_3+6 0.863352 0.344760 0.850816 0.044969
S24   S     S_3+6 0.217389 0.570994 0.292584 0.026422
S25   S     S_3+6 0.635067 0.842883 0.649638 0.042663
S26   S     S_3+6 0.428844 0.217335 0.292785 0.027283
S27   S     S_3+6 0.070196 0.717167 0.205688 0.028252
S28   S     S_3+6 0.342915 0.133683 0.850521 0.035862
S29   S     S_3+6 0.717327 0.929764 0.205956 0.029465
S30   S     S_3+6 0.133587 0.657120 0.850477 0.035760
S31   S     S_3+6 0.931080 0.280163 0.212667 0.023934
S32   S     S_3+6 0.659873 0.130932 0.150262 0.033439
Zn1   Zn    Zn3+2 1.000000 0.565500 0.710070 1.098044
Zn2   Zn    Zn3+2 0.500000 0.934500 0.789930 1.098632
Zn3   Zn    Zn3+2 0.065500 0.500000 0.210070 1.098171
Zn4   Zn    Zn3+2 0.934500 0.500000 0.789930 1.098390
Zn5   Zn    Zn3+2 0.500000 0.934500 0.210070 1.098255
Zn6   Zn    Zn3+2 0.500000 0.065500 0.789930 1.099353
Zn7   Zn    Zn3+2 0.934500 0.500000 0.210070 1.097261
Zn8   Zn    Zn3+2 0.065500 0.500000 0.789930 1.098475
Zn9   Zn    Zn3+2 1.000000 0.434500 0.289930 1.097780
Zn10  Zn    Zn3+2 0.565500 0.000000 0.710070 1.098922
Zn11  Zn    Zn3+2 0.434500 1.000000 0.289930 1.098770
Zn12  Zn    Zn3+2 1.000000 0.434500 0.710070 1.097539
Zn13  Zn    Zn3+2 1.000000 0.565500 0.289930 1.098603
Zn14  Zn    Zn3+2 0.434500 0.000000 0.710070 1.098043
Zn15  Zn    Zn3+2 0.565500 1.000000 0.289930 1.099442
Zn16  Zn    Zn3+2 0.500000 0.065500 0.210070 1.098651

loop_
_geom_bond_atom_site_label_1
_geom_bond_atom_site_label_2
_ccdc_geom_bond_type
H162  O51   S    
C167  H99   S    
C126  C127  S    
C22   C29   A    
C235  C237  A    
C7    C60   A    
C122  H249  S    
C132  H18   S    
C10   C63   A    
C138  H30   S    
C125  H255  S    
C202  C237  A    
C114  C115  S    
O180  S28   S    
C144  H47   S    
H167  O67   S    
C140  H36   S    
C1    C254  T    
O62   S17   D    
C141  H37   S    
C66   C72   A    
C189  O129  A    
C3    C224  A    
C23   C201  A    
O1    Zn12  S    
C22   C75   A    
C211  C246  A    
C113  C210  S    
C164  H91   S    
C136  H25   S    
C73   O160  S    
O112  Zn15  S    
O35   Zn11  S    
H158  O38   S    
C106  C107  S    
C28   C40   A    
C181  H130  S    
C61   O147  S    
O104  Zn10  S    
C108  C109  S    
C30   C38   A    
C107  H216  S    
C7    C42   A    
C104  H209  S    
O70   S19   D    
O54   S14   S    
C203  C238  A    
C95   H187  S    
C168  C242  S    
C152  H63   S    
C97   H193  S    
H144  O177  S    
C186  O98   A    
C217  C252  A    
C117  H237  S    
C92   O134  S    
O3    S29   D    
C211  S2    S    
O9    S31   D    
C43   C253  A    
C208  S31   S    
C132  H17   S    
C84   H24   S    
O120  Zn12  S    
O80   S22   D    
C163  H88   S    
C4    C56   A    
C102  H204  S    
C129  H10   S    
C191  C241  S    
C234  C236  A    
C204  C239  A    
C107  H217  S    
C190  O125  A    
C185  O121  A    
C223  C264  A    
C50   O136  S    
C82   H235  S    
C54   O141  S    
C206  S29   S    
C119  O143  S    
C86   H90   S    
O36   S8    D    
C50   C53   A    
O13   Zn2   S    
O108  Zn7   S    
O85   S25   D    
C51   C52   A    
C117  H236  S    
C69   O155  S    
C140  C141  S    
C153  H66   S    
C91   H176  S    
C148  H53   S    
C80   H180  S    
C2    C112  T    
C149  H56   S    
C183  H136  S    
C8    C216  A    
C133  H19   S    
O23   S4    D    
C29   C257  A    
C31   C37   A    
C14   C213  A    
C160  H82   S    
C76   O163  S    
C106  H212  S    
C183  C184  S    
C226  S17   S    
C178  O163  S    
C143  H43   S    
C14   C38   A    
C94   H185  S    
C177  H122  S    
H166  O64   S    
C175  C176  S    
C228  C244  A    
C120  H243  S    
C48   C258  A    
C184  H139  S    
C79   O170  A    
O123  Zn1   S    
O103  Zn3   S    
O7    S30   D    
C231  C256  A    
C85   H57   S    
C131  H16   S    
O75   S21   D    
C198  O110  A    
O115  Zn15  S    
O26   S5    D    
C197  O109  A    
C21   C28   A    
C25   C202  A    
O89   S26   D    
C231  C238  A    
C156  H74   S    
C189  C239  S    
O4    S29   D    
C228  C261  A    
C155  H72   S    
C12   C65   A    
C161  H84   S    
C18   C71   A    
C141  H39   S    
O15   S32   S    
C147  H51   S    
C209  S32   S    
C128  H6    S    
O90   Zn14  S    
O78   S22   D    
C164  H93   S    
C83   H13   S    
O77   S21   S    
C140  H34   S    
C139  C140  S    
H161  O48   S    
C229  S20   S    
C181  H132  S    
C103  H205  S    
C88   H135  S    
H154  O28   S    
C51   O138  S    
C172  H110  S    
O93   Zn7   S    
O29   S6    D    
C156  C158  S    
C81   H202  S    
C91   H177  S    
C157  O68   A    
C105  H211  S    
C158  H77   S    
C198  C249  S    
H150  O15   S    
C50   C260  A    
O71   S19   S    
O121  Zn10  S    
C134  H22   S    
C168  O123  A    
C20   C73   A    
C130  C131  S    
C233  C239  A    
C69   C70   A    
C183  H137  S    
C123  C125  S    
C225  S16   S    
O1    Zn1   S    
O115  Zn11  S    
C88   C89   S    
C66   O153  S    
C175  H118  S    
C98   C99   S    
C71   O157  S    
C155  C156  S    
C87   H113  S    
C17   C32   A    
C159  O156  S    
O16   S2    D    
C63   O150  S    
C123  H251  S    
C149  C150  S    
C19   C30   A    
C226  C263  A    
C162  H86   S    
O94   Zn1   S    
C179  O124  A    
C95   O135  S    
C33   C261  A    
C205  C240  A    
C95   C96   S    
C21   C203  A    
O107  Zn2   S    
C147  C148  S    
C23   C76   A    
O124  Zn9   S    
C166  H97   S    
O79   Zn15  S    
O41   S9    S    
C85   C86   S    
O128  Zn12  S    
C124  C199  S    
C235  S26   S    
O98   Zn16  S    
C5    C58   A    
C186  O122  A    
C32   C36   A    
C169  H103  S    
C139  H32   S    
O67   S18   S    
C78   C80   S    
C150  H59   S    
C23   C26   A    
C170  C171  S    
C44   C59   A    
C186  C237  S    
C132  O147  S    
C43   O130  S    
H152  O21   S    
C101  O148  A    
C115  H230  S    
C116  H233  S    
O174  S23   S    
C131  H14   S    
C179  O96   A    
C182  C183  S    
C3    C55   A    
C104  H207  S    
C61   C77   A    
O178  S28   D    
O68   Zn12  S    
O21   S3    S    
C87   H101  S    
H145  O180  S    
C89   C91   S    
C81   H213  S    
C174  H117  S    
C229  C258  A    
C5    C222  A    
C218  S9    S    
C94   H186  S    
C223  S14   S    
C128  H8    S    
C196  O119  A    
C90   C232  S    
C154  H70   S    
O19   S3    D    
C75   O162  S    
O10   S31   D    
C198  O117  A    
C58   O144  S    
C60   O146  S    
O110  Zn5   S    
O31   S6    S    
C94   H184  S    
O104  Zn6   S    
C187  O99   A    
C11   C40   A    
O45   S11   D    
C36   C263  A    
C187  O128  A    
C32   C260  A    
C190  C240  S    
C8    C41   A    
C139  O150  S    
C105  H210  S    
C158  H75   S    
C57   C232  T    
C170  H104  S    
C172  O161  S    
C82   H246  S    
C201  C236  A    
O106  Zn16  S    
C194  O106  A    
C223  C247  A    
C193  O105  A    
C124  O79   A    
C45   O132  S    
C201  S1    S    
H142  O171  S    
C137  H28   S    
C96   H190  S    
C82   O131  S    
C148  H52   S    
C162  O157  S    
O51   S13   S    
C83   C84   S    
C15   C67   A    
C173  H111  S    
C214  C249  A    
C100  H200  S    
C92   H179  S    
C178  C180  S    
C93   H182  S    
C230  C259  A    
C56   O143  S    
C151  H62   S    
H170  O74   S    
C197  O120  A    
C227  C260  A    
O58   S15   S    
C222  C250  A    
C98   H196  S    
C90   O2    A    
C99   H197  S    
C82   C83   S    
C44   O131  S    
C79   C243  S    
C113  O24   A    
C184  H138  S    
C115  H232  S    
O87   S25   S    
C118  H240  S    
O84   S24   S    
C206  C241  A    
C149  O153  S    
C57   C68   S    
C130  H12   S    
O20   S3    D    
C182  O164  S    
C182  H133  S    
C120  C121  S    
C26   C42   A    
C129  C130  S    
C101  O13   A    
C165  H95   S    
O114  Zn9   S    
O179  S28   D    
C142  H40   S    
C110  H222  S    
C135  O46   A    
O72   S20   D    
C30   C258  A    
C217  S8    S    
C72   O158  S    
C6    C59   A    
C122  H250  S    
C16   C211  A    
C138  H31   S    
C81   H224  S    
C125  H254  S    
H149  O11   S    
C185  O97   A    
C122  C123  S    
O81   S22   S    
C135  O90   A    
C171  H108  S    
C52   C262  A    
C47   O133  S    
C53   C263  A    
C22   C204  A    
O40   S9    D    
O173  S23   D    
C154  H67   S    
C37   C264  A    
C235  C255  A    
C164  H92   S    
C136  H26   S    
C117  C118  S    
C16   C36   A    
C49   C259  A    
C67   O154  S    
C167  H100  S    
C63   C75   A    
C77   O164  S    
H159  O41   S    
C107  H215  S    
C102  C103  S    
C18   C33   A    
C174  H115  S    
C99   H198  S    
C152  C153  S    
C152  H64   S    
C224  S15   S    
C127  H5    S    
C193  O116  A    
C189  O100  A    
C150  C151  S    
O39   S9    D    
C114  H228  S    
C85   H68   S    
O46   Zn10  S    
C152  O154  S    
C215  S6    S    
C11   C215  A    
C47   C56   A    
C108  O140  S    
O32   S7    D    
C87   H124  S    
C48   C55   A    
C78   H112  S    
O65   S18   D    
O109  Zn8   S    
C175  H119  S    
C165  O158  S    
C173  H114  S    
C218  C251  A    
C129  H9    S    
C62   C76   A    
C187  C238  S    
C227  C242  A    
C116  O142  S    
O42   S10   D    
C126  H256  S    
C194  O112  A    
C51   C261  A    
C89   H157  S    
C93   C94   S    
C146  O92   A    
C114  H229  S    
C195  O113  A    
O57   Zn13  S    
C35   C210  T    
C153  H65   S    
O17   S2    D    
C65   O152  S    
C148  H54   S    
C149  H55   S    
C68   C243  T    
O148  Zn6   S    
O97   Zn2   S    
C105  O139  S    
C2    C254  S    
O88   S26   D    
C92   H181  S    
C121  H248  S    
C178  H126  S    
C193  C252  S    
H175  O91   S    
C12   C37   A    
C200  C250  S    
C6    C218  A    
C224  C248  A    
O47   S11   D    
C120  H244  S    
C205  S28   S    
C4    C220  A    
O169  S12   D    
C184  H140  S    
C167  H98   S    
C118  H238  S    
C15   C34   A    
H156  O34   S    
C84   H35   S    
H171  O77   S    
C180  H129  S    
H160  O44   S    
C220  C249  A    
C213  S4    S    
C203  S23   S    
C106  H214  S    
C108  H218  S    
O168  S12   D    
C138  H29   S    
O74   S20   S    
C145  C147  S    
C157  O94   A    
C226  C246  A    
C155  H71   S    
C161  H83   S    
C171  H106  S    
O175  S27   D    
C141  H38   S    
C45   C58   A    
C127  H4    S    
C78   H1    S    
C17   C207  A    
C212  S3    S    
C207  C242  A    
C145  O152  S    
C86   C87   S    
C136  C137  S    
O176  S27   D    
C166  H96   S    
C155  O155  S    
O95   Zn8   S    
C181  H131  S    
C26   C253  A    
C53   O140  S    
O30   S6    D    
C10   C39   A    
C122  O144  S    
O167  S1    S    
C95   H188  S    
O43   S10   D    
C220  S11   S    
C159  C160  S    
C103  H206  S    
C97   H194  S    
C191  O102  A    
C134  H23   S    
C48   O134  S    
C168  O95   A    
C46   C221  T    
C216  S7    S    
H172  O81   S    
C190  O101  A    
O55   S15   D    
C55   O142  S    
O73   S20   D    
C192  O114  A    
C136  O149  S    
C200  O111  A    
C228  S19   S    
H169  O71   S    
C52   O139  S    
O126  Zn4   S    
C196  C247  S    
O93   Zn13  S    
C133  C134  S    
O127  Zn15  S    
C102  H203  S    
O44   S10   S    
C227  S18   S    
H165  O61   S    
C127  C128  S    
C209  C245  A    
C100  H201  S    
C111  H226  S    
C180  C181  S    
O96   Zn7   S    
C162  C163  S    
O24   Zn16  S    
C101  C221  S    
O100  Zn3   S    
C79   O126  A    
O14   S32   D    
O86   S25   D    
C197  C248  S    
O76   S21   D    
C83   H2    S    
C10   C214  A    
C208  C244  A    
C70   O156  S    
H155  O31   S    
C119  C120  S    
C44   C255  A    
O38   S8    S    
O64   S17   S    
O137  Zn3   S    
O91   S26   S    
C176  H120  S    
C133  H20   S    
C105  C106  S    
C160  H81   S    
C110  H225  S    
C54   C264  A    
O69   S19   D    
C143  C144  S    
O33   S7    D    
C109  C110  S    
C102  O138  S    
C146  O57   A    
O82   S24   D    
C177  H123  S    
C97   H192  S    
C47   C257  A    
C92   C93   S    
C112  C146  S    
C111  C114  S    
C67   C71   A    
O125  Zn14  S    
H163  O54   S    
C116  H234  S    
O27   S5    D    
C45   C256  A    
O115  Zn16  S    
O177  S27   S    
O63   S17   D    
C175  O162  S    
O104  Zn2   S    
O116  Zn1   S    
C104  H208  S    
O113  Zn14  S    
C5    C40   A    
C103  C104  S    
C222  S13   S    
C64   C74   A    
C142  C143  S    
O6    S30   D    
C31   C259  A    
C159  H80   S    
O5    S29   S    
C156  H73   S    
C35   C46   S    
C27   C255  A    
C144  H44   S    
H141  O167  S    
C161  H85   S    
C230  S21   S    
C165  C166  S    
O60   S16   D    
C169  C170  S    
C163  C164  S    
C145  H48   S    
C20   C206  A    
C142  O151  S    
H151  O18   S    
C84   H46   S    
O18   S2    S    
C173  C174  S    
C204  S27   S    
C9    C42   A    
C124  O35   A    
C172  H109  S    
O25   S4    S    
C25   C77   A    
O1    Zn8   S    
O92   Zn9   S    
O118  Zn10  S    
C91   H178  S    
C139  H33   S    
C90   O137  A    
C200  O118  A    
C216  C251  A    
C158  H76   S    
C129  O146  S    
O159  Zn5   S    
O171  S12   S    
C49   C54   A    
C134  H21   S    
C65   C73   A    
C116  C117  S    
C213  C248  A    
H143  O174  S    
C18   C208  A    
C12   C212  A    
C137  H27   S    
C74   O161  S    
O59   S16   D    
C9    C217  A    
O28   S5    S    
C109  H220  S    
C24   C199  T    
C145  H49   S    
C132  C133  S    
C192  O103  A    
C6    C41   A    
O93   Zn9   S    
O115  Zn5   S    
C215  C250  A    
O34   S7    S    
C3    C38   A    
C121  H245  S    
O22   S4    D    
C123  H252  S    
C214  S5    S    
C151  H61   S    
O170  Zn8   S    
C179  C244  S    
C8    C61   A    
C178  H127  S    
O48   S11   S    
C7    C219  A    
O93   Zn3   S    
O37   S8    D    
C17   C70   A    
C13   C188  T    
C163  H89   S    
C115  H231  S    
O12   S32   D    
C19   C72   A    
C96   H189  S    
C233  S24   S    
C225  C262  A    
C196  O108  A    
C212  C247  A    
C111  O141  S    
C182  H134  S    
C225  C245  A    
C165  H94   S    
C180  H128  S    
C195  C246  S    
C176  H121  S    
O119  Zn13  S    
C142  H41   S    
C110  H223  S    
C34   C262  A    
C9    C62   A    
C59   O145  S    
C169  O160  S    
O50   S13   D    
C11   C64   A    
C143  H42   S    
C125  H253  S    
H164  O58   S    
C177  H125  S    
C144  H45   S    
C150  H58   S    
C233  C257  A    
C89   H168  S    
C171  H107  S    
C219  S10   S    
C21   C74   A    
C194  C245  S    
C162  H87   S    
C13   C24   S    
O172  S23   D    
H153  O25   S    
O105  Zn4   S    
O53   S14   D    
O166  S1    D    
C27   C41   A    
C99   C100  S    
C85   O132  S    
C4    C39   A    
C96   C97   S    
C29   C39   A    
C33   C34   A    
C14   C66   A    
C62   O149  S    
C159  H78   S    
O83   S24   D    
C229  C240  A    
O8    S30   S    
C234  C253  A    
C174  H116  S    
C43   C60   A    
O61   S16   S    
C231  S22   S    
C176  C177  S    
C108  H219  S    
C185  C236  S    
C119  H241  S    
C147  H50   S    
C166  C167  S    
C128  H7    S    
C126  H3    S    
C119  H242  S    
C154  H69   S    
O11   S31   S    
O129  Zn13  S    
C135  C188  S    
C172  C173  S    
O99   Zn4   S    
O66   S18   D    
O52   S14   D    
C131  H15   S    
C207  S30   S    
C98   O136  S    
C86   H79   S    
C109  H221  S    
O56   S15   D    
C16   C69   A    
C28   C256  A    
C80   C81   S    
O117  Zn11  S    
O102  Zn5   S    
C191  O127  A    
C151  H60   S    
C113  O159  A    
C111  H227  S    
O101  Zn6   S    
H148  O8    S    
C25   C27   A    
C192  C251  S    
C137  C138  S    
H147  O5    S    
C170  H105  S    
C219  C252  A    
C160  C161  S    
H173  O84   S    
C1    C157  S    
C130  H11   S    
C15   C209  A    
C230  C241  A    
C88   O133  S    
C78   O130  S    
O1    Zn4   S    
H174  O87   S    
O122  Zn11  S    
O104  Zn14  S    
C49   O135  S    
C64   O151  S    
O165  S1    D    
C100  H199  S    
C202  S12   S    
C121  H247  S    
C169  H102  S    
C93   H183  S    
O2    Zn7   S    
C126  O145  S    
C98   H195  S    
O111  Zn6   S    
O49   S13   D    
C19   C205  A    
C234  S25   S    
C195  O107  A    
C118  H239  S    
C153  C154  S    
C80   H191  S    
C20   C31   A    
C88   H146  S    
