data_mof_unit_64630.cif
_audit_creation_date              2013-03-05T15:49:43-0500
_audit_creation_method            fapswitch 2.2
_symmetry_space_group_name_H-M    P1
_symmetry_Int_Tables_number       1
_space_group_crystal_system       triclinic
_cell_length_a                    8.318664
_cell_length_b                    16.622668
_cell_length_c                    17.560946
_cell_angle_alpha                 96.133715
_cell_angle_beta                  96.392193
_cell_angle_gamma                 93.257973
_cell_volume                      2393.57667923

loop_
_atom_site_label
_atom_site_type_symbol
_atom_site_description
_atom_site_fract_x
_atom_site_fract_y
_atom_site_fract_z
_atom_type_partial_charge
P1    P     P_3+3 0.954010 0.683680 0.560080 0.576188
O1    O     O_2   0.124170 0.696240 0.537320 -0.295482
O2    O     O_3   0.874280 0.596090 0.538840 -0.399526
O3    O     O_3   0.350640 0.647210 0.399890 -0.310206
O4    O     O_2   0.248511 0.790377 0.448989 -0.265896
O5    O     O_3   0.973267 0.714833 0.659956 -0.531827
O6    O     O_3   0.319488 0.775923 0.306908 -0.464981
H1    H     H_    0.322947 0.660541 0.250157 0.048386
C1    C     C_3   0.384009 0.750633 0.176762 1.272296
P2    P     P_3+3 0.343360 0.437010 0.326580 0.594535
P3    P     P_3+3 0.893328 0.608059 0.261607 0.616502
O7    O     O_2   0.169260 0.461210 0.314850 -0.315911
O8    O     O_3   0.932460 0.606800 0.361650 -0.243225
O9    O     O_2   0.005729 0.546559 0.226991 -0.355714
O10   O     O_3   0.319059 0.331530 0.300957 -0.578638
O11   O     O_3   0.971489 0.700588 0.236107 -0.436488
C2    C     C_3   0.847096 0.753771 0.223853 0.237873
H2    H     H_    0.726444 0.721819 0.206819 -0.052218
C3    C     C_3   0.879957 0.801985 0.157285 0.557536
H3    H     H_    0.997517 0.838616 0.170977 0.131851
C4    C     C_3   0.856150 0.325594 0.287252 0.055144
H4    H     H_    0.987907 0.341854 0.298163 0.137369
C5    C     C_3   0.814820 0.283161 0.201665 -0.590820
Ba1   Ba    Ba6+2 0.150890 0.539190 0.463180 1.761387
C6    C     C_3   0.076124 0.669980 0.704532 0.144446
H5    H     H_    0.183907 0.655503 0.675515 0.080785
C7    C     C_3   0.131228 0.719662 0.784505 0.291023
H6    H     H_    0.029445 0.722322 0.820286 0.201203
C8    C     C_3   0.301117 0.287911 0.364040 0.148537
H7    H     H_    0.198151 0.309001 0.393989 0.092937
H8    H     H_    0.412638 0.296009 0.405129 0.157206
C9    C     C_3   0.266212 0.197509 0.332337 -0.596365
H9    H     H_    0.146316 0.191598 0.297909 0.183932
P4    P     P_3+3 0.856290 0.316310 0.439860 0.643126
O12   O     O_2   0.686120 0.303710 0.462660 -0.333692
O13   O     O_3   0.936010 0.403900 0.461090 -0.296049
O14   O     O_3   0.459650 0.352790 0.600040 -0.263919
O15   O     O_3   0.813739 0.274081 0.341102 -0.507609
P5    P     P_3+3 0.905260 0.389232 0.737859 0.606928
O16   O     O_3   0.380200 0.540830 0.590710 -0.320668
O17   O     O_3   0.877840 0.393190 0.638290 -0.400951
O18   O     O_2   0.773407 0.439756 0.771182 -0.245774
O19   O     O_3   0.847678 0.290856 0.755845 -0.479791
Ba2   Ba    Ba6+2 0.659280 0.460800 0.536750 1.793888
P6    P     P_3+3 0.375862 0.752787 0.400669 0.630014
C10   C     C_3   0.390212 0.721063 0.256128 0.275544
H10   H     H_    0.519369 0.715170 0.277214 -0.177234
H11   H     H_    0.455254 0.711794 0.139718 -0.144695
O20   O     O_3   0.430090 0.459160 0.409230 -0.315086
C11   C     C_3   0.583997 0.713687 0.675250 0.085208
H12   H     H_    0.681238 0.676084 0.657016 0.127988
C12   C     C_3   0.670771 0.789812 0.725370 0.974638
P7    P     P_3+3 0.462848 0.565025 0.688109 0.596955
O21   O     O_2   0.641040 0.538740 0.685130 -0.333133
O22   O     O_3   0.479899 0.670972 0.717587 -0.541392
H13   H     H_    0.782200 0.843676 0.146521 0.038887
C13   C     C_3   0.914203 0.234387 0.705324 0.069784
H14   H     H_    0.853031 0.234368 0.645936 0.117762
H15   H     H_    0.045020 0.248939 0.705462 0.149196
C14   C     C_3   0.887746 0.149460 0.729951 0.366493
H16   H     H_    0.756257 0.131371 0.721232 0.075391
P8    P     P_3+3 0.435070 0.248076 0.603502 0.662216
C15   C     C_3   0.392632 0.235357 0.746702 1.340891
O23   O     O_2   0.554104 0.210454 0.550411 -0.350748
O24   O     O_3   0.513579 0.228810 0.696768 -0.598750
C16   C     C_3   0.465024 0.235789 0.831314 0.833249
C17   C     C_R   0.691783 0.735582 0.466876 -0.481029
C18   C     C_R   0.841034 0.760832 0.508824 0.110888
C19   C     C_R   0.890857 0.845336 0.519781 0.795318
C20   C     C_R   0.787573 0.903277 0.488797 0.038079
C21   C     C_R   0.632972 0.874348 0.451474 -0.342892
C22   C     C_R   0.584514 0.791291 0.441252 0.185721
C23   C     C_R   0.912326 0.157749 0.490245 0.519113
C24   C     C_R   0.966626 0.241436 0.496148 -0.074136
C25   C     C_R   0.011754 0.100622 0.525003 -0.054433
N1    N     N_2   0.827321 0.989937 0.494764 0.061204
N2    N     N_2   0.970643 0.014091 0.519847 0.126252
C26   C     C_R   0.117396 0.267190 0.537533 0.245667
H17   H     H_    0.549503 0.916937 0.430583 0.227248
C27   C     C_R   0.221468 0.211524 0.567034 -0.172798
C28   C     C_R   0.167637 0.129075 0.561490 0.669528
H18   H     H_    0.652338 0.672199 0.460965 0.260535
H19   H     H_    0.711492 0.576746 0.106696 0.233320
C29   C     C_R   0.573700 0.547744 0.277623 0.440073
C30   C     C_R   0.437882 0.493153 0.252276 0.125843
C31   C     C_R   0.396549 0.472353 0.170851 -0.296070
C32   C     C_R   0.488321 0.509417 0.118834 -0.048067
C33   C     C_R   0.633037 0.555230 0.146629 -0.326562
C34   C     C_R   0.680437 0.570857 0.225713 0.004015
C35   C     C_R   0.416420 0.515006 0.834224 0.859927
C36   C     C_R   0.359997 0.506751 0.755492 0.095358
C37   C     C_R   0.113137 0.431492 0.780490 0.318830
C38   C     C_R   0.168718 0.440861 0.860839 -0.240506
C39   C     C_R   0.323578 0.481560 0.886881 -0.198829
C40   C     C_1   0.387580 0.491563 0.968126 0.160049
C41   C     C_1   0.436709 0.499683 0.036273 0.077102
C42   C     C_R   0.213276 0.462154 0.729118 -0.463761
H20   H     H_    0.171317 0.456280 0.668137 0.195607
C43   C     C_2   0.640821 0.247291 0.185247 0.901717
H21   H     H_    0.542970 0.282501 0.202350 -0.134902
O25   O     O_2   0.606133 0.180953 0.148501 -0.503386
C44   C     C_2   0.829632 0.343181 0.142994 0.435478
H22   H     H_    0.848523 0.407708 0.160799 0.085647
O26   O     O_2   0.815786 0.319997 0.074043 -0.488719
C45   C     C_2   0.935021 0.219375 0.187626 0.795636
H23   H     H_    0.054013 0.237274 0.172706 0.004838
O27   O     O_2   0.904100 0.148338 0.195574 -0.501649
C46   C     C_2   0.982392 0.593565 0.715750 0.468597
H24   H     H_    0.953824 0.546897 0.667586 0.054951
O28   O     O_2   0.934539 0.583683 0.777628 -0.503441
C47   C     C_2   0.188379 0.806290 0.781765 0.710936
H25   H     H_    0.288973 0.833039 0.823038 0.030582
O29   O     O_2   0.114252 0.849549 0.740095 -0.384383
F1    F     F_    0.252937 0.681539 0.823944 -0.693665
F2    F     F_    0.226112 0.745826 0.141975 -0.635021
C48   C     C_2   0.260621 0.141123 0.392612 0.496085
H26   H     H_    0.354792 0.146324 0.440783 0.100600
O30   O     O_2   0.158634 0.084105 0.383662 -0.531890
C49   C     C_2   0.387719 0.168223 0.280956 0.749041
H27   H     H_    0.351337 0.154558 0.219510 0.040159
O31   O     O_2   0.526250 0.158532 0.307653 -0.486357
C50   C     C_2   0.490819 0.735527 0.603674 0.363721
H28   H     H_    0.477081 0.797722 0.592756 0.109688
O32   O     O_2   0.434045 0.681923 0.554273 -0.499118
F3    F     F_    0.761823 0.764494 0.788195 -0.661742
F4    F     F_    0.774447 0.828996 0.682539 -0.674956
C51   C     C_2   0.561351 0.851783 0.755553 0.442583
H29   H     H_    0.585522 0.879952 0.815707 0.097245
O33   O     O_2   0.454114 0.876664 0.711793 -0.554624
F5    F     F_    0.448520 0.829874 0.183204 -0.686175
F6    F     F_    0.962833 0.093931 0.684081 -0.597854
C52   C     C_2   0.950889 0.147313 0.813371 0.703583
H30   H     H_    0.900432 0.184719 0.858083 0.034237
O34   O     O_2   0.057397 0.103147 0.831731 -0.422682
F7    F     F_    0.278961 0.170565 0.728088 -0.699515
F8    F     F_    0.319054 0.306847 0.740883 -0.740002
F9    F     F_    0.351249 0.261697 0.878876 -0.649906
F10   F     F_    0.600289 0.289718 0.847369 -0.641329
C53   C     C_2   0.841301 0.811617 0.295047 0.356590
H31   H     H_    0.740712 0.850094 0.298567 0.056890
O35   O     O_2   0.949702 0.816855 0.348550 -0.499518
C54   C     C_2   0.511653 0.152872 0.848561 0.712917
H32   H     H_    0.594402 0.120675 0.815163 -0.160100
O36   O     O_2   0.456261 0.120686 0.900153 -0.455336
F11   F     F_    0.768608 0.132238 0.447842 -0.581691
F12   F     F_    0.035050 0.870243 0.562054 -0.570518
F13   F     F_    0.270218 0.075125 0.588432 -0.544195
F14   F     F_    0.167840 0.346782 0.544119 -0.644771
F15   F     F_    0.559336 0.558111 0.860106 -0.604363
C55   C     C_2   0.067672 0.411904 0.918648 0.789104
H33   H     H_    0.085178 0.440673 0.977656 -0.046198
O37   O     O_2   0.967384 0.354551 0.902363 -0.485262
C56   C     C_2   0.268848 0.408365 0.137608 0.631858
H34   H     H_    0.270997 0.378010 0.080012 0.014018
O38   O     O_2   0.158579 0.388976 0.172854 -0.595768
F16   F     F_    0.615412 0.568393 0.354121 -0.668041
F17   F     F_    0.883946 0.749600 0.090883 -0.578096
C57   C     C_2   0.765320 0.398198 0.298694 0.603885
H35   H     H_    0.638508 0.394073 0.279368 -0.149326
O39   O     O_2   0.831954 0.458969 0.335184 -0.497186

loop_
_geom_bond_atom_site_label_1
_geom_bond_atom_site_label_2
_geom_bond_distance
_ccdc_geom_bond_type
Ba2   O20   2.771435 S    
C3    H13   1.111368 S    
C5    C43   1.518539 S    
C32   C33   1.397477 A    
C15   O24   1.407673 S    
P2    C30   1.896604 S    
C38   C39   1.424790 A    
C53   O35   1.220022 D    
C23   C24   1.427341 A    
C40   C41   1.211492 T    
C11   C50   1.491668 S    
C14   C52   1.505051 S    
C21   H17   1.082836 S    
C42   H20   1.081083 S    
O2    Ba1   2.935003 S    
P5    O17   1.746758 S    
C30   C31   1.433102 A    
C48   H26   1.079749 S    
C45   O27   1.220112 D    
Ba1   O13   2.786548 S    
O6    P6    1.750078 S    
P8    C27   1.864768 S    
C31   C56   1.483721 S    
C17   C22   1.396365 A    
C8    C9    1.545340 S    
P2    O10   1.757396 S    
O3    Ba1   2.778317 S    
P3    O9    1.546384 D    
C26   C27   1.402757 A    
C13   H15   1.100957 S    
O5    C6    1.396014 S    
C5    C45   1.518006 S    
P3    O8    1.753344 S    
P1    C18   1.879755 S    
C46   H24   1.080614 S    
C2    H2    1.103419 S    
P4    O12   1.522658 D    
C4    C57   1.467468 S    
P8    O23   1.546665 D    
C2    C3    1.526444 S    
C18   C19   1.428362 A    
C4    O15   1.401756 S    
C3    H3    1.110682 S    
C46   O28   1.221993 D    
C52   H30   1.085372 S    
C28   F13   1.357936 S    
P7    C36   1.856549 S    
C11   C12   1.553609 S    
C35   C39   1.407383 A    
C20   C21   1.410487 A    
C56   O38   1.209892 D    
P4    O13   1.554948 S    
P8    O24   1.763313 S    
C26   F14   1.353987 S    
P7    O22   1.774845 S    
H19   C33   1.083788 S    
C15   C16   1.538991 S    
C7    C47   1.497981 S    
C1    C10   1.523168 S    
C4    H4    1.104341 S    
P6    C22   1.852304 S    
C57   O39   1.207173 D    
C19   F12   1.356786 S    
C23   C25   1.434972 A    
C38   C55   1.489059 S    
C39   C40   1.454919 S    
C35   F15   1.358923 S    
C14   F6    1.381919 S    
C12   C51   1.505958 S    
C37   C42   1.408863 A    
O10   C8    1.404074 S    
P5    O18   1.547084 D    
H1    C10   1.112020 S    
O3    P6    1.754001 S    
C49   O31   1.220940 D    
C53   H31   1.084881 S    
O2    Ba2   2.787143 S    
C17   C18   1.389732 A    
C3    F17   1.383482 S    
O6    C10   1.406054 S    
P4    Ba2   3.397733 S    
C29   C30   1.408275 A    
C47   O29   1.222783 D    
C12   F4    1.385305 S    
C31   C32   1.420871 A    
C25   C28   1.412901 A    
C13   C14   1.531260 S    
P5    O19   1.748807 S    
P2    Ba1   3.390632 S    
C6    H5    1.105232 S    
C1    F5    1.382056 S    
O4    P6    1.547540 D    
C36   C42   1.397014 A    
P1    O5    1.761816 S    
O8    Ba1   2.771752 S    
C23   F11   1.356571 S    
C14   H16   1.107144 S    
P1    O2    1.554989 S    
C1    F2    1.379786 S    
C51   O33   1.230694 D    
C8    H7    1.108233 S    
P3    O11   1.757061 S    
P3    C34   1.860034 S    
C43   H21   1.079987 S    
C16   F10   1.382003 S    
C49   H27   1.083803 S    
C32   C41   1.454628 S    
C11   H12   1.104508 S    
C2    C53   1.500594 S    
C9    C48   1.489660 S    
C44   O26   1.221515 D    
O12   Ba2   2.822455 S    
C25   N2    1.450335 S    
P2    O7    1.522914 D    
P4    C24   1.886605 S    
C43   O25   1.218993 D    
C1    H11   1.109431 S    
C4    C5    1.582886 S    
O1    Ba1   2.822016 S    
C57   H35   1.067612 S    
Ba1   Ba2   4.584970 S    
O17   Ba2   2.772517 S    
C55   O37   1.218560 D    
O13   Ba2   2.935852 S    
C29   C34   1.408298 A    
C9    C49   1.495969 S    
C50   O32   1.210527 D    
C51   H29   1.100873 S    
P5    C37   1.872310 S    
Ba1   O20   2.938276 S    
C10   H10   1.110045 S    
C47   H25   1.084926 S    
P4    O15   1.789048 S    
C27   C28   1.407266 A    
C12   F3    1.384701 S    
P7    O21   1.573825 D    
C16   C54   1.505243 S    
C6    C7    1.558930 S    
C45   H23   1.085321 S    
O7    Ba1   2.806819 S    
C11   O22   1.411751 S    
C9    H9    1.100833 S    
O14   Ba2   2.777603 S    
C50   H28   1.081462 S    
C21   C22   1.403038 A    
C8    H8    1.102451 S    
P1    Ba1   3.397192 S    
C15   F8    1.375484 S    
C20   N1    1.449583 S    
N1    N2    1.252017 D    
C29   F16   1.351672 S    
C13   H14   1.108314 S    
O11   C2    1.411982 S    
C16   F9    1.387200 S    
P1    O1    1.522238 D    
C37   C38   1.424270 A    
Ba1   O16   2.772161 S    
C48   O30   1.220605 D    
C54   O36   1.219801 D    
C44   H22   1.082211 S    
C19   C20   1.436621 A    
O19   C13   1.401749 S    
C5    C44   1.518585 S    
C7    F1    1.384530 S    
Ba2   O21   2.807156 S    
O16   Ba2   2.937490 S    
C33   C34   1.393213 A    
C17   H18   1.076221 S    
C52   O34   1.220182 D    
O16   P7    1.766257 S    
C24   C26   1.397854 A    
C7    H6    1.109266 S    
C54   H32   1.081181 S    
O14   P8    1.749355 S    
C55   H33   1.084549 S    
C56   H34   1.083485 S    
P2    O20   1.544385 S    
C35   C36   1.399417 A    
C6    C46   1.495094 S    
C15   F7    1.378818 S    
