data_mof_unit_24346.cif
_audit_creation_date              2013-03-05T15:48:00-0500
_audit_creation_method            fapswitch 2.2
_symmetry_space_group_name_H-M    P1
_symmetry_Int_Tables_number       1
_space_group_crystal_system       triclinic
_cell_length_a                    8.249523
_cell_length_b                    19.139663
_cell_length_c                    27.202021
_cell_angle_alpha                 95.920318
_cell_angle_beta                  92.241372
_cell_angle_gamma                 85.496066
_cell_volume                      4256.82732749

loop_
_atom_site_label
_atom_site_type_symbol
_atom_site_description
_atom_site_fract_x
_atom_site_fract_y
_atom_site_fract_z
_atom_type_partial_charge
P1    P     P_3+3 0.082480 0.557670 0.610090 0.481794
O1    O     O_2   0.913240 0.537010 0.617740 -0.361590
O2    O     O_3   0.145240 0.536960 0.557560 -0.407311
O3    O     O_3   0.669960 0.410470 0.588880 -0.393896
O4    O     O_2   0.835228 0.445770 0.671325 -0.378874
O5    O     O_3   0.071236 0.648949 0.625760 -0.556472
O6    O     O_3   0.662869 0.340272 0.676225 -0.510004
H1    H     H_    0.732360 0.289832 0.607332 0.158649
C1    C     C_3   0.665933 0.215628 0.655096 -0.981664
H2    H     H_    0.798990 0.198389 0.656486 0.278119
H3    H     H_    0.618314 0.216954 0.693292 0.272713
P2    P     P_3+3 0.635220 0.340300 0.462910 0.460744
P3    P     P_3+3 0.104198 0.283517 0.565571 0.443903
O7    O     O_2   0.812980 0.329910 0.477500 -0.362076
O8    O     O_3   0.078660 0.374870 0.564770 -0.365846
O9    O     O_2   0.965172 0.251333 0.533251 -0.386611
O10   O     O_3   0.633334 0.321066 0.398595 -0.570592
O11   O     O_3   0.065082 0.265096 0.625399 -0.508736
C2    C     C_3   0.196580 0.285613 0.656900 0.382855
H4    H     H_    0.231490 0.339832 0.651483 0.085856
H5    H     H_    0.302834 0.245976 0.650649 0.057887
C3    C     C_3   0.146919 0.286629 0.710311 -0.864922
H6    H     H_    0.045955 0.328233 0.718502 0.275937
H7    H     H_    0.105324 0.234170 0.716800 0.248625
C4    C     C_3   0.186961 0.319180 0.418287 0.375355
H8    H     H_    0.309847 0.336439 0.428079 0.079295
H9    H     H_    0.107111 0.333353 0.450231 0.122646
C5    C     C_3   0.195242 0.239229 0.406615 -0.675321
H10   H     H_    0.231763 0.213231 0.440249 0.170774
H11   H     H_    0.073375 0.222528 0.393642 0.214132
Ba1   Ba    Ba6+2 0.854000 0.466860 0.523710 1.548692
C6    C     C_3   0.013664 0.683923 0.585440 0.413607
H12   H     H_    0.883613 0.675079 0.578914 0.094195
H13   H     H_    0.084764 0.666023 0.552050 0.124497
C7    C     C_3   0.031059 0.762436 0.597821 -0.967098
H14   H     H_    0.958451 0.782572 0.630532 0.267896
H15   H     H_    0.987404 0.791692 0.566133 0.224867
H16   H     H_    0.160991 0.771889 0.606062 0.265572
C8    C     C_3   0.672612 0.380033 0.376443 0.430522
H17   H     H_    0.795473 0.394411 0.389117 0.085777
H18   H     H_    0.582715 0.425433 0.385106 0.139709
C9    C     C_3   0.670650 0.361662 0.320680 -0.935890
H19   H     H_    0.766712 0.319180 0.310639 0.261089
H20   H     H_    0.693184 0.408551 0.301961 0.227827
H21   H     H_    0.550043 0.343725 0.307671 0.273226
P4    P     P_3+3 0.107220 0.442270 0.389900 0.478527
O12   O     O_2   0.276450 0.462960 0.382230 -0.353389
O13   O     O_3   0.044470 0.462980 0.442430 -0.417495
O14   O     O_3   0.519740 0.589470 0.411120 -0.370090
O15   O     O_3   0.124120 0.350603 0.376672 -0.558120
P5    P     P_3+3 0.094525 0.717501 0.434732 0.455772
O16   O     O_3   0.632420 0.583650 0.524140 -0.391108
O17   O     O_3   0.111040 0.625070 0.435230 -0.397846
O18   O     O_2   0.247205 0.747399 0.461221 -0.371889
O19   O     O_3   0.110511 0.735486 0.373556 -0.522812
Ba2   Ba    Ba6+2 0.335820 0.533080 0.476290 1.547397
P6    P     P_3+3 0.666222 0.422471 0.653328 0.486373
C10   C     C_3   0.641846 0.288315 0.636451 0.531684
H22   H     H_    0.517333 0.296023 0.620022 -0.019453
H23   H     H_    0.600454 0.176739 0.629458 0.215570
O20   O     O_3   0.557280 0.416300 0.475860 -0.407745
C11   C     C_3   0.505609 0.642085 0.626008 0.421432
H24   H     H_    0.385804 0.627845 0.609828 0.111358
H25   H     H_    0.593674 0.594945 0.623549 0.098545
C12   C     C_3   0.483591 0.668932 0.680253 -0.955704
H26   H     H_    0.402715 0.718318 0.683168 0.274991
H27   H     H_    0.426564 0.629560 0.699853 0.221778
H28   H     H_    0.603696 0.679291 0.698338 0.263963
P7    P     P_3+3 0.561636 0.672431 0.538415 0.437899
O21   O     O_2   0.376710 0.670070 0.522470 -0.359234
O22   O     O_3   0.565822 0.695617 0.602277 -0.573742
H29   H     H_    0.253327 0.298316 0.735564 0.243675
C13   C     C_3   0.018598 0.688403 0.343288 0.499903
H30   H     H_    0.080471 0.634451 0.341135 0.124885
H31   H     H_    0.894775 0.687756 0.357678 -0.031836
C14   C     C_3   0.002654 0.711426 0.291316 -0.959994
H32   H     H_    0.118644 0.696419 0.271432 0.273225
H33   H     H_    0.901018 0.684901 0.270448 0.256212
H34   H     H_    0.975839 0.769979 0.292929 0.255722
P8    P     P_3+3 0.525336 0.583105 0.345616 0.458475
C15   C     C_3   0.520583 0.716220 0.341677 0.390475
H35   H     H_    0.643252 0.706082 0.325731 0.014153
O23   O     O_2   0.420068 0.523503 0.323926 -0.388646
O24   O     O_3   0.423421 0.659838 0.326473 -0.493272
H36   H     H_    0.531931 0.724000 0.382981 0.083663
H37   H     H_    0.527362 0.827229 0.333658 0.142306
C16   C     C_3   0.444864 0.784572 0.323199 -0.605943
H38   H     H_    0.326478 0.800387 0.340568 0.241462
C17   C     C_R   0.073042 0.457390 0.180919 0.537532
O25   O     O_2   0.141886 0.413489 0.205831 -0.597728
N1    N     N_R   0.955172 0.507206 0.201736 -0.159491
C18   C     C_R   0.881970 0.556943 0.171799 0.514639
C19   C     C_2   0.759468 0.535076 0.269337 -0.183985
C20   C     C_3   0.739244 0.565564 0.322327 0.074308
C21   C     C_1   0.985481 0.490417 0.342391 0.237148
C22   C     C_2   0.031057 0.488108 0.295393 -0.198212
C23   C     C_2   0.910907 0.509710 0.254406 0.103143
C24   C     C_R   0.029481 0.502645 0.099649 -0.071832
C25   C     C_R   0.114387 0.456086 0.130446 -0.057494
C26   C     C_R   0.239519 0.408938 0.110122 -0.081424
C27   C     C_R   0.910070 0.552309 0.120524 -0.041945
C28   C     C_2   0.850138 0.527359 0.357124 -0.377920
H39   H     H_    0.157070 0.473609 0.287175 0.216987
H40   H     H_    0.310449 0.373334 0.132832 0.165847
C29   C     C_2   0.352434 0.482495 0.640265 -0.479208
C30   C     C_R   0.226737 0.449214 0.976624 0.040894
C31   C     C_R   0.016509 0.546857 0.966913 0.042836
C32   C     C_R   0.140272 0.497331 0.946452 0.081467
C33   C     C_R   0.345699 0.399960 0.953875 -0.202753
C34   C     C_R   0.378625 0.398203 0.903821 -0.085150
C35   C     C_R   0.296352 0.445961 0.873884 -0.053880
C36   C     C_R   0.178310 0.496072 0.895233 -0.066249
C37   C     C_R   0.098546 0.545058 0.865380 -0.053023
C38   C     C_R   0.142145 0.545239 0.815454 0.524681
N2    N     N_R   0.255546 0.494574 0.794096 -0.162055
C39   C     C_R   0.329570 0.444210 0.822949 0.518541
C40   C     C_2   0.455819 0.485307 0.728210 -0.169321
C41   C     C_3   0.499618 0.488758 0.674858 0.151065
C42   C     C_1   0.210589 0.511140 0.655497 0.309683
C43   C     C_2   0.169689 0.508381 0.702165 -0.186255
C44   C     C_2   0.298132 0.495020 0.742057 0.105836
O26   O     O_2   0.423381 0.397129 0.804262 -0.593037
C45   C     C_R   0.191455 0.451634 0.028070 0.042484
C46   C     C_R   0.066071 0.500543 0.048289 0.081117
C47   C     C_R   0.977604 0.547814 0.017880 0.042524
C48   C     C_R   0.278142 0.407083 0.060444 -0.203077
H41   H     H_    0.553979 0.480095 0.755626 0.170529
H42   H     H_    0.470953 0.359195 0.888675 0.166791
H43   H     H_    0.415318 0.361031 0.973515 0.126567
H44   H     H_    0.378404 0.370091 0.048776 0.125756
O27   O     O_2   0.795119 0.607089 0.189794 -0.617998
C49   C     C_R   0.821821 0.597648 0.089992 -0.082012
H45   H     H_    0.659667 0.544647 0.243194 0.189793
H46   H     H_    0.725786 0.635406 0.104672 0.166692
C50   C     C_R   0.936748 0.594374 0.935437 -0.202576
C51   C     C_R   0.977739 0.593711 0.886176 -0.086349
O28   O     O_2   0.080787 0.591603 0.791394 -0.597037
C52   C     C_R   0.853042 0.594959 0.039919 -0.205971
H47   H     H_    0.842533 0.633861 0.947664 0.126396
H48   H     H_    0.912895 0.631777 0.864205 0.166194
H49   H     H_    0.043400 0.517383 0.711876 0.198354
H50   H     H_    0.776288 0.631061 0.019627 0.126482
H51   H     H_    0.367002 0.461641 0.601827 0.174206
C53   C     C_R   0.396960 0.299196 0.522280 -0.508572
C54   C     C_R   0.535532 0.276531 0.495730 0.325874
C55   C     C_R   0.586413 0.204524 0.489741 -0.256047
C56   C     C_R   0.497331 0.154747 0.509849 0.026976
C57   C     C_R   0.353873 0.178737 0.535145 -0.306848
C58   C     C_R   0.302918 0.250655 0.540534 0.216275
C59   C     C_R   0.534723 0.035216 0.541395 -0.167735
C60   C     C_R   0.583133 0.963195 0.535266 -0.167149
C61   C     C_R   0.648535 0.931591 0.490590 0.163710
C62   C     C_R   0.665328 0.974261 0.452265 -0.170743
C63   C     C_R   0.616455 0.046488 0.458369 -0.171609
C64   C     C_R   0.550325 0.077936 0.503055 0.169567
C65   C     C_R   0.848049 0.829099 0.461869 -0.292845
C66   C     C_R   0.904583 0.758051 0.462903 0.251934
C67   C     C_R   0.663897 0.735700 0.505552 0.308545
C68   C     C_R   0.606773 0.806507 0.505381 -0.238894
C69   C     C_R   0.700487 0.854690 0.484897 0.027927
C70   C     C_R   0.815038 0.714142 0.486563 -0.499273
H52   H     H_    0.492639 0.824316 0.522530 0.146429
H53   H     H_    0.571873 0.932365 0.566009 0.125424
H54   H     H_    0.487238 0.057717 0.576577 0.119938
H55   H     H_    0.694496 0.187538 0.469106 0.149927
H56   H     H_    0.713835 0.951573 0.417262 0.118717
H57   H     H_    0.627967 0.077468 0.427732 0.120182
H58   H     H_    0.921335 0.864364 0.445320 0.145795
H59   H     H_    0.278579 0.141607 0.548850 0.149392
H60   H     H_    0.871605 0.664330 0.494134 0.134296
H61   H     H_    0.356284 0.354561 0.525827 0.168762
C71   C     C_1   0.313341 0.215587 0.368123 0.271296
N3    N     N_1   0.406374 0.197022 0.337834 -0.076251
C72   C     C_1   0.420726 0.776775 0.269052 0.256252
N4    N     N_1   0.401617 0.770474 0.226463 -0.076559
C73   C     C_1   0.828876 0.548928 0.407748 0.225598
N5    N     N_1   0.811099 0.563794 0.449072 0.006213

loop_
_geom_bond_atom_site_label_1
_geom_bond_atom_site_label_2
_geom_bond_distance
_ccdc_geom_bond_type
O5    C6    1.391891 S    
C16   H38   1.108516 S    
C61   C69   1.494357 S    
C19   C20   1.508680 S    
N2    C44   1.472828 S    
C19   C23   1.365708 D    
C62   H56   1.082819 S    
C45   C46   1.426507 A    
C13   H30   1.112375 S    
Ba1   O20   2.912960 S    
C21   C22   1.342015 D    
C14   H34   1.121822 S    
P1    Ba1   3.379393 S    
Ba1   O16   2.773568 S    
P8    O24   1.750578 S    
C15   H35   1.111759 S    
C50   C51   1.393310 A    
C8    H18   1.109413 S    
C71   N3    1.157736 T    
C4    C5    1.527140 S    
C24   C46   1.436680 A    
C53   H61   1.081852 S    
C11   H24   1.108306 S    
C39   O26   1.223133 D    
P3    O11   1.747663 S    
C17   C25   1.424842 A    
C26   C48   1.396770 A    
C65   C66   1.405255 A    
C7    H15   1.108974 S    
C14   H33   1.119435 S    
O11   C2    1.410683 S    
C19   H45   1.083741 S    
C68   C69   1.417852 A    
O10   C8    1.398157 S    
C65   H58   1.082491 S    
C28   C73   1.409891 S    
N2    C39   1.394343 Am   
O12   Ba2   2.807920 S    
C26   H40   1.088253 S    
P1    O1    1.508410 D    
P1    C42   1.847343 S    
C38   O28   1.222865 D    
P7    O22   1.747722 S    
C40   C44   1.361812 D    
C4    O15   1.399094 S    
C11   H25   1.111183 S    
O16   P7    1.762083 S    
C67   C70   1.384656 A    
H1    C10   1.113661 S    
C72   N4    1.158204 T    
C5    C71   1.470741 S    
P4    C21   1.877968 S    
C35   C36   1.409997 A    
C12   H27   1.109791 S    
C37   C51   1.403580 A    
C30   C45   1.435849 A    
C31   C50   1.419778 A    
C31   C32   1.426313 A    
C35   C39   1.419360 A    
Ba1   Ba2   4.538579 S    
C17   N1    1.400472 Am   
C56   C64   1.495290 S    
C1    H2    1.121429 S    
O7    Ba1   2.826920 S    
O6    C10   1.407130 S    
C21   C28   1.326545 D    
C51   H48   1.085252 S    
P6    C41   1.864781 S    
C62   C63   1.404100 A    
C13   H31   1.109537 S    
C9    H20   1.107762 S    
P8    O23   1.542802 D    
C3    H29   1.115545 S    
C36   C37   1.410632 A    
C54   C55   1.403693 A    
C8    C9    1.521067 S    
C3    H6    1.118571 S    
P4    O13   1.541331 S    
C55   C56   1.412713 A    
C56   C57   1.413536 A    
P1    O5    1.751145 S    
C6    C7    1.522445 S    
C65   C69   1.420160 A    
C7    H16   1.111400 S    
C14   H32   1.120675 S    
C31   C47   1.433210 A    
C52   H50   1.079683 S    
C38   N2    1.391716 Am   
C8    H17   1.103976 S    
H37   C16   1.111264 S    
C45   C48   1.422626 A    
C10   H22   1.109266 S    
P5    C66   1.850698 S    
N1    C23   1.487400 S    
C32   C36   1.437455 A    
O1    Ba1   2.807262 S    
P1    O2    1.541356 S    
C9    H21   1.110884 S    
C6    H13   1.110072 S    
P2    C54   1.844679 S    
P2    O10   1.749970 S    
C50   H47   1.077952 S    
C53   C58   1.396457 A    
C1    H3    1.122243 S    
O2    Ba2   2.753944 S    
C25   C26   1.407474 A    
C60   C61   1.407944 A    
C12   H28   1.111585 S    
C22   C23   1.529968 S    
C2    C3    1.522691 S    
C57   H59   1.082545 S    
C68   H52   1.082341 S    
C34   C35   1.404362 A    
C57   C58   1.401866 A    
O2    Ba1   2.915273 S    
C40   H41   1.085023 S    
C20   C28   1.495839 S    
C63   C64   1.409563 A    
C15   C16   1.528742 S    
C18   C27   1.415477 A    
C70   H60   1.064067 S    
C73   N5    1.142962 T    
C55   H55   1.082476 S    
P2    O7    1.507465 D    
C12   H26   1.111092 S    
Ba2   O21   2.827135 S    
C59   C64   1.405619 A    
P3    O8    1.746902 S    
P2    Ba1   3.389257 S    
C33   H43   1.077653 S    
C67   C68   1.399842 A    
C13   C14   1.521496 S    
C3    H7    1.119114 S    
C63   H57   1.082643 S    
C22   H39   1.080610 S    
C9    H19   1.110689 S    
P8    C20   1.891695 S    
O14   Ba2   2.733467 S    
C66   C70   1.382918 A    
N1    C18   1.401838 Am   
C15   O24   1.412769 S    
C43   C44   1.513406 S    
C37   C38   1.418840 A    
O17   Ba2   2.741689 S    
O13   Ba2   2.916103 S    
C16   C72   1.472330 S    
P4    O12   1.508642 D    
C5    H10   1.106453 S    
C11   C12   1.524554 S    
C2    H5    1.119544 S    
C59   C60   1.399560 A    
C43   H49   1.081112 S    
C53   C54   1.392347 A    
C29   H51   1.087764 S    
C42   C43   1.333527 D    
O8    Ba1   2.741084 S    
C18   O27   1.223368 D    
C47   C52   1.421449 A    
C4    H9    1.109340 S    
C24   C27   1.407738 A    
C59   H54   1.082883 S    
P4    O15   1.749971 S    
C60   H53   1.082876 S    
O14   P8    1.775588 S    
O4    P6    1.543238 D    
Ba1   O13   2.753622 S    
C1    H23   1.121946 S    
C6    H12   1.103908 S    
P5    O18   1.546027 D    
C2    H4    1.123990 S    
C5    H11   1.112151 S    
C4    H8    1.105029 S    
P3    C58   1.839538 S    
C33   C34   1.395305 A    
P2    O20   1.555162 S    
C30   C32   1.427401 A    
P7    C67   1.849311 S    
C11   O22   1.398094 S    
P5    O19   1.745726 S    
P7    O21   1.572422 D    
C29   C41   1.511405 S    
O3    Ba1   2.734070 S    
O19   C13   1.403687 S    
C27   C49   1.405351 A    
C61   C62   1.406307 A    
C1    C10   1.525259 S    
C49   H46   1.088428 S    
C24   C25   1.413028 A    
P3    O9    1.545346 D    
P4    Ba2   3.380128 S    
C48   H44   1.080896 S    
Ba2   O20   2.772832 S    
C29   C42   1.315996 D    
C7    H14   1.110741 S    
P5    O17   1.765055 S    
C17   O25   1.224841 D    
C40   C41   1.518447 S    
C49   C52   1.391092 A    
O6    P6    1.753332 S    
C15   H36   1.119273 S    
O16   Ba2   2.912190 S    
O3    P6    1.745624 S    
C34   H42   1.085839 S    
C46   C47   1.427919 A    
C30   C33   1.420064 A    
