data_mof_unit_30361.cif
_audit_creation_date              2013-03-05T15:52:08-0500
_audit_creation_method            fapswitch 2.2
_symmetry_space_group_name_H-M    P1
_symmetry_Int_Tables_number       1
_space_group_crystal_system       triclinic
_cell_length_a                    6.95778
_cell_length_b                    19.595522
_cell_length_c                    23.365169
_cell_angle_alpha                 96.011136
_cell_angle_beta                  91.414614
_cell_angle_gamma                 88.433842
_cell_volume                      3166.175416

loop_
_atom_site_label
_atom_site_type_symbol
_atom_site_description
_atom_site_fract_x
_atom_site_fract_y
_atom_site_fract_z
_atom_type_partial_charge
O1    O     O_R   0.617180 0.809390 0.808140 -0.568987
O2    O     O_R   0.382820 0.190610 0.191860 -0.569004
O3    O     O_R   0.293300 0.672410 0.795490 -0.575571
O4    O     O_R   0.706700 0.327590 0.204510 -0.575506
O5    O     O_R   0.117220 0.690610 0.691850 -0.572270
O6    O     O_R   0.882780 0.309390 0.308150 -0.572287
C1    C     C_R   0.465674 0.647799 0.805443 0.937331
C2    C     C_R   0.534328 0.352195 0.194551 0.937357
O7    O     O_R   0.287840 0.807750 0.814460 -0.569050
O8    O     O_R   0.712160 0.192250 0.185540 -0.569011
O9    O     O_R   0.111720 0.826910 0.710960 -0.588468
O10   O     O_R   0.888280 0.173090 0.289040 -0.588483
C3    C     C_R   0.456546 0.830744 0.833177 0.961030
C4    C     C_R   0.543453 0.169256 0.166823 0.961040
O11   O     O_R   0.622680 0.673080 0.789040 -0.579090
O12   O     O_R   0.377320 0.326920 0.210960 -0.579098
O13   O     O_3   0.448820 0.756130 0.716020 -0.270923
O14   O     O_3   0.551180 0.243870 0.283980 -0.270947
V1    V     V_3+5 0.176220 0.748860 0.756300 1.179509
V2    V     V_3+5 0.823780 0.251140 0.243700 1.179612
O15   O     O_R   0.781670 0.827580 0.704500 -0.590344
O16   O     O_R   0.218330 0.172420 0.295500 -0.590352
C5    C     C_R   0.947320 0.851947 0.694230 0.918585
C6    C     C_R   0.052679 0.148053 0.305770 0.918563
O17   O     O_R   0.787130 0.692240 0.685530 -0.575818
O18   O     O_R   0.212870 0.307760 0.314470 -0.575814
C7    C     C_R   0.956056 0.669225 0.666786 0.954659
C8    C     C_R   0.043944 0.330775 0.333213 0.954661
V3    V     V_3+5 0.675510 0.751130 0.743690 1.167382
V4    V     V_3+5 0.324490 0.248870 0.256310 1.167408
O19   O     O_3   0.952780 0.743870 0.783980 -0.248496
O20   O     O_3   0.047220 0.256130 0.216020 -0.248456
C9    C     C_1   0.966509 0.617165 0.614731 -0.326448
C10   C     C_1   0.033490 0.382835 0.385269 -0.326440
C11   C     C_1   0.978097 0.573654 0.571918 0.060287
C12   C     C_1   0.021903 0.426346 0.428082 0.060283
C13   C     C_1   0.993390 0.521856 0.521315 -0.007911
C14   C     C_1   0.006609 0.478143 0.478685 -0.007912
C15   C     C_R   0.944280 0.914095 0.663537 -0.102616
C16   C     C_R   0.055720 0.085905 0.336463 -0.102600
C17   C     C_R   0.851498 0.033760 0.662401 -0.171122
C18   C     C_R   0.148501 0.966240 0.337599 -0.171145
C19   C     C_R   0.871868 0.975514 0.691498 -0.157653
C20   C     C_R   0.128132 0.024486 0.308502 -0.157673
C21   C     C_R   0.995888 0.911221 0.605444 -0.246158
C22   C     C_R   0.004111 0.088779 0.394556 -0.246161
C23   C     C_R   0.972388 0.969824 0.574162 0.110183
C24   C     C_R   0.027611 0.030176 0.425838 0.110181
C25   C     C_R   0.899256 0.031410 0.604225 0.179879
C26   C     C_R   0.100743 0.968590 0.395775 0.179895
C27   C     C_R   0.015475 0.969424 0.514227 0.061126
C28   C     C_R   0.984524 0.030576 0.485773 0.061122
C29   C     C_R   0.912273 0.090089 0.518252 -0.196581
C30   C     C_R   0.087726 0.909911 0.481748 -0.196582
C31   C     C_R   0.871247 0.090319 0.576090 -0.232704
C32   C     C_R   0.128752 0.909681 0.423910 -0.232720
H1    H     H_    0.815282 0.137345 0.599060 0.136877
H2    H     H_    0.184717 0.862654 0.400940 0.136867
H3    H     H_    0.952087 0.137772 0.414179 0.104231
H4    H     H_    0.047913 0.862228 0.585820 0.104230
H5    H     H_    0.170647 0.021821 0.264001 0.114208
H6    H     H_    0.829353 0.978179 0.735999 0.114226
H7    H     H_    0.794830 0.080699 0.685290 0.124018
H8    H     H_    0.205169 0.919301 0.314710 0.123996
H9    H     H_    0.884798 0.137824 0.500206 0.132703
H10   H     H_    0.115201 0.862176 0.499793 0.132701
C33   C     C_R   0.490394 0.585254 0.835439 -0.138628
C34   C     C_R   0.509640 0.414704 0.164511 -0.138597
C35   C     C_R   0.650372 0.474454 0.837447 -0.033742
C36   C     C_R   0.350036 0.525562 0.162469 -0.033984
C37   C     C_R   0.587583 0.528679 0.807344 -0.196317
C38   C     C_R   0.412840 0.471365 0.192607 -0.196356
C39   C     C_R   0.445799 0.584845 0.893754 -0.079168
C40   C     C_R   0.553899 0.415001 0.106161 -0.079025
C41   C     C_R   0.498360 0.527917 0.924775 0.104478
C42   C     C_R   0.501455 0.471907 0.075108 0.104471
C43   C     C_R   0.615960 0.475092 0.896662 0.055701
C44   C     C_R   0.384102 0.524807 0.103223 0.055608
C45   C     C_R   0.450075 0.524348 0.983744 -0.140913
C46   C     C_R   0.549645 0.475413 0.016120 -0.140917
C47   C     C_R   0.695034 0.431925 0.988688 0.215878
C48   C     C_R   0.304631 0.567811 0.011163 0.215765
C49   C     C_R   0.710641 0.426530 0.928205 0.380960
C50   C     C_R   0.289309 0.573322 0.071656 0.380603
H11   H     H_    0.613685 0.368147 0.084681 0.145308
H12   H     H_    0.385611 0.631632 0.915242 0.145065
H13   H     H_    0.376006 0.471875 0.237454 0.118190
H14   H     H_    0.624707 0.528261 0.762528 0.118242
H15   H     H_    0.734502 0.433529 0.814502 0.165970
H16   H     H_    0.266175 0.566562 0.185414 0.165909
C51   C     C_1   0.467327 0.882807 0.885237 -0.305248
C52   C     C_1   0.532673 0.117194 0.114763 -0.305124
C53   C     C_1   0.478739 0.926325 0.928061 0.075200
C54   C     C_1   0.521261 0.073676 0.071938 0.075264
C55   C     C_1   0.493597 0.978137 0.978679 0.005739
C56   C     C_1   0.506402 0.021864 0.021321 0.005760
N1    N     N_R   0.850770 0.405197 0.022172 0.242605
O21   O     O_R   0.947052 0.446687 0.058684 -0.369638
O22   O     O_R   0.890667 0.339652 0.018946 -0.431960
N2    N     N_R   0.148589 0.594343 0.977675 0.242798
O23   O     O_R   0.107743 0.659825 0.980978 -0.431644
O24   O     O_R   0.052973 0.552746 0.941073 -0.369715
O25   O     O_3   0.837617 0.380093 0.899744 -0.734865
H17   H     H_    0.844165 0.338005 0.919616 0.358743
O26   O     O_3   0.162496 0.619819 0.100110 -0.734756
H18   H     H_    0.156320 0.661926 0.080256 0.358588

loop_
_geom_bond_atom_site_label_1
_geom_bond_atom_site_label_2
_geom_bond_distance
_ccdc_geom_bond_type
C21   H4    1.077010 S    
C22   H3    1.077009 S    
C36   C44   1.408670 A    
O13   V3    1.694048 S    
C34   C40   1.405755 A    
C35   C43   1.408657 A    
C55   C56   1.247326 T    
O4    C2    1.305026 A    
V1    O19   1.707622 S    
N1    O21   1.301490 A    
C23   C25   1.419585 A    
C7    C9    1.505239 S    
C16   C22   1.407646 A    
C39   C41   1.427389 A    
O9    V1    1.985243 S    
C49   O25   1.381700 S    
C11   C13   1.479337 S    
C42   C44   1.417877 A    
O5    V1    1.836892 S    
O3    C1    1.305059 A    
C9    C11   1.247298 T    
C43   C49   1.404048 A    
O12   V4    1.996605 S    
C21   C23   1.428058 A    
C17   C25   1.403041 A    
C35   C37   1.389460 A    
O7    C3    1.316979 A    
C6    C16   1.476012 S    
O5    C7    1.310657 A    
O7    V1    1.857396 S    
O6    C8    1.310658 A    
O8    V2    1.857395 S    
O3    V1    1.982442 S    
C33   C39   1.405774 A    
C29   H9    1.076161 S    
O14   V2    2.152783 S    
C15   C21   1.407646 A    
C24   C26   1.419585 A    
C8    C10   1.505239 S    
C53   C55   1.479344 S    
C3    C51   1.505251 S    
C17   C19   1.390652 A    
C36   H16   1.083036 S    
C18   C20   1.390652 A    
C35   H15   1.083038 S    
O1    V3    1.838616 S    
N1    O22   1.301414 A    
O11   V3    1.996604 S    
C30   C32   1.387618 A    
C29   C31   1.387618 A    
O17   V3    1.859073 S    
C22   C24   1.428059 A    
C27   C28   1.438750 A    
O8    C4    1.316980 A    
C15   C19   1.395563 A    
C1    O11   1.294486 A    
C25   C31   1.393909 A    
O15   V3    2.002369 S    
C26   C32   1.393909 A    
C45   C46   1.435775 A    
C13   C14   1.247326 T    
C51   C53   1.247298 T    
C16   C20   1.395563 A    
C34   C38   1.394863 A    
O10   V2    1.985243 S    
C52   C54   1.247299 T    
C50   O26   1.381612 S    
C54   C56   1.479343 S    
C41   C43   1.417862 A    
C4    C52   1.505251 S    
C40   C42   1.427296 A    
C18   C26   1.403041 A    
O14   V4    1.694048 S    
C2    C34   1.478228 S    
C48   C50   1.412680 A    
C31   H1    1.084417 S    
O16   C6    1.296801 A    
O1    C3    1.312218 A    
C17   H7    1.084000 S    
C12   C14   1.479339 S    
C18   H8    1.084001 S    
C38   H13   1.083843 S    
C28   C29   1.410685 A    
N2    O24   1.301500 A    
V2    O20   1.707622 S    
O16   V4    2.002371 S    
C48   N2    1.440033 S    
C42   C46   1.435499 A    
C46   C47   1.425064 A    
C47   C49   1.412710 A    
C45   C48   1.424951 A    
C23   C27   1.438519 A    
O18   V4    1.859074 S    
C30   H10   1.076159 S    
C20   H5    1.083672 S    
O17   C7    1.315946 A    
O6    V2    1.836890 S    
O26   H18   0.987448 S    
O10   C6    1.299738 A    
O18   C8    1.315946 A    
O2    V4    1.838615 S    
C27   C30   1.410686 A    
O15   C5    1.296803 A    
V3    O19   2.133440 S    
V4    O20   2.133441 S    
C47   N1    1.439948 S    
C5    C15   1.476012 S    
O9    C5    1.299738 A    
N2    O23   1.301392 A    
O13   V1    2.152783 S    
C10   C12   1.247297 T    
C32   H2    1.084417 S    
C33   C37   1.394888 A    
C40   H11   1.077405 S    
O2    C4    1.312219 A    
C39   H12   1.077503 S    
C1    C33   1.478276 S    
C37   H14   1.083852 S    
O4    V2    1.982442 S    
C44   C50   1.404049 A    
C24   C28   1.438519 A    
C2    O12   1.294495 A    
O25   H17   0.987394 S    
C36   C38   1.389516 A    
C41   C45   1.435431 A    
C19   H6    1.083672 S    
