data_mof_unit_58815.cif
_audit_creation_date              2012-12-10T17:51:22-0500
_audit_creation_method            fapswitch 2.2
_symmetry_space_group_name_H-M    P1
_symmetry_Int_Tables_number       1
_space_group_crystal_system       triclinic
_cell_length_a                    14.712061
_cell_length_b                    14.693047
_cell_length_c                    17.197153
_cell_angle_alpha                 105.518104
_cell_angle_beta                  73.552602
_cell_angle_gamma                 114.788797
_cell_volume                      3189.1607531

loop_
_atom_site_label
_atom_site_type_symbol
_atom_type_description
_atom_site_fract_x
_atom_site_fract_y
_atom_site_fract_z
_atom_type_partial_charge
C1    C     C_R   0.118618 0.688077 0.514231 0.797072
C2    C     C_R   0.881269 0.312034 0.487471 0.793567
C3    C     C_R   0.185491 0.796105 0.523471 -0.053077
C4    C     C_R   0.813525 0.205011 0.488063 -0.054028
C5    C     C_R   0.213597 0.974027 0.540286 -0.206906
C6    C     C_R   0.781121 0.033547 0.500588 -0.196263
C7    C     C_R   0.147319 0.872611 0.535711 -0.175311
C8    C     C_R   0.849207 0.132304 0.492415 -0.211447
C9    C     C_R   0.289771 0.822263 0.518567 -0.255022
C10   C     C_R   0.709414 0.177964 0.491819 -0.245747
C11   C     C_R   0.357824 0.924159 0.525407 0.090113
C12   C     C_R   0.638298 0.080805 0.505324 0.090403
C13   C     C_R   0.318484 0.000167 0.533890 0.164073
C14   C     C_R   0.676164 0.007374 0.507398 0.164692
C15   C     C_R   0.464047 0.952091 0.521350 0.065715
C16   C     C_R   0.531095 0.054713 0.516610 0.063305
C17   C     C_R   0.488501 0.128308 0.525804 -0.223415
C18   C     C_R   0.505070 0.881369 0.523651 -0.217380
C19   C     C_R   0.384132 0.101380 0.535239 -0.228972
C20   C     C_R   0.608988 0.908992 0.517402 -0.232285
C21   C     C_R   0.299580 0.335093 0.355849 -0.046096
C22   C     C_R   0.710334 0.678570 0.632541 -0.049988
C23   C     C_R   0.988812 0.501194 0.652612 0.816395
C24   C     C_R   0.012302 0.500693 0.347849 0.816980
C25   C     C_R   0.212896 0.361688 0.380933 0.700819
C26   C     C_R   0.790684 0.643544 0.614643 0.686273
C27   C     C_R   0.285090 0.488433 0.489046 -0.123904
C28   C     C_R   0.713203 0.509121 0.512955 -0.122094
C29   C     C_R   0.374020 0.464173 0.467989 -0.045462
C30   C     C_R   0.627131 0.537435 0.530558 -0.044415
C31   C     C_R   0.378705 0.383871 0.401392 0.045440
C32   C     C_R   0.626906 0.623913 0.591888 0.046468
C33   C     C_R   0.458337 0.517176 0.510028 0.115364
C34   C     C_R   0.543004 0.484677 0.488255 0.111777
C35   C     C_R   0.541531 0.401602 0.423921 -0.233064
C36   C     C_R   0.461986 0.603247 0.571593 -0.234578
C37   C     C_R   0.462454 0.353842 0.380876 -0.183941
C38   C     C_R   0.544283 0.655419 0.610928 -0.194954
C39   C     C_R   0.981024 0.494797 0.737888 -0.098486
C40   C     C_R   0.025548 0.516922 0.264731 -0.094202
C41   C     C_R   0.063695 0.491943 0.760983 -0.184589
C42   C     C_R   0.066264 0.459310 0.196247 -0.173353
C43   C     C_R   0.056901 0.484531 0.841256 -0.216327
C44   C     C_R   0.073131 0.473198 0.117538 -0.239607
C45   C     C_R   0.967422 0.479789 0.899863 0.064231
C46   C     C_R   0.042526 0.546971 0.107253 -0.009050
C47   C     C_R   0.882042 0.477479 0.876676 0.531946
C48   C     C_R   0.008784 0.610518 0.175483 0.495252
C49   C     C_R   0.890376 0.487431 0.795795 -0.303263
C50   C     C_R   0.997316 0.592426 0.254344 -0.305979
C51   C     C_2   0.965317 0.478874 0.985591 0.380867
C52   C     C_2   0.039089 0.553317 0.024105 0.378465
Cu1   Cu    Cu3+1 0.916740 0.524770 0.521640 0.967598
Cu2   Cu    Cu3+1 0.083260 0.475230 0.478360 0.972368
H1    H     H_    0.134254 0.496601 0.717257 0.160241
H2    H     H_    0.088948 0.401316 0.203606 0.183790
H3    H     H_    0.533320 0.208444 0.528679 0.145804
H4    H     H_    0.458518 0.804484 0.533240 0.142196
H5    H     H_    0.467870 0.291929 0.331204 0.141412
H6    H     H_    0.541888 0.721430 0.656930 0.143685
H7    H     H_    0.720813 0.446146 0.466137 0.156843
H8    H     H_    0.273896 0.546106 0.540236 0.153997
H9    H     H_    0.601652 0.372107 0.403710 0.128626
H10   H     H_    0.403064 0.634286 0.589958 0.125191
H11   H     H_    0.965383 0.636356 0.307651 0.160860
H12   H     H_    0.826072 0.489109 0.778354 0.155310
H13   H     H_    0.100227 0.425232 0.064492 0.158172
H14   H     H_    0.122154 0.483814 0.858168 0.149923
H15   H     H_    0.354783 0.160275 0.542460 0.147756
H16   H     H_    0.636960 0.852654 0.520300 0.150145
H17   H     H_    0.685923 0.234462 0.483678 0.142021
H18   H     H_    0.316702 0.761226 0.506613 0.152235
H19   H     H_    0.929089 0.152200 0.491385 0.145767
H20   H     H_    0.066820 0.853985 0.539897 0.171642
H21   H     H_    0.183028 0.032039 0.547827 0.133365
H22   H     H_    0.810243 0.978124 0.503449 0.132624
N1    N     N_R   0.208390 0.438070 0.445820 -0.237322
N2    N     N_R   0.791610 0.561930 0.554180 -0.238210
O1    O     O_R   0.020090 0.662480 0.528530 -0.538999
O2    O     O_R   0.979910 0.337520 0.471470 -0.557501
O3    O     O_R   0.160710 0.620650 0.491980 -0.597082
O4    O     O_R   0.839290 0.379350 0.508020 -0.595533
O5    O     O_R   0.921540 0.523360 0.633990 -0.558173
O6    O     O_R   0.078460 0.476640 0.366010 -0.530930
O7    O     O_R   0.062170 0.481520 0.597440 -0.596721
O8    O     O_R   0.937830 0.518480 0.402560 -0.595518
O9    O     O_3   0.874103 0.696435 0.652538 -0.551852
C53   C     C_3   0.845205 0.689380 0.737096 -0.241429
H23   H     H_    0.911778 0.692954 0.757687 0.185469
H24   H     H_    0.781121 0.617016 0.750964 0.122892
H25   H     H_    0.825324 0.755366 0.773830 0.185150
O10   O     O_3   0.135093 0.317400 0.336515 -0.549704
C54   C     C_3   0.086355 0.211851 0.338280 -0.278868
H26   H     H_    0.004500 0.188676 0.337408 0.180054
H27   H     H_    0.090386 0.189926 0.394140 0.118328
H28   H     H_    0.118302 0.168319 0.281995 0.186764
N3    N     N_3   0.307193 0.261607 0.282557 -0.599890
H29   H     H_    0.310764 0.199162 0.297945 0.208976
H30   H     H_    0.373730 0.294775 0.241181 0.229307
N4    N     N_3   0.717297 0.771567 0.689497 -0.595063
H31   H     H_    0.655575 0.756390 0.738987 0.214371
H32   H     H_    0.714375 0.823370 0.659657 0.223798
O11   O     O_3   0.100438 0.640168 0.988819 -0.569898
C55   C     C_3   0.198743 0.682603 0.007873 -0.297253
H33   H     H_    0.233014 0.624108 0.995052 0.139161
H34   H     H_    0.196854 0.722035 0.072836 0.173604
H35   H     H_    0.248997 0.740389 0.968233 0.188288
O12   O     O_3   0.897104 0.392903 0.019112 -0.602341
C56   C     C_3   0.822955 0.416905 0.084826 -0.241423
H36   H     H_    0.747101 0.356490 0.078715 0.176523
H37   H     H_    0.817359 0.491062 0.087214 0.198214
H38   H     H_    0.838804 0.416631 0.144103 0.167559
O13   O     O_3   0.794907 0.476070 0.935167 -0.583919
C57   C     C_3   0.713586 0.383961 0.916790 -0.329879
H39   H     H_    0.734251 0.316698 0.908545 0.177767
H40   H     H_    0.687578 0.382445 0.861600 0.158220
H41   H     H_    0.648171 0.377914 0.969379 0.186966
O14   O     O_3   0.976096 0.680490 0.162730 -0.565832
C58   C     C_3   0.018193 0.776762 0.210634 -0.297270
H42   H     H_    0.099968 0.797232 0.211524 0.139665
H43   H     H_    0.972479 0.780308 0.274212 0.154416
H44   H     H_    0.014619 0.835112 0.183129 0.197532

loop_
_geom_bond_atom_site_label_1
_geom_bond_atom_site_label_2
_ccdc_geom_bond_type
C15   C18   A    
O9    C53   S    
C52   O11   S    
C54   H26   S    
C29   C33   A    
C27   C29   A    
C9    H18   S    
C4    C8    A    
C55   H34   S    
C57   H39   S    
C39   C41   A    
Cu1   Cu2   S    
C21   C31   A    
C26   N2    A    
C22   C32   A    
C25   N1    A    
Cu1   O1    S    
C3    C7    A    
C56   H37   S    
C23   C39   S    
C45   C51   S    
C1    O3    A    
C15   C16   A    
C46   C52   S    
C33   C36   A    
O12   C56   S    
C34   C35   A    
C26   O9    S    
O14   C58   S    
C8    H19   S    
C42   H2    S    
C11   C15   A    
C35   H9    S    
C18   H4    S    
C41   H1    S    
C12   C16   A    
C51   O12   S    
Cu1   O8    S    
C32   C38   A    
C28   N2    A    
C5    C13   A    
Cu2   N1    S    
C10   H17   S    
C48   C50   A    
C54   H27   S    
C41   C43   A    
C20   H16   S    
C42   C44   A    
Cu2   O6    S    
C55   H33   S    
N3    H30   S    
C44   C46   A    
N3    H29   S    
C7    H20   S    
Cu2   O2    S    
C45   C47   A    
C46   C48   A    
C22   N4    S    
C49   H12   S    
C30   C34   A    
C51   C52   D    
C14   C20   A    
C2    O2    A    
C47   C49   A    
C56   H38   S    
C5    C7    A    
C13   C19   A    
C16   C17   A    
C48   O14   S    
C31   C37   A    
Cu1   O4    S    
C1    C3    S    
C5    H21   S    
C2    C4    S    
C3    C9    A    
C27   H8    S    
C6    C14   A    
C21   N3    S    
C53   H25   S    
N4    H32   S    
C33   C34   A    
C9    C11   A    
C37   H5    S    
C58   H43   S    
C10   C12   A    
C38   H6    S    
C6    C8    A    
C39   C49   A    
C12   C14   A    
C54   H28   S    
C23   O7    A    
C23   O5    A    
C2    O4    A    
C4    C10   A    
C36   C38   A    
C1    O1    A    
O13   C57   S    
C58   H44   S    
C47   O13   S    
C21   C25   A    
C25   O10   S    
C35   C37   A    
C53   H24   S    
C27   N1    A    
Cu2   O7    S    
C57   H40   S    
C58   H42   S    
C6    H22   S    
C43   H14   S    
Cu1   O5    S    
C28   C30   A    
Cu1   N2    S    
C24   O6    A    
C43   C45   A    
C56   H36   S    
C28   H7    S    
C30   C32   A    
C11   C13   A    
C40   C50   A    
C40   C42   A    
O10   C54   S    
C24   C40   S    
C18   C20   A    
Cu2   O3    S    
C50   H11   S    
C57   H41   S    
C19   H15   S    
C17   C19   A    
C53   H23   S    
C29   C31   A    
C22   C26   A    
O11   C55   S    
C44   H13   S    
N4    H31   S    
C36   H10   S    
C24   O8    A    
C55   H35   S    
C17   H3    S    
