data_mof_unit_12915.cif
_audit_creation_date              2012-12-10T17:34:53-0500
_audit_creation_method            fapswitch 2.2
_symmetry_space_group_name_H-M    P1
_symmetry_Int_Tables_number       1
_space_group_crystal_system       triclinic
_cell_length_a                    12.054578
_cell_length_b                    12.800311
_cell_length_c                    15.737431
_cell_angle_alpha                 90.375046
_cell_angle_beta                  86.115469
_cell_angle_gamma                 94.150323
_cell_volume                      2416.38703895

loop_
_atom_site_label
_atom_site_type_symbol
_atom_type_description
_atom_site_fract_x
_atom_site_fract_y
_atom_site_fract_z
_atom_type_partial_charge
C1    C     C_R   0.522560 0.700071 0.497693 0.854613
C2    C     C_R   0.537226 0.811774 0.497339 -0.114322
C3    C     C_R   0.608163 0.966264 0.569647 -0.009363
C4    C     C_R   0.500128 0.500427 0.661507 0.891561
C5    C     C_R   0.603053 0.859009 0.557964 -0.315062
C6    C     C_R   0.473376 0.869387 0.445891 -0.112614
C7    C     C_R   0.471015 0.977283 0.460578 0.116962
C8    C     C_R   0.537293 0.025418 0.524071 0.135011
C9    C     C_R   0.528806 0.131005 0.541423 -0.234216
C10   C     C_R   0.399768 0.144144 0.431105 -0.189263
C11   C     C_R   0.404375 0.038703 0.413696 -0.142225
C12   C     C_3   0.430651 0.602504 0.054996 -0.280895
C13   C     C_R   0.952880 0.392517 0.427430 -0.126397
C14   C     C_R   0.836912 0.405450 0.432906 -0.026165
C15   C     C_R   0.860089 0.548365 0.528870 0.632602
C16   C     C_R   0.477294 0.300010 0.500664 0.867343
C17   C     C_R   0.976091 0.532446 0.532417 -0.077976
C18   C     C_R   0.023609 0.458790 0.475903 -0.033917
C19   C     C_R   0.141374 0.456459 0.467375 0.066717
C20   C     C_R   0.163409 0.584152 0.575076 -0.044894
C21   C     C_R   0.047577 0.590615 0.587165 -0.103715
C22   C     C_R   0.500048 0.500269 0.338475 0.879362
C23   C     C_3   0.505692 0.514005 0.082687 -0.081415
C24   C     C_3   0.429388 0.605229 0.953959 0.357564
C25   C     C_3   0.635035 0.534065 0.941517 0.212975
C26   C     C_3   0.632134 0.539435 0.044291 0.374489
C27   C     C_1   0.500883 0.504451 0.249780 -0.127210
C28   C     C_3   0.507663 0.517376 0.916884 -0.105669
C29   C     C_3   0.247222 0.658849 0.926470 -0.235394
C30   C     C_2   0.314407 0.592964 0.100271 0.473424
C31   C     C_2   0.688125 0.010784 0.630428 0.375237
C32   C     C_2   0.409370 0.813978 0.379044 0.445685
C33   C     C_2   0.471044 0.712766 0.916117 0.311090
C34   C     C_3   0.450491 0.409177 0.049335 -0.495878
C35   C     C_2   0.996732 0.307234 0.372753 0.381794
C36   C     C_2   0.007170 0.652267 0.661587 0.464122
C37   C     C_2   0.764065 0.337469 0.381163 0.480043
C38   C     C_3   0.851589 0.722600 0.509152 -0.261736
C39   C     C_3   0.805139 0.450400 0.900904 -0.121260
C40   C     C_2   0.693576 0.630854 0.894260 0.481577
C41   C     C_2   0.671602 0.647371 0.079348 0.414522
C42   C     C_3   0.688619 0.368357 0.087635 -0.161978
C43   C     C_3   0.329841 0.271143 0.915699 -0.295048
C44   C     C_3   0.458405 0.407124 0.951565 0.470337
C45   C     C_1   0.502753 0.508874 0.174566 0.001808
C46   C     C_1   0.504110 0.511172 0.825053 0.041989
C47   C     C_1   0.501538 0.505582 0.750080 -0.143664
C48   C     C_R   0.462836 0.189220 0.494182 -0.062766
H1    H     H_    0.466439 0.678050 0.078778 0.231049
H2    H     H_    0.361698 0.399381 0.073278 0.204329
H3    H     H_    0.159858 0.624997 0.934676 0.194107
H4    H     H_    0.258065 0.698508 0.863600 0.159586
H5    H     H_    0.259807 0.717290 0.978097 0.189451
H6    H     H_    0.253118 0.531226 0.083877 0.116288
H7    H     H_    0.705930 0.964852 0.684993 0.088904
H8    H     H_    0.449721 0.758058 0.337435 0.062801
H9    H     H_    0.484647 0.720950 0.847551 0.054626
H10   H     H_    0.964568 0.291468 0.310852 0.097470
H11   H     H_    0.058068 0.719611 0.682810 0.044567
H12   H     H_    0.482138 0.337849 0.074786 0.135242
H13   H     H_    0.729492 0.262237 0.405810 0.081121
H14   H     H_    0.825959 0.795826 0.539901 0.189922
H15   H     H_    0.812859 0.714266 0.447072 0.176268
H16   H     H_    0.943798 0.732805 0.497759 0.145593
H17   H     H_    0.844771 0.495619 0.952563 0.217296
H18   H     H_    0.833502 0.485179 0.838003 0.205099
H19   H     H_    0.834588 0.370345 0.901903 0.158908
H20   H     H_    0.661680 0.659684 0.836862 0.045138
H21   H     H_    0.712056 0.650715 0.139063 0.116564
H22   H     H_    0.656204 0.328932 0.030804 0.173570
H23   H     H_    0.573526 0.170374 0.591103 0.194568
H24   H     H_    0.634398 0.352521 0.146482 0.183007
H25   H     H_    0.767451 0.332193 0.098008 0.187636
H26   H     H_    0.339781 0.232125 0.977410 0.153656
H27   H     H_    0.384871 0.238215 0.864242 0.163728
H28   H     H_    0.242344 0.254035 0.899260 0.208668
H29   H     H_    0.351452 0.191501 0.392704 0.170819
H30   H     H_    0.357285 0.007530 0.362168 0.199905
H31   H     H_    0.648424 0.811073 0.598144 0.172830
H32   H     H_    0.181992 0.406173 0.421616 0.166762
H33   H     H_    0.218900 0.628569 0.615491 0.132050
H34   H     H_    0.516761 0.346987 0.930089 0.124075
N1    N     N_R   0.207800 0.519340 0.515510 -0.109536
N2    N     N_R   0.792190 0.480660 0.484490 -0.170076
O1    O     O_R   0.421690 0.658830 0.504140 -0.610000
O2    O     O_2   0.287851 0.655984 0.155238 -0.552519
O3    O     O_2   0.740603 0.094969 0.617389 -0.560425
O4    O     O_2   0.310108 0.824276 0.374189 -0.537873
O5    O     O_2   0.481965 0.791429 0.959927 -0.521066
O6    O     O_2   0.064393 0.250299 0.398200 -0.563034
O7    O     O_2   0.921013 0.624811 0.703268 -0.526096
O8    O     O_2   0.748404 0.362234 0.308438 -0.594643
O9    O     O_3   0.816220 0.637110 0.563426 -0.559847
O10   O     O_3   0.687024 0.442279 0.910634 -0.645893
O11   O     O_2   0.783119 0.670858 0.914554 -0.529258
O12   O     O_R   0.609320 0.646410 0.494190 -0.590312
O13   O     O_2   0.655562 0.730365 0.046236 -0.542996
O14   O     O_3   0.714342 0.476656 0.076183 -0.621145
O15   O     O_3   0.351258 0.380786 0.921256 -0.535891
O16   O     O_R   0.406150 0.506210 0.627840 -0.613815
O17   O     O_R   0.593770 0.493790 0.617880 -0.575936
O18   O     O_R   0.390680 0.353590 0.505810 -0.609672
O19   O     O_R   0.578310 0.341170 0.495860 -0.638707
O20   O     O_R   0.406230 0.506210 0.382120 -0.620193
O21   O     O_R   0.593850 0.493790 0.372160 -0.579381
O22   O     O_3   0.319349 0.576158 0.927940 -0.560960
Zn1   Zn    Zn3+2 0.374720 0.508290 0.506640 0.982489
Zn2   Zn    Zn3+2 0.625280 0.491710 0.493360 1.013391

loop_
_geom_bond_atom_site_label_1
_geom_bond_atom_site_label_2
_ccdc_geom_bond_type
C6    C32   S    
C23   C45   S    
C14   N2    A    
C36   H11   S    
C16   C48   S    
C12   H1    S    
C7    C8    A    
C21   C36   S    
C25   C28   S    
C7    C11   A    
C30   H6    S    
C12   C23   S    
C28   C46   S    
C13   C18   A    
C35   H10   S    
C43   O15   S    
C13   C35   S    
C44   H34   S    
C42   O14   S    
C25   C40   S    
C44   O15   S    
C32   O4    D    
C42   H22   S    
C22   O20   A    
C18   C19   A    
C23   C26   S    
C20   H33   S    
C8    C9    A    
C42   H25   S    
O19   Zn2   S    
C5    H31   S    
C27   C45   T    
C43   H26   S    
O12   Zn2   S    
C25   O10   S    
C13   C14   A    
C34   H12   S    
C39   H17   S    
C2    C6    A    
C19   N1    A    
C10   H29   S    
C38   H16   S    
C1    O1    A    
O21   Zn2   S    
C34   H2    S    
C31   O3    D    
C24   C28   S    
C34   C44   S    
C3    C8    A    
C25   C26   S    
C28   C44   S    
C17   C21   A    
C39   O10   S    
C11   H30   S    
C33   O5    D    
C16   O19   A    
C23   C34   S    
C4    O17   A    
C42   H24   S    
C17   C18   A    
O18   Zn1   S    
C3    C31   S    
C15   N2    A    
C26   O14   S    
C36   O7    D    
C16   O18   A    
C30   O2    D    
C22   C27   S    
C4    O16   A    
C10   C48   A    
C39   H18   S    
C41   O13   D    
C29   O22   S    
C2    C5    A    
C24   O22   S    
C40   O11   D    
C43   H27   S    
C41   H21   S    
C38   H15   S    
C29   H3    S    
C43   H28   S    
C15   C17   A    
C46   C47   T    
O16   Zn1   S    
C33   H9    S    
C37   O8    D    
C12   C30   S    
C39   H19   S    
C9    H23   S    
C3    C5    A    
C15   O9    S    
C37   H13   S    
C6    C7    A    
C22   O21   A    
C12   C24   S    
C24   C33   S    
C14   C37   S    
C29   H5    S    
O17   Zn2   S    
C1    O12   A    
C1    C2    S    
C38   O9    S    
N2    Zn2   S    
N1    Zn1   S    
C19   H32   S    
C10   C11   A    
C35   O6    D    
C20   C21   A    
C9    C48   A    
C40   H20   S    
C20   N1    A    
C4    C47   S    
C31   H7    S    
O1    Zn1   S    
C32   H8    S    
O20   Zn1   S    
C26   C41   S    
C38   H14   S    
C29   H4    S    
