data_mof_unit_47804.cif
_audit_creation_date              2012-12-10T19:04:45-0500
_audit_creation_method            fapswitch 2.2
_symmetry_space_group_name_H-M    P1
_symmetry_Int_Tables_number       1
_space_group_crystal_system       triclinic
_cell_length_a                    15.857764
_cell_length_b                    10.845449
_cell_length_c                    9.536255
_cell_angle_alpha                 89.871192
_cell_angle_beta                  89.90814
_cell_angle_gamma                 90.343598
_cell_volume                      1640.05294325

loop_
_atom_site_label
_atom_site_type_symbol
_atom_type_description
_atom_site_fract_x
_atom_site_fract_y
_atom_site_fract_z
_atom_type_partial_charge
C1    C     C_R   0.498359 0.262568 0.500028 0.831882
C2    C     C_3   0.082724 0.498866 0.500536 0.104477
C3    C     C_3   0.972432 0.588379 0.587124 -0.220195
C4    C     C_3   0.917067 0.500716 0.499766 0.066556
C5    C     C_3   0.029085 0.609996 0.456543 -0.127489
C6    C     C_3   0.972388 0.522100 0.369277 -0.215807
C7    C     C_1   0.174420 0.498915 0.500500 -0.023471
C8    C     C_1   0.825388 0.501014 0.499614 0.029120
C9    C     C_R   0.487789 0.062760 0.623364 -0.010946
C10   C     C_R   0.490542 0.129939 0.498978 -0.167694
C11   C     C_R   0.482430 0.066334 0.371572 -0.287114
C12   C     C_R   0.339783 0.499760 0.500078 0.811347
C13   C     C_R   0.481449 0.937219 0.369163 0.480536
C14   C     C_R   0.490188 0.870976 0.496975 -0.178349
C15   C     C_R   0.486077 0.936171 0.622808 -0.039478
C16   C     C_3   0.534624 0.925504 0.756984 -0.474849
C17   C     C_3   0.537001 0.066456 0.758173 0.380546
C18   C     C_R   0.541865 0.590221 0.073403 0.305764
C19   C     C_R   0.452463 0.417924 0.074788 -0.076395
C20   C     C_R   0.452473 0.417891 0.925839 -0.055694
C21   C     C_R   0.542043 0.590042 0.925918 0.240288
C22   C     C_3   0.634399 0.616804 0.920474 -0.494971
C23   C     C_R   0.498651 0.737794 0.499380 0.821093
C24   C     C_3   0.633966 0.617910 0.079475 -0.476200
C25   C     C_R   0.660171 0.500195 0.499929 0.819725
C26   C     C_3   0.971470 0.391452 0.543022 0.515775
C27   C     C_3   0.027683 0.410865 0.412983 -0.201548
C28   C     C_1   0.250018 0.499266 0.500327 -0.174259
C29   C     C_1   0.749843 0.500700 0.499713 -0.150904
C30   C     C_3   0.027729 0.477322 0.631420 -0.205941
Cu1   Cu    Cu3+1 0.500000 0.499980 0.640670 0.962606
Cu2   Cu    Cu3+1 0.500000 0.500020 0.359330 0.962278
H1    H     H_    0.051223 0.337208 0.342661 0.168167
H2    H     H_    0.596783 0.880547 0.743406 0.194428
H3    H     H_    0.498502 0.105165 0.844931 0.094618
H4    H     H_    0.415309 0.349930 0.130973 0.136647
H5    H     H_    0.415340 0.349876 0.870193 0.133192
H6    H     H_    0.671519 0.539359 0.876360 0.237855
H7    H     H_    0.648637 0.708484 0.873936 0.193704
H8    H     H_    0.671261 0.541528 0.125671 0.223146
H9    H     H_    0.646984 0.710539 0.124482 0.216557
H10   H     H_    0.948517 0.540843 0.262003 0.164654
H11   H     H_    0.054324 0.700452 0.420764 0.150471
H12   H     H_    0.948595 0.661362 0.658073 0.161601
H13   H     H_    0.051298 0.457694 0.738677 0.165150
H14   H     H_    0.481323 0.115775 0.272745 0.179584
H15   H     H_    0.495436 0.885918 0.842939 0.173825
N1    N     N_R   0.500530 0.500930 0.147930 -0.190845
N2    N     N_R   0.500530 0.500890 0.852020 -0.182858
O1    O     O_R   0.500000 0.319640 0.618810 -0.567152
O2    O     O_R   0.500010 0.319680 0.381230 -0.591650
O3    O     O_R   0.379070 0.499970 0.618770 -0.580340
O4    O     O_R   0.379080 0.500010 0.381190 -0.582627
O5    O     O_R   0.499990 0.680320 0.618770 -0.585233
O6    O     O_R   0.500000 0.680360 0.381190 -0.534785
O7    O     O_R   0.620920 0.499990 0.618810 -0.567657
O8    O     O_R   0.620930 0.500030 0.381230 -0.581781
O9    O     O_3   0.619647 0.119691 0.756942 -0.554728
C31   C     C_3   0.667863 0.097685 0.634404 -0.139979
H16   H     H_    0.660423 0.175480 0.559880 0.161860
H17   H     H_    0.653261 0.009429 0.580833 0.123353
H18   H     H_    0.735372 0.094770 0.664286 0.225124
S1    S     S_3+6 0.931991 0.245834 0.600638 -0.023313
O10   O     O_2   0.879271 0.263490 0.730049 -0.299199
O11   O     O_2   0.878978 0.189621 0.486724 -0.318973
O12   O     O_3   0.013469 0.152772 0.637181 -0.540306
H19   H     H_    0.987234 0.073803 0.666901 0.371803
O13   O     O_3   0.483216 0.877875 0.240969 -0.566311
C32   C     C_3   0.400921 0.875752 0.185383 -0.305936
H20   H     H_    0.355849 0.829150 0.258204 0.161455
H21   H     H_    0.401714 0.822130 0.086444 0.177900
H22   H     H_    0.378856 0.970313 0.159675 0.147888

loop_
_geom_bond_atom_site_label_1
_geom_bond_atom_site_label_2
_ccdc_geom_bond_type
S1    O11   D    
C32   H22   S    
C18   C21   A    
C30   H13   S    
C2    C7    S    
C25   O7    A    
Cu1   O3    S    
C4    C8    S    
C21   N2    A    
C27   H1    S    
C26   C27   S    
C12   C28   S    
C18   C24   S    
C8    C29   T    
C19   H4    S    
C5    C6    S    
C15   C16   S    
C22   H6    S    
C32   H21   S    
C16   H2    S    
C19   C20   A    
C16   C17   S    
C2    C27   S    
Cu1   O7    S    
C1    O1    A    
Cu2   O6    S    
C12   O4    A    
C17   O9    S    
O12   H19   S    
C5    H11   S    
S1    O12   S    
C31   H16   S    
C13   C14   A    
C24   H9    S    
Cu2   N1    S    
C25   O8    A    
Cu2   O8    S    
Cu1   N2    S    
C16   H15   S    
C12   O3    A    
C25   C29   S    
C3    H12   S    
C31   H17   S    
C4    C6    S    
C19   N1    A    
O13   C32   S    
O9    C31   S    
C7    C28   T    
C14   C23   S    
C3    C30   S    
C26   S1    S    
Cu2   O2    S    
C20   N2    A    
C6    C27   S    
C1    O2    A    
C9    C17   S    
C26   C30   S    
C22   C24   S    
C2    C5    S    
Cu1   O1    S    
C3    C4    S    
Cu2   O4    S    
C23   O5    A    
C9    C10   A    
C31   H18   S    
Cu1   Cu2   S    
C1    C10   S    
C3    C5    S    
C18   N1    A    
C4    C26   S    
C23   O6    A    
C2    C30   S    
C9    C15   A    
C20   H5    S    
C11   C13   A    
C22   H7    S    
C24   H8    S    
Cu1   O5    S    
C32   H20   S    
C10   C11   A    
S1    O10   D    
C6    H10   S    
C14   C15   A    
C11   H14   S    
C17   H3    S    
C21   C22   S    
C13   O13   S    
