data_mof_unit_21628.cif
_audit_creation_date              2013-03-05T16:17:52-0500
_audit_creation_method            fapswitch 2.2
_symmetry_space_group_name_H-M    P1
_symmetry_Int_Tables_number       1
_space_group_crystal_system       triclinic
_cell_length_a                    16.345247
_cell_length_b                    16.30481
_cell_length_c                    10.790435
_cell_angle_alpha                 89.984058
_cell_angle_beta                  91.626955
_cell_angle_gamma                 90.596794
_cell_volume                      2874.4020271

loop_
_atom_site_label
_atom_site_type_symbol
_atom_site_description
_atom_site_fract_x
_atom_site_fract_y
_atom_site_fract_z
_atom_type_partial_charge
O1    O     O_R   0.092530 0.407440 0.616040 -0.613078
O2    O     O_R   0.092530 0.407440 0.383960 -0.586326
O3    O     O_R   0.092530 0.592560 0.383960 -0.700515
O4    O     O_R   0.092530 0.592560 0.616040 -0.485523
O5    O     O_R   0.592530 0.907440 0.616040 -0.566236
O6    O     O_R   0.592530 0.907440 0.383960 -0.619865
O7    O     O_R   0.592530 0.092560 0.383960 -0.707343
O8    O     O_R   0.592530 0.092560 0.616040 -0.481858
C1    C     C_R   0.119678 0.379926 0.501375 0.991362
C2    C     C_R   0.120963 0.618022 0.500676 1.034413
C3    C     C_R   0.617258 0.877946 0.499564 0.998118
C4    C     C_R   0.622245 0.117274 0.500355 0.983459
O9    O     O_R   0.907330 0.407420 0.616040 -0.567746
O10   O     O_R   0.907330 0.407420 0.383960 -0.679105
O11   O     O_R   0.907330 0.592580 0.383960 -0.654442
O12   O     O_R   0.907330 0.592580 0.616040 -0.558350
O13   O     O_R   0.407330 0.907420 0.616040 -0.667733
O14   O     O_R   0.407330 0.907420 0.383960 -0.568714
O15   O     O_R   0.407330 0.092580 0.383960 -0.540184
O16   O     O_R   0.407330 0.092580 0.616040 -0.665191
C5    C     C_R   0.883358 0.376377 0.498230 1.038978
C6    C     C_R   0.882454 0.623791 0.501699 1.070577
C7    C     C_R   0.376027 0.882953 0.497745 1.033939
C8    C     C_R   0.387325 0.127382 0.500987 1.034875
Zn1   Zn    Zn3+2 0.999890 0.500000 0.654960 1.073790
Zn2   Zn    Zn3+2 0.999890 0.500000 0.345040 0.942285
Zn3   Zn    Zn3+2 0.499890 0.000000 0.654960 1.012704
Zn4   Zn    Zn3+2 0.499890 0.000000 0.345040 1.007414
C9    C     C_3   0.814723 0.254950 0.621058 0.538142
C10   C     C_3   0.828443 0.231001 0.390672 0.554733
C11   C     C_3   0.774216 0.706338 0.373799 0.495332
C12   C     C_3   0.846423 0.787401 0.545494 0.584662
C13   C     C_3   0.342674 0.727224 0.523602 0.551325
C14   C     C_3   0.254308 0.801427 0.358686 0.603588
C15   C     C_3   0.287867 0.223645 0.373737 0.562108
C16   C     C_3   0.350710 0.293424 0.562948 0.567979
C17   C     C_3   0.278360 0.654823 0.500862 0.097664
C18   C     C_3   0.181328 0.738057 0.376137 0.021811
C19   C     C_3   0.223780 0.293853 0.375179 0.090908
C20   C     C_3   0.270774 0.348158 0.578037 0.070437
C21   C     C_3   0.761035 0.175825 0.604323 0.130703
C22   C     C_3   0.745746 0.179795 0.375360 0.034297
C23   C     C_3   0.709255 0.776780 0.366443 0.136107
C24   C     C_3   0.769639 0.847149 0.548788 0.041116
H1    H     H_    0.288271 0.628116 0.407683 0.180081
H2    H     H_    0.185261 0.692261 0.303269 0.203059
H3    H     H_    0.251055 0.352913 0.344372 0.219823
H4    H     H_    0.280476 0.408762 0.534223 0.207783
H5    H     H_    0.799274 0.123924 0.575480 0.203589
H6    H     H_    0.759335 0.114273 0.357182 0.189390
H7    H     H_    0.737696 0.830619 0.322309 0.225105
H8    H     H_    0.781678 0.900001 0.486315 0.176705
C25   C     C_3   0.726984 0.339262 0.468459 0.521714
C26   C     C_3   0.740182 0.683617 0.610473 0.482511
C27   C     C_3   0.231155 0.830175 0.587723 0.508860
C28   C     C_3   0.246223 0.177146 0.592083 0.490602
C29   C     C_3   0.816950 0.303207 0.493505 -0.525170
C30   C     C_3   0.814631 0.697292 0.508965 -0.525747
C31   C     C_3   0.303707 0.814318 0.491674 -0.532809
C32   C     C_3   0.322978 0.203963 0.507397 -0.527445
C33   C     C_3   0.188227 0.687850 0.499958 -0.472995
C34   C     C_3   0.190686 0.313160 0.506312 -0.497020
C35   C     C_3   0.692722 0.184716 0.497072 -0.480078
C36   C     C_3   0.684424 0.807843 0.497593 -0.481806
C37   C     C_3   0.181233 0.748790 0.610682 0.594675
C38   C     C_3   0.165605 0.227464 0.561340 0.615539
C39   C     C_3   0.656438 0.273578 0.497407 0.597886
C40   C     C_3   0.659476 0.724998 0.564246 0.596545
C41   C     C_3   0.039957 0.425080 0.080604 -0.139426
C42   C     C_3   0.019362 0.416130 0.926736 -0.296420
C43   C     C_3   0.058962 0.562383 0.924886 -0.152681
C44   C     C_3   0.045640 0.574315 0.079499 -0.203286
C45   C     C_3   0.527987 0.917199 0.079610 -0.172244
C46   C     C_3   0.503992 0.912050 0.925733 -0.249248
C47   C     C_3   0.568795 0.050426 0.926067 -0.142670
C48   C     C_3   0.559285 0.062756 0.080702 -0.279990
C49   C     C_3   0.911953 0.499035 0.072005 -0.301682
C50   C     C_3   0.914723 0.523413 0.922183 -0.181441
C51   C     C_3   0.414166 0.013193 0.065907 -0.124920
C52   C     C_3   0.421868 0.037748 0.918066 -0.315461
N1    N     N_3   0.998760 0.500000 0.138610 -0.256891
N2    N     N_3   0.998760 0.500000 0.861390 -0.186391
N3    N     N_3   0.498760 0.000000 0.138610 -0.193932
N4    N     N_3   0.498760 0.000000 0.861390 -0.205666
Cl1   Cl    Cl    0.778381 0.313980 0.749189 -0.348996
Cl2   Cl    Cl    0.863953 0.261203 0.245495 -0.353684
Cl3   Cl    Cl    0.734881 0.605798 0.330863 -0.294850
Cl4   Cl    Cl    0.905285 0.788365 0.687912 -0.243442
Cl5   Cl    Cl    0.388244 0.725002 0.676295 -0.278506
Cl6   Cl    Cl    0.214993 0.894496 0.287717 -0.234886
Cl7   Cl    Cl    0.244801 0.127559 0.312347 -0.332561
Cl8   Cl    Cl    0.414960 0.287077 0.699134 -0.256851
Cl9   Cl    Cl    0.913485 0.223587 0.674796 -0.337358
Cl10  Cl    Cl    0.908017 0.158406 0.420005 -0.340917
Cl11  Cl    Cl    0.842359 0.734683 0.252297 -0.423576
Cl12  Cl    Cl    0.919230 0.834972 0.447966 -0.294824
Cl13  Cl    Cl    0.428284 0.708300 0.431249 -0.352530
Cl14  Cl    Cl    0.312347 0.756940 0.235537 -0.365206
Cl15  Cl    Cl    0.361122 0.266118 0.268202 -0.307318
Cl16  Cl    Cl    0.417541 0.359589 0.479622 -0.289601
Cl17  Cl    Cl    0.297047 0.566952 0.596683 -0.307607
Cl18  Cl    Cl    0.081244 0.776543 0.341701 -0.300776
Cl19  Cl    Cl    0.153682 0.270984 0.255025 -0.326198
Cl20  Cl    Cl    0.260945 0.378472 0.734890 -0.336746
Cl21  Cl    Cl    0.743114 0.136621 0.751188 -0.354417
Cl22  Cl    Cl    0.693661 0.215567 0.238097 -0.368746
Cl23  Cl    Cl    0.630565 0.746232 0.258915 -0.302778
Cl24  Cl    Cl    0.766252 0.900916 0.691448 -0.346439
Cl25  Cl    Cl    0.709125 0.426200 0.553061 -0.250012
Cl26  Cl    Cl    0.717426 0.387558 0.319161 -0.286848
Cl27  Cl    Cl    0.719059 0.584902 0.652183 -0.280972
Cl28  Cl    Cl    0.754067 0.719326 0.768196 -0.361759
Cl29  Cl    Cl    0.256743 0.871720 0.733906 -0.433180
Cl30  Cl    Cl    0.162743 0.909605 0.536650 -0.191470
Cl31  Cl    Cl    0.227078 0.071497 0.586121 -0.316786
Cl32  Cl    Cl    0.266829 0.186431 0.754827 -0.351009
Cl33  Cl    Cl    0.212964 0.699858 0.753517 -0.363463
Cl34  Cl    Cl    0.078518 0.773197 0.634330 -0.294981
Cl35  Cl    Cl    0.094507 0.171216 0.463880 -0.213169
Cl36  Cl    Cl    0.101341 0.235500 0.688929 -0.290840
Cl37  Cl    Cl    0.607273 0.290845 0.640890 -0.251913
Cl38  Cl    Cl    0.570071 0.283554 0.392819 -0.307737
Cl39  Cl    Cl    0.596595 0.651691 0.479528 -0.180112
Cl40  Cl    Cl    0.584270 0.735574 0.674273 -0.323948
C53   C     C_2   0.013227 0.350322 0.151029 0.662964
H9    H     H_    0.994005 0.357578 0.243474 0.130699
O17   O     O_2   0.020003 0.280454 0.113152 -0.325508
C54   C     C_2   0.954496 0.353809 0.885347 0.657250
H10   H     H_    0.918369 0.368596 0.808495 0.143595
O18   O     O_2   0.947884 0.283442 0.922122 -0.316472
C55   C     C_2   0.054710 0.645616 0.866215 0.664942
H11   H     H_    0.090556 0.696441 0.903628 0.201787
O19   O     O_2   0.013505 0.657490 0.773870 -0.503218
C56   C     C_2   0.006350 0.652806 0.126282 0.560299
H12   H     H_    0.987706 0.653214 0.221106 0.152254
O20   O     O_2   0.008841 0.719057 0.073586 -0.410102
C57   C     C_2   0.496539 0.844694 0.153760 0.760477
H13   H     H_    0.489260 0.851472 0.250362 0.154342
O21   O     O_2   0.492095 0.774645 0.114400 -0.339849
C58   C     C_2   0.427515 0.861740 0.889958 0.515579
H14   H     H_    0.401759 0.871767 0.803885 0.155102
O22   O     O_2   0.398487 0.804500 0.947345 -0.368738
C59   C     C_2   0.587076 0.136026 0.876379 0.677947
H15   H     H_    0.636556 0.171370 0.920263 0.200284
O23   O     O_2   0.551044 0.168318 0.790860 -0.487637
C60   C     C_2   0.536731 0.148360 0.127882 0.647524
H16   H     H_    0.521448 0.154505 0.223733 0.195543
O24   O     O_2   0.540698 0.212270 0.069430 -0.421702
C61   C     C_2   0.134932 0.425524 0.105423 0.434889
H17   H     H_    0.179376 0.413026 0.036425 0.143455
O25   O     O_2   0.167139 0.436751 0.206123 -0.557544
C62   C     C_2   0.090064 0.372434 0.874336 0.433398
H18   H     H_    0.124310 0.400340 0.808603 0.200766
O26   O     O_2   0.114204 0.307171 0.917545 -0.361395
C63   C     C_2   0.147904 0.540482 0.894024 0.388159
H19   H     H_    0.197338 0.536319 0.961840 0.152823
O27   O     O_2   0.168382 0.530308 0.788002 -0.431828
C64   C     C_2   0.130491 0.596318 0.135486 0.287114
H20   H     H_    0.157916 0.568348 0.214344 0.206809
O28   O     O_2   0.170890 0.652390 0.091435 -0.495260
C65   C     C_2   0.621653 0.899132 0.097341 0.366111
H21   H     H_    0.659436 0.871488 0.029200 0.162518
O29   O     O_2   0.659520 0.908222 0.193556 -0.571912
C66   C     C_2   0.563765 0.853168 0.870215 0.438178
H22   H     H_    0.610923 0.870433 0.810833 0.192372
O30   O     O_2   0.568311 0.782897 0.910232 -0.360030
C67   C     C_2   0.646038 0.009694 0.885981 0.409394
H23   H     H_    0.695378 0.987378 0.944254 0.164444
O31   O     O_2   0.654041 0.000389 0.776291 -0.451019
C68   C     C_2   0.645557 0.060863 0.139059 0.398558
H24   H     H_    0.656880 0.040289 0.231329 0.202977
O32   O     O_2   0.705641 0.087071 0.086068 -0.481507
C69   C     C_2   0.864210 0.420490 0.103896 0.437281
H25   H     H_    0.850756 0.412077 0.197991 0.194413
O33   O     O_2   0.831399 0.372447 0.031209 -0.454083
C70   C     C_2   0.838935 0.487517 0.858713 0.484211
H26   H     H_    0.782984 0.475987 0.907198 0.227306
O34   O     O_2   0.832214 0.485820 0.748019 -0.457287
C71   C     C_2   0.889508 0.613335 0.895517 0.554795
H27   H     H_    0.878021 0.631146 0.802772 0.213122
O35   O     O_2   0.875773 0.666468 0.971140 -0.444578
C72   C     C_2   0.851951 0.554587 0.129118 0.523025
H28   H     H_    0.872421 0.596279 0.192684 0.165689
O36   O     O_2   0.780060 0.557233 0.093456 -0.409248
C73   C     C_2   0.357116 0.941553 0.081522 0.366629
H29   H     H_    0.311583 0.920249 0.014201 0.201823
O37   O     O_2   0.354741 0.910540 0.180682 -0.489481
C74   C     C_2   0.345742 0.014845 0.842882 0.325919
H30   H     H_    0.351496 0.997730 0.748761 0.214990
O38   O     O_2   0.276835 0.027068 0.879947 -0.429545
C75   C     C_2   0.415848 0.129912 0.892100 0.618896
H31   H     H_    0.418588 0.148144 0.799393 0.195947
O39   O     O_2   0.399779 0.184237 0.964527 -0.396707
C76   C     C_2   0.358815 0.072213 0.119973 0.687582
H32   H     H_    0.293283 0.072983 0.097673 0.176632
O40   O     O_2   0.386929 0.128038 0.175902 -0.498218

loop_
_geom_bond_atom_site_label_1
_geom_bond_atom_site_label_2
_geom_bond_distance
_ccdc_geom_bond_type
C25   Cl26  1.796481 S    
C76   O40   1.174617 D    
C27   C31   1.619765 S    
C63   O27   1.212990 D    
C45   C46   1.697118 S    
C12   C30   1.598993 S    
C52   N4    1.546729 S    
C23   H7    1.103330 S    
C54   H10   1.034190 S    
C40   Cl40  1.742917 S    
C75   O39   1.217059 D    
O4    Zn1   2.176006 S    
C44   C64   1.536023 S    
C67   O31   1.204303 D    
C69   H25   1.053587 S    
C24   C36   1.610537 S    
C7    C31   1.619274 S    
C57   O21   1.219390 D    
O13   C7    1.417470 A    
C51   C76   1.460587 S    
C11   C23   1.572728 S    
C36   C40   1.585172 S    
C11   C30   1.591402 S    
C66   H22   1.052326 S    
C58   O22   1.219318 D    
O5    C3    1.416849 A    
C61   O25   1.207046 D    
C11   Cl11  1.801351 S    
C47   N4    1.552037 S    
C73   O37   1.184781 D    
C26   C40   1.557316 S    
C68   H24   1.062405 S    
C42   C54   1.518896 S    
C59   H15   1.085868 S    
C12   Cl4   1.789765 S    
C10   C29   1.633940 S    
C20   C34   1.601696 S    
C48   N3    1.558779 S    
C74   O38   1.224152 D    
C20   H4    1.107160 S    
C72   H28   1.013417 S    
O8    Zn3   2.176006 S    
C45   C65   1.568450 S    
C65   O29   1.201923 D    
O5    Zn3   2.197936 S    
C64   O28   1.225894 D    
O11   C6    1.439566 A    
O6    Zn4   2.181284 S    
O16   C8    1.396633 A    
C51   N3    1.586850 S    
C49   C69   1.536773 S    
C37   Cl34  1.755126 S    
C10   Cl2   1.754587 S    
C9    Cl1   1.802787 S    
C44   N1    1.571673 S    
C8    C32   1.643662 S    
C18   C33   1.568657 S    
C16   Cl8   1.785380 S    
C70   O34   1.196670 D    
C53   H9    1.061318 S    
C41   C53   1.503793 S    
C13   C31   1.595935 S    
C38   Cl36  1.760982 S    
Zn4   N3    2.227023 S    
C50   C70   1.510994 S    
O9    Zn1   2.158836 S    
C15   Cl15  1.808257 S    
C39   Cl37  1.788222 S    
C40   Cl39  1.800654 S    
C21   H5    1.107177 S    
C27   C37   1.573791 S    
C23   C36   1.568835 S    
C65   H21   1.075615 S    
C60   O24   1.219996 D    
C24   Cl24  1.774216 S    
C12   C24   1.597952 S    
O7    C4    1.391858 A    
C35   C39   1.571310 S    
C46   C66   1.512687 S    
C11   Cl3   1.810209 S    
C34   C38   1.573011 S    
C9    Cl9   1.779770 S    
C26   Cl28  1.806326 S    
C75   H31   1.045542 S    
O13   Zn3   2.158836 S    
O1    C1    1.401662 A    
C16   C20   1.602037 S    
O14   Zn4   2.175321 S    
C58   H14   1.022594 S    
O2    Zn2   2.181284 S    
C3    C36   1.593640 S    
C46   N4    1.595111 S    
C67   H23   1.074880 S    
C4    C35   1.585359 S    
C25   C29   1.605122 S    
O11   Zn2   2.197242 S    
C56   O20   1.221431 D    
C27   Cl29  1.754737 S    
C55   O19   1.203540 D    
C49   C50   1.666429 S    
C46   C58   1.528371 S    
C13   C17   1.586978 S    
O7    Zn4   2.159511 S    
C50   C71   1.551753 S    
C74   H30   1.060327 S    
C64   H20   1.056108 S    
C15   C19   1.560076 S    
C47   C48   1.692424 S    
C14   Cl6   1.814894 S    
C5    C29   1.604370 S    
C13   Cl5   1.789308 S    
C20   Cl20  1.775459 S    
C50   N2    1.589039 S    
C44   C56   1.530030 S    
O14   C7    1.399836 A    
C49   N1    1.572141 S    
O8    C4    1.409459 A    
C43   C63   1.546040 S    
C49   C72   1.488369 S    
C52   C74   1.509646 S    
O9    C5    1.411970 A    
C16   Cl16  1.787782 S    
C23   Cl23  1.775069 S    
O10   Zn2   2.175321 S    
C48   C68   1.528536 S    
O15   Zn4   2.197242 S    
C22   Cl22  1.788012 S    
C69   O33   1.218240 D    
C47   C59   1.524704 S    
C22   H6    1.112056 S    
C70   H26   1.081187 S    
C12   Cl12  1.782335 S    
C9    C29   1.586317 S    
C27   Cl30  1.796156 S    
Zn2   N1    2.227023 S    
C38   Cl35  1.790658 S    
Zn1   N2    2.228071 S    
C52   C75   1.532200 S    
C2    C33   1.574647 S    
C21   C35   1.592789 S    
O4    C2    1.402309 A    
C55   H11   1.081505 S    
C39   Cl38  1.790861 S    
O6    C3    1.387715 A    
O10   C5    1.397510 A    
C19   H3    1.111692 S    
C60   H16   1.075835 S    
C26   C30   1.673362 S    
C42   N2    1.573586 S    
C25   Cl25  1.718247 S    
O12   Zn1   2.180598 S    
C59   O23   1.204560 D    
C19   C34   1.562410 S    
Zn3   N4    2.228071 S    
O12   C6    1.386371 A    
C51   C73   1.499495 S    
C9    C21   1.560329 S    
C14   C18   1.585239 S    
O3    Zn2   2.159511 S    
C10   C22   1.585985 S    
C62   O26   1.226135 D    
C16   C32   1.632085 S    
C54   O18   1.218635 D    
C6    C30   1.644368 S    
C17   C33   1.573617 S    
O1    Zn1   2.197936 S    
C19   Cl19  1.743498 S    
C56   H12   1.075904 S    
O16   Zn3   2.180598 S    
C42   C62   1.489043 S    
C57   H13   1.058445 S    
C1    C34   1.599300 S    
C41   C61   1.567752 S    
C43   N2    1.553573 S    
C66   O30   1.226538 D    
O15   C8    1.432209 A    
C43   C44   1.700096 S    
C10   Cl10  1.789247 S    
O3    C2    1.391946 A    
C61   H17   1.075844 S    
C17   Cl17  1.790350 S    
C24   H8    1.113299 S    
C73   H29   1.079949 S    
C14   C31   1.638964 S    
C45   C57   1.520570 S    
C28   C38   1.586529 S    
C14   Cl14  1.810611 S    
C28   Cl31  1.748442 S    
C26   Cl27  1.705631 S    
C76   H32   1.091340 S    
C13   Cl13  1.770510 S    
C41   C42   1.690736 S    
C25   C39   1.602718 S    
C72   O36   1.227235 D    
C18   H2    1.088168 S    
C41   N1    1.542360 S    
C48   C60   1.537850 S    
C51   C52   1.652577 S    
C33   C37   1.561591 S    
C28   C32   1.629001 S    
C21   Cl21  1.740030 S    
C43   C55   1.498764 S    
C18   Cl18  1.787388 S    
C63   H19   1.077268 S    
C53   O17   1.217582 D    
C71   H27   1.054235 S    
C37   Cl33  1.800979 S    
C15   C32   1.571304 S    
C47   C67   1.506932 S    
C62   H18   1.020058 S    
C68   O32   1.223541 D    
O2    C1    1.405440 A    
C17   H1    1.112528 S    
C22   C35   1.596423 S    
C45   N3    1.577134 S    
C28   Cl32  1.784846 S    
C71   O35   1.217216 D    
C15   Cl7   1.827541 S    
