data_mof_unit_22264.cif
_audit_creation_date              2012-12-11T15:52:29-0500
_audit_creation_method            fapswitch 2.2
_symmetry_space_group_name_H-M    P1
_symmetry_Int_Tables_number       1
_space_group_crystal_system       triclinic
_cell_length_a                    6.923985
_cell_length_b                    14.538562
_cell_length_c                    16.03814
_cell_angle_alpha                 90.289851
_cell_angle_beta                  90.303077
_cell_angle_gamma                 89.939798
_cell_volume                      1614.4318262

loop_
_atom_site_label
_atom_site_type_symbol
_atom_type_description
_atom_site_fract_x
_atom_site_fract_y
_atom_site_fract_z
_atom_type_partial_charge
O1    O     O_R   0.494400 0.415640 0.412830 -0.499512
O2    O     O_R   0.823920 0.405510 0.586560 -0.518166
O3    O     O_R   0.994250 0.584360 0.587170 -0.541721
C1    C     C_R   0.655659 0.381924 0.614300 0.736948
O4    O     O_R   0.824110 0.404610 0.413450 -0.539505
O5    O     O_R   0.994440 0.583460 0.412820 -0.548297
C2    C     C_R   0.655021 0.384862 0.382186 0.773397
O6    O     O_R   0.494210 0.416540 0.587180 -0.548195
O7    O     O_3   0.660810 0.558680 0.500000 -0.386711
V1    V     V_3+5 0.935650 0.489110 0.500000 1.580286
O8    O     O_R   0.324150 0.594490 0.413440 -0.524442
C3    C     C_R   0.154938 0.615990 0.383822 0.823922
O9    O     O_R   0.323970 0.595390 0.586550 -0.560037
C4    C     C_R   0.154686 0.618564 0.614961 0.720143
V2    V     V_3+5 0.435660 0.510890 0.500000 1.570206
O10   O     O_3   0.160630 0.441320 0.500000 -0.339571
C5    C     C_3   0.929363 0.703225 0.714343 -0.280741
H1    H     H_    0.833543 0.722811 0.661556 0.200189
H2    H     H_    0.872950 0.636896 0.738591 0.129035
C6    C     C_3   0.916724 0.776864 0.783830 -0.311460
H3    H     H_    0.839285 0.747374 0.838139 0.139649
H4    H     H_    0.829903 0.836252 0.761196 0.178557
H5    H     H_    0.144842 0.919161 0.718226 0.197872
C7    C     C_3   0.225687 0.785964 0.658750 0.366251
C8    C     C_3   0.259523 0.656118 0.761672 -0.414256
C9    C     C_3   0.141798 0.690027 0.684705 -0.024797
H6    H     H_    0.414618 0.648781 0.744919 0.142429
H7    H     H_    0.207980 0.586955 0.780930 0.170622
C10   C     C_3   0.121315 0.810008 0.810899 0.028252
C11   C     C_3   0.220668 0.854065 0.734281 -0.336765
C12   C     C_3   0.240927 0.724185 0.836252 -0.320926
H8    H     H_    0.170135 0.689095 0.889465 0.161175
H9    H     H_    0.387759 0.745158 0.857508 0.149352
H10   H     H_    0.379296 0.775765 0.640695 0.061498
H11   H     H_    0.371414 0.873743 0.750954 0.115964
C13   C     C_R   0.953784 0.771328 0.213492 -0.130483
H12   H     H_    0.813255 0.788083 0.187787 0.119995
C14   C     C_R   0.964563 0.707877 0.278838 -0.112808
H13   H     H_    0.831965 0.677569 0.301279 0.129253
C15   C     C_R   0.143732 0.683834 0.314535 -0.012418
C16   C     C_R   0.311820 0.724964 0.282926 -0.042953
H14   H     H_    0.452306 0.708333 0.308742 0.125881
C17   C     C_R   0.301098 0.788264 0.217478 -0.136659
H15   H     H_    0.433739 0.818513 0.195032 0.115435
C18   C     C_R   0.121916 0.812428 0.181833 -0.052827
C19   C     C_R   0.795823 0.247818 0.696743 0.416429
C20   C     C_R   0.780604 0.185330 0.762451 -0.174500
H16   H     H_    0.895689 0.135750 0.771588 0.187385
C21   C     C_R   0.618656 0.184608 0.814898 -0.201903
C22   C     C_R   0.469519 0.249409 0.800325 0.418771
C23   C     C_R   0.484754 0.311904 0.734628 -0.188762
H17   H     H_    0.369633 0.361462 0.725477 0.178709
C24   C     C_R   0.646766 0.312680 0.682221 -0.194263
C25   C     C_R   0.779808 0.246913 0.305306 -0.154482
H18   H     H_    0.892893 0.240689 0.351875 0.174661
C26   C     C_R   0.770745 0.181487 0.240889 -0.118879
H19   H     H_    0.877639 0.127072 0.238998 0.132945
C27   C     C_R   0.622366 0.184636 0.180954 -0.122698
C28   C     C_R   0.487797 0.256495 0.184881 -0.193402
H20   H     H_    0.376449 0.260770 0.137372 0.186157
C29   C     C_R   0.500443 0.325254 0.246736 0.468764
C30   C     C_R   0.643749 0.318734 0.310521 -0.187104
O11   O     O_R   0.771300 0.080930 0.910090 -0.537447
O12   O     O_R   0.441270 0.092800 0.083770 -0.538809
O13   O     O_R   0.271080 0.913920 0.084380 -0.546797
C31   C     C_R   0.610611 0.114891 0.113011 0.724888
O14   O     O_R   0.441580 0.091910 0.910670 -0.507916
O15   O     O_R   0.271390 0.913020 0.910040 -0.544817
C32   C     C_R   0.609827 0.115453 0.882890 0.776241
O16   O     O_R   0.770990 0.081830 0.084440 -0.538128
O17   O     O_3   0.604750 0.938760 0.997250 -0.387614
V3    V     V_3+5 0.329850 0.008280 0.997210 1.508366
O18   O     O_R   0.941680 0.901940 0.910610 -0.549612
C33   C     C_R   0.110478 0.879202 0.882071 0.674873
O19   O     O_R   0.941370 0.902830 0.083720 -0.549543
C34   C     C_R   0.110698 0.880623 0.112788 0.677622
V4    V     V_3+5 0.829860 0.986420 0.997150 1.449825
O20   O     O_3   0.104830 0.056030 0.997180 -0.340513
Cl1   Cl    Cl    0.001353 0.237963 0.632784 -0.608275
Cl2   Cl    Cl    0.263833 0.259176 0.864203 -0.613852
S1    S     S_3+6 0.345465 0.421577 0.236735 -0.018826
O21   O     O_2   0.454772 0.508422 0.255964 -0.367417
O22   O     O_2   0.266733 0.426896 0.149299 -0.326789
O23   O     O_3   0.161013 0.410390 0.303519 -0.509066
H21   H     H_    0.056093 0.448882 0.280032 0.343840
S2    S     S_3+6 0.107468 0.837775 0.569848 -0.029064
O24   O     O_2   0.232394 0.914665 0.538737 -0.308459
O25   O     O_2   0.079540 0.768816 0.501008 -0.375711
O26   O     O_3   0.891383 0.881142 0.597178 -0.520317
H22   H     H_    0.838104 0.908273 0.545403 0.382432

loop_
_geom_bond_atom_site_label_1
_geom_bond_atom_site_label_2
_ccdc_geom_bond_type
C8    C12   S    
C1    C24   S    
C16   H14   S    
C1    O6    A    
S1    O21   D    
C20   C21   A    
C31   O16   A    
V4    O20   S    
C8    H7    S    
O13   C34   A    
C11   H11   S    
C18   C34   S    
C5    C9    S    
C13   H12   S    
C7    C9    S    
O5    C3    A    
C14   H13   S    
S2    O25   D    
O15   C33   A    
V2    O10   S    
C5    C6    S    
C26   H19   S    
O14   V3    S    
O18   C33   A    
V3    O20   S    
C19   C20   A    
O8    V2    S    
C27   C31   S    
C12   H8    S    
C12   H9    S    
O1    V2    S    
O7    V1    S    
C28   H20   S    
C21   C32   S    
O9    C4    A    
O16   V4    S    
C16   C17   A    
S1    O22   D    
C5    H1    S    
C6    C10   S    
C25   C26   A    
C28   C29   A    
C23   H17   S    
H5    C11   S    
O11   C32   A    
O23   H21   S    
O4    C2    A    
S2    O24   D    
C10   C33   S    
C25   C30   A    
C27   C28   A    
C7    H10   S    
C23   C24   A    
O12   C31   A    
C3    C15   S    
O2    C1    A    
O19   C34   A    
C2    C30   S    
C10   C11   S    
C17   C18   A    
C20   H16   S    
O15   V3    S    
C22   C23   A    
C13   C18   A    
C4    C9    S    
O19   V4    S    
O3    C4    A    
C15   C16   A    
C6    H4    S    
O6    V2    S    
O9    V2    S    
C17   H15   S    
O2    V1    S    
O17   V4    S    
S1    O23   S    
O11   V4    S    
C25   H18   S    
O1    C2    A    
S2    O26   S    
C22   Cl2   S    
O5    V1    S    
O8    C3    A    
C8    H6    S    
O13   V3    S    
C13   C14   A    
C8    C9    S    
O4    V1    S    
C10   C12   S    
O3    V1    S    
V1    O10   S    
C14   C15   A    
C19   Cl1   S    
C19   C24   A    
C5    H2    S    
C26   C27   A    
O12   V3    S    
O7    V2    S    
C29   C30   A    
C7    C11   S    
O17   V3    S    
C6    H3    S    
C21   C22   A    
O18   V4    S    
C29   S1    S    
O14   C32   A    
O26   H22   S    
C7    S2    S    
