data_mof_unit_38821.cif
_audit_creation_date              2012-12-11T19:30:48-0500
_audit_creation_method            fapswitch 2.2
_symmetry_space_group_name_H-M    P1
_symmetry_Int_Tables_number       1
_space_group_crystal_system       triclinic
_cell_length_a                    8.330892
_cell_length_b                    15.211639
_cell_length_c                    17.395345
_cell_angle_alpha                 100.884503
_cell_angle_beta                  96.715026
_cell_angle_gamma                 99.338016
_cell_volume                      2111.18931762

loop_
_atom_site_label
_atom_site_type_symbol
_atom_type_description
_atom_site_fract_x
_atom_site_fract_y
_atom_site_fract_z
_atom_type_partial_charge
Ba1   Ba    Ba6+2 0.844380 0.541120 0.463220 1.604599
Ba2   Ba    Ba6+2 0.345460 0.458950 0.536790 1.620122
C1    C     C_3   0.692220 0.847674 0.246196 -0.131144
C2    C     C_3   0.644538 0.762602 0.279630 0.322779
C3    C     C_3   0.419498 0.293723 0.292430 0.312157
C4    C     C_3   0.393647 0.257784 0.203345 -0.381872
C5    C     C_3   0.112471 0.283852 0.749658 0.373807
C6    C     C_3   0.145376 0.263919 0.831856 -0.369509
C7    C     C_3   0.580179 0.231277 0.706807 0.357664
C8    C     C_3   0.573145 0.143304 0.736435 -0.386135
C9    C     C_2   0.265052 0.481331 0.259500 -0.219540
C10   C     C_3   0.345946 0.558207 0.225853 -0.032245
C11   C     C_2   0.288088 0.540494 0.138328 -0.107548
C12   C     C_3   0.108389 0.725988 0.258255 0.352236
C13   C     C_2   0.132569 0.493882 0.109663 0.011786
C14   C     C_2   0.034164 0.452254 0.166552 -0.119555
C15   C     C_1   0.104723 0.452751 0.239850 0.037702
C16   C     C_R   0.886147 0.466305 0.857615 -0.130504
C17   C     C_R   0.821781 0.454197 0.777756 0.007830
C18   C     C_R   0.083580 0.528256 0.750629 0.120006
C19   C     C_R   0.148239 0.541255 0.831422 -0.113114
C20   C     C_R   0.051580 0.508239 0.885431 0.001414
C21   C     C_2   0.059568 0.478762 0.024059 -0.078161
C22   C     C_2   0.124121 0.523683 0.970849 -0.073603
C23   C     C_3   0.094754 0.750047 0.177074 -0.379037
C24   C     C_R   0.921721 0.481820 0.724141 -0.258916
C25   C     C_R   0.866257 0.172320 0.559900 0.009331
C26   C     C_R   0.797610 0.077925 0.553213 -0.040087
C27   C     C_R   0.652175 0.889207 0.534474 -0.081300
C28   C     C_R   0.805046 0.926230 0.580491 -0.063540
C29   C     C_R   0.880013 0.016965 0.588361 0.141444
C30   C     C_R   0.581623 0.795584 0.525382 0.043141
C31   C     C_R   0.415343 0.766326 0.491253 -0.072293
C32   C     C_R   0.610464 0.194438 0.486347 0.017439
C33   C     C_R   0.545320 0.100434 0.474930 -0.014244
C34   C     C_3   0.300269 0.758941 0.673797 0.276498
C35   C     C_R   0.636020 0.042533 0.509872 -0.006639
C36   C     C_R   0.391476 0.062414 0.428386 -0.054925
C37   C     C_R   0.322623 0.971287 0.419814 -0.142528
C38   C     C_R   0.403690 0.913817 0.457716 -0.072537
C39   C     C_R   0.564657 0.948286 0.500116 0.004823
C40   C     C_R   0.326831 0.823460 0.455774 0.006886
C41   C     C_R   0.767799 0.228928 0.529951 -0.298602
C42   C     C_3   0.326272 0.859786 0.717469 0.187298
C43   C     C_3   0.923524 0.260839 0.364778 0.297303
C44   C     C_3   0.878260 0.157219 0.343337 -0.379410
C45   C     C_3   0.734132 0.681735 0.714605 0.385525
C46   C     C_3   0.668201 0.702751 0.793144 -0.329239
H1    H     H_    0.724794 0.769972 0.337044 0.097205
H2    H     H_    0.205783 0.881864 0.708066 0.066055
H3    H     H_    0.825137 0.288918 0.392771 0.014268
H4    H     H_    0.039639 0.280280 0.407134 0.082868
H5    H     H_    0.755550 0.135441 0.305814 0.153364
H6    H     H_    0.874865 0.129071 0.397478 0.063732
H7    H     H_    0.971492 0.129023 0.310441 0.122778
H8    H     H_    0.666067 0.613865 0.681245 0.096869
H9    H     H_    0.733148 0.770223 0.828990 0.090424
H10   H     H_    0.686663 0.649614 0.827452 0.093361
H11   H     H_    0.535434 0.703777 0.782949 0.131920
H12   H     H_    0.514678 0.758108 0.289809 -0.066198
H13   H     H_    0.611883 0.841145 0.188921 0.105590
H14   H     H_    0.299113 0.304946 0.310025 0.016589
H15   H     H_    0.510707 0.358618 0.306302 0.072032
H16   H     H_    0.302601 0.192792 0.187084 0.117699
H17   H     H_    0.346865 0.308302 0.172544 0.071957
H18   H     H_    0.512021 0.245843 0.183816 0.131847
H19   H     H_    0.821432 0.854105 0.234820 0.148015
H20   H     H_    0.138183 0.698499 0.134447 0.075453
H21   H     H_    0.184657 0.352134 0.750183 0.074151
H22   H     H_    0.979094 0.284145 0.736121 -0.075185
H23   H     H_    0.278619 0.264920 0.848316 0.151445
H24   H     H_    0.107056 0.316280 0.875889 0.073678
H25   H     H_    0.074463 0.195808 0.832917 0.102487
H26   H     H_    0.705489 0.250443 0.692129 -0.065027
H27   H     H_    0.488478 0.218856 0.652298 0.090026
H28   H     H_    0.602232 0.089801 0.690169 0.091009
H29   H     H_    0.448087 0.120679 0.750089 0.144664
H30   H     H_    0.026020 0.659248 0.253493 0.069471
H31   H     H_    0.664632 0.153885 0.790734 0.111317
H32   H     H_    0.236223 0.574267 0.989477 0.069853
H33   H     H_    0.908390 0.416324 0.145734 0.089853
H34   H     H_    0.804679 0.445053 0.897393 0.074341
H35   H     H_    0.947999 0.427731 0.005093 0.071822
H36   H     H_    0.368413 0.570324 0.101677 0.071724
H37   H     H_    0.272667 0.578662 0.852405 0.087060
H38   H     H_    0.333882 0.457697 0.305389 -0.014136
H39   H     H_    0.869527 0.473233 0.662652 0.074508
H40   H     H_    0.871547 0.885311 0.611864 0.103721
H41   H     H_    0.237802 0.720477 0.276056 -0.067081
H42   H     H_    0.201586 0.948122 0.385473 0.115506
H43   H     H_    0.319018 0.102585 0.399033 0.104998
H44   H     H_    0.818827 0.300445 0.536038 0.059486
H45   H     H_    0.964719 0.751165 0.155081 0.132653
H46   H     H_    0.171620 0.817981 0.180622 0.114542
H47   H     H_    0.419040 0.741040 0.661297 0.003966
H48   H     H_    0.212993 0.749071 0.618105 -0.015769
O1    O     O_2   0.823660 0.438400 0.305670 -0.445242
O2    O     O_3   0.720628 0.751990 0.673692 -0.663960
O3    O     O_3   0.061388 0.794306 0.312490 -0.613959
O4    O     O_2   0.366060 0.561630 0.694380 -0.485496
O5    O     O_3   0.092190 0.555060 0.596110 -0.504408
O6    O     O_3   0.563040 0.391700 0.639900 -0.486129
O7    O     O_3   0.233462 0.705573 0.723128 -0.640229
O8    O     O_3   0.598290 0.387090 0.455760 -0.483634
O9    O     O_3   0.130180 0.342130 0.598490 -0.485935
O10   O     O_2   0.202976 0.183617 0.546732 -0.485717
O11   O     O_3   0.161484 0.217043 0.694716 -0.570931
O12   O     O_3   0.097530 0.445010 0.403900 -0.527510
O13   O     O_3   0.591420 0.612980 0.544250 -0.514629
O14   O     O_2   0.325830 0.273320 0.453470 -0.474016
O15   O     O_3   0.479176 0.229676 0.330469 -0.644996
O16   O     O_2   0.490032 0.465564 0.779968 -0.489339
O17   O     O_3   0.543199 0.298810 0.765609 -0.591959
O18   O     O_3   0.626680 0.608380 0.360110 -0.505011
O19   O     O_2   0.658561 0.511285 0.218273 -0.470122
O20   O     O_3   0.942119 0.292704 0.295388 -0.628605
O21   O     O_3   0.665108 0.685055 0.225812 -0.605728
O22   O     O_2   0.863890 0.726710 0.546580 -0.464371
O23   O     O_3   0.059540 0.657940 0.401520 -0.473047
O24   O     O_2   0.985474 0.819845 0.454663 -0.494958
P1    P     P_3+3 0.993930 0.412000 0.316950 0.964215
P2    P     P_3+3 0.694120 0.714590 0.569800 0.951035
P3    P     P_3+3 0.109181 0.775481 0.408061 0.953270
P4    P     P_3+3 0.195780 0.588080 0.683070 0.958332
P5    P     P_3+3 0.086635 0.226878 0.598933 0.970173
P6    P     P_3+3 0.574263 0.588107 0.256651 0.951858
P7    P     P_3+3 0.505657 0.270715 0.433123 0.938642
P8    P     P_3+3 0.604143 0.404840 0.742162 0.954751
N1    N     N_3   0.448024 0.917554 0.685710 -0.531955
H49   H     H_    0.561458 0.897046 0.694260 0.186570
H50   H     H_    0.411232 0.907696 0.624995 0.128517
N2    N     N_2   0.377342 0.869971 0.802077 -0.381482
H51   H     H_    0.490881 0.853854 0.816601 0.198473
C47   C     C_3   0.355568 0.953660 0.851594 -0.209217
H52   H     H_    0.383885 0.950319 0.914819 0.099040
H53   H     H_    0.226237 0.963290 0.840025 0.100752
H54   H     H_    0.440147 0.012700 0.840485 0.115465
N3    N     N_3   0.905852 0.678427 0.731574 -0.524937
H55   H     H_    0.945248 0.672868 0.676598 0.190840
H56   H     H_    0.967987 0.741685 0.765674 0.198748
N4    N     N_3   0.675652 0.930213 0.300832 -0.518738
H57   H     H_    0.748844 0.935228 0.355195 0.188491
H58   H     H_    0.553211 0.924667 0.310433 0.184651
N5    N     N_2   0.040834 0.043863 0.631671 -0.400657
H59   H     H_    0.047635 0.033396 0.688783 0.185330
C48   C     C_3   0.162615 0.005786 0.590413 -0.136229
H60   H     H_    0.287538 0.041470 0.619800 0.120956
H61   H     H_    0.146178 0.014562 0.528502 0.132504
H62   H     H_    0.148848 0.931882 0.589388 0.069133
N6    N     N_2   0.336022 0.675851 0.487312 -0.422091
H63   H     H_    0.333361 0.650727 0.537917 0.194251
C49   C     C_3   0.351679 0.613959 0.416785 0.021507
H64   H     H_    0.237075 0.572095 0.390611 0.110242
H65   H     H_    0.425488 0.562959 0.428260 0.143878
H66   H     H_    0.382687 0.651944 0.370656 -0.022861

loop_
_geom_bond_atom_site_label_1
_geom_bond_atom_site_label_2
_ccdc_geom_bond_type
Ba2   O13   S    
C23   H45   S    
C32   P7    S    
C1    N4    S    
O12   P1    S    
C5    H22   S    
C46   H9    S    
O17   P8    S    
C43   C44   S    
C11   H36   S    
C45   O2    S    
C21   H35   S    
C34   O7    S    
C31   C40   A    
C26   C35   A    
C33   C35   A    
Ba1   Ba2   S    
C27   C30   A    
O6    P8    S    
C31   N6    S    
N4    H58   S    
Ba1   O23   S    
C28   C29   A    
O18   P6    S    
O13   P2    S    
C10   P6    S    
C43   H3    S    
C9    H38   S    
C13   C14   S    
C17   P8    S    
C3    H15   S    
C32   C33   A    
O22   P2    D    
C4    H16   S    
C29   N5    S    
C17   C24   A    
Ba1   P2    S    
C14   H33   S    
O1    P1    D    
Ba1   O13   S    
C8    H28   S    
C22   H32   S    
C4    H17   S    
Ba2   O14   S    
N2    H51   S    
C44   H7    S    
C21   C22   D    
C34   H47   S    
C7    C8    S    
C37   H42   S    
O24   P3    D    
O14   P7    D    
C13   C21   S    
Ba2   O4    S    
C23   H46   S    
C19   C20   A    
C2    H12   S    
C23   H20   S    
C47   H54   S    
O7    P4    S    
Ba2   O12   S    
C8    H29   S    
C40   P3    S    
C48   H61   S    
C1    H13   S    
C36   C37   A    
C19   H37   S    
C6    H24   S    
O5    P4    S    
C18   P4    S    
O20   P1    S    
C30   P2    S    
C12   O3    S    
C33   C36   A    
O11   P5    S    
N5    C48   S    
Ba1   O1    S    
C37   C38   A    
C16   C17   A    
C47   H53   S    
C3    O15   S    
Ba2   O5    S    
C42   N1    S    
C36   H43   S    
O4    P4    D    
C12   H41   S    
C27   C28   A    
N6    C49   S    
C48   H62   S    
C34   H48   S    
C45   C46   S    
O10   P5    D    
C49   H66   S    
Ba2   O8    S    
C9    C10   S    
C44   H6    S    
C44   H5    S    
C18   C19   A    
O19   P6    D    
Ba1   O8    S    
N3    H56   S    
C15   P1    S    
C38   C39   A    
C49   H65   S    
O23   P3    S    
C11   C13   D    
O15   P7    S    
C20   C22   S    
C2    O21   S    
C34   C42   S    
C7    H26   S    
C28   H40   S    
C1    C2    S    
Ba1   O5    S    
C46   H11   S    
O3    P3    S    
C48   H60   S    
O21   P6    S    
C42   H2    S    
O2    P2    S    
C9    C15   D    
C6    H23   S    
C27   C39   A    
C16   C20   A    
C26   C29   A    
C1    H19   S    
C32   C41   A    
N5    H59   S    
C5    H21   S    
C8    H31   S    
C46   H10   S    
C47   H52   S    
Ba2   P4    S    
C42   N2    S    
Ba2   O9    S    
C41   H44   S    
C43   H4    S    
O9    P5    S    
C2    H1    S    
C7    O17   S    
C30   C31   A    
N1    H49   S    
N4    H57   S    
C25   P5    S    
C43   O20   S    
C3    C4    S    
O8    P7    S    
C18   C24   A    
C24   H39   S    
C45   N3    S    
C38   C40   A    
C6    H25   S    
C16   H34   S    
C3    H14   S    
C5    O11   S    
Ba1   O22   S    
C12   H30   S    
C12   C23   S    
C35   C39   A    
Ba1   P1    S    
O16   P8    D    
C5    C6    S    
N3    H55   S    
Ba1   O12   S    
C25   C41   A    
C4    H18   S    
C10   C11   S    
N2    C47   S    
Ba1   O18   S    
C25   C26   A    
Ba2   O6    S    
N6    H63   S    
C49   H64   S    
C7    H27   S    
C14   C15   D    
C45   H8    S    
N1    H50   S    
