data_mof_unit_56644.cif
_audit_creation_date              2012-12-11T17:47:28-0500
_audit_creation_method            fapswitch 2.2
_symmetry_space_group_name_H-M    P1
_symmetry_Int_Tables_number       1
_space_group_crystal_system       triclinic
_cell_length_a                    14.856179
_cell_length_b                    14.917554
_cell_length_c                    15.116154
_cell_angle_alpha                 110.41266
_cell_angle_beta                  109.378636
_cell_angle_gamma                 108.505231
_cell_volume                      2582.02127559

loop_
_atom_site_label
_atom_site_type_symbol
_atom_type_description
_atom_site_fract_x
_atom_site_fract_y
_atom_site_fract_z
_atom_type_partial_charge
Br1   Br    Br    0.563892 0.025267 0.920939 -0.635053
Br2   Br    Br    0.440511 0.894249 0.042765 -0.659403
C1    C     C_R   0.976630 0.251618 0.064332 -0.101645
C2    C     C_R   0.059036 0.137500 0.159919 -0.224388
C3    C     C_R   0.249855 0.106316 0.859511 -0.121825
C4    C     C_R   0.872932 0.927351 0.266989 -0.130647
C5    C     C_R   0.183503 0.092696 0.906218 -0.216226
C6    C     C_R   0.961816 0.985476 0.259500 -0.186893
C7    C     C_R   0.636282 0.241098 0.088325 -0.215661
C8    C     C_R   0.302253 0.704117 0.827982 -0.176547
C9    C     C_R   0.693887 0.329436 0.195026 -0.201521
C10   C     C_R   0.208179 0.636155 0.725445 -0.160572
C11   C     C_R   0.755871 0.320719 0.281596 0.112809
C12   C     C_R   0.089237 0.804144 0.004589 -0.137872
C13   C     C_R   0.135958 0.673807 0.689442 0.110510
C14   C     C_R   0.749199 0.218621 0.261161 -0.232409
C15   C     C_R   0.163623 0.783163 0.753353 -0.272211
C16   C     C_R   0.315715 0.758704 0.225168 -0.104303
C17   C     C_R   0.705637 0.194559 0.795235 -0.143568
C18   C     C_R   0.688985 0.129629 0.154561 -0.113726
C19   C     C_R   0.257475 0.850683 0.856342 -0.146813
C20   C     C_R   0.634544 0.141603 0.067798 0.432366
C21   C     C_R   0.324651 0.809859 0.895129 0.432190
C22   C     C_R   0.849896 0.425905 0.482709 -0.249074
C23   C     C_R   0.324655 0.786949 0.327400 0.039568
C24   C     C_R   0.016287 0.594545 0.496881 -0.250179
C25   C     C_R   0.941685 0.510271 0.583194 0.074194
C26   C     C_R   0.929696 0.506069 0.395751 0.073319
C27   C     C_R   0.026808 0.595158 0.590328 0.039791
C28   C     C_R   0.843775 0.420814 0.387233 0.049050
C29   C     C_R   0.227299 0.160073 0.018537 0.117174
C30   C     C_R   0.944984 0.981064 0.160873 0.112230
C31   C     C_R   0.404406 0.251292 0.036832 -0.125743
C32   C     C_R   0.748780 0.874346 0.083741 -0.120693
C33   C     C_R   0.221233 0.014117 0.497842 -0.118106
C34   C     C_R   0.704911 0.128988 0.703442 0.071268
C35   C     C_R   0.917033 0.018692 0.614915 -0.127461
C36   C     C_R   0.306652 0.995400 0.494449 -0.130709
C37   C     C_R   0.813345 0.974547 0.604687 -0.134417
C38   C     C_R   0.333428 0.929040 0.532886 0.093015
C39   C     C_R   0.725715 0.971312 0.527235 0.113589
C40   C     C_R   0.211098 0.409733 0.903311 -0.107462
C41   C     C_R   0.775333 0.592358 0.025065 -0.068378
C42   C     C_R   0.275768 0.884163 0.577530 -0.144358
C43   C     C_R   0.741940 0.008209 0.457114 -0.188944
C44   C     C_R   0.188218 0.900600 0.577602 -0.139883
C45   C     C_R   0.301602 0.501943 0.933304 0.088319
C46   C     C_R   0.846603 0.056319 0.470807 -0.136412
C47   C     C_R   0.161048 0.965495 0.537991 -0.109198
C48   C     C_R   0.934068 0.061543 0.549511 -0.108112
C49   C     C_R   0.523183 0.979614 0.626012 -0.180225
C50   C     C_R   0.524164 0.864953 0.437335 -0.233824
C51   C     C_R   0.621072 0.013243 0.623650 0.051222
C52   C     C_R   0.424989 0.852880 0.433154 0.072753
C53   C     C_R   0.623390 0.947601 0.531404 0.026767
C54   C     C_R   0.425166 0.911294 0.530023 0.004344
C55   C     C_R   0.360772 0.184251 0.925095 -0.041530
C56   C     C_R   0.673783 0.500532 0.951024 0.036746
C57   C     C_R   0.766377 0.874596 0.180529 -0.097735
C58   C     C_R   0.038154 0.035690 0.148688 0.019633
C59   C     C_R   0.166429 0.127501 0.070904 0.025666
C60   C     C_R   0.337830 0.240209 0.083409 -0.139927
C61   C     C_R   0.837898 0.926249 0.073297 -0.142668
C62   C     C_R   0.089291 0.982574 0.104128 0.053860
C63   C     C_R   0.103120 0.171741 0.101158 0.053815
C64   C     C_R   0.997629 0.591625 0.299826 -0.129148
C65   C     C_R   0.939951 0.408594 0.685604 -0.097279
C66   C     C_3   0.460177 0.398470 0.870763 -0.248166
C67   C     C_R   0.944920 0.500919 0.305044 0.080242
C68   C     C_3   0.504941 0.608225 0.977747 -0.309903
C69   C     C_3   0.406758 0.454613 0.820635 0.049674
C70   C     C_3   0.557167 0.552035 0.027769 0.053568
C71   C     C_3   0.393804 0.504441 0.919526 0.170859
C72   C     C_3   0.571910 0.502095 0.929683 0.157209
C73   C     C_3   0.446909 0.449450 0.970451 -0.199714
C74   C     C_3   0.519876 0.558021 0.877915 -0.242398
C75   C     C_R   0.301163 0.592205 0.997378 -0.179599
C76   C     C_R   0.684143 0.408164 0.934800 -0.100422
C77   C     C_R   0.915773 0.409208 0.212901 -0.134284
C78   C     C_R   0.954825 0.501991 0.678282 0.033189
C79   C     C_R   0.018353 0.591422 0.781542 -0.109473
C80   C     C_R   0.220128 0.748534 0.312616 -0.121352
C81   C     C_R   0.793577 0.195514 0.701815 -0.145354
C82   C     C_R   0.071776 0.254646 0.976506 -0.145735
C83   C     C_R   0.998792 0.801993 0.095653 -0.147456
C84   C     C_R   0.057422 0.228517 0.052673 0.055106
C85   C     C_R   0.056340 0.866341 0.066080 0.067680
C86   C     C_2   0.321240 0.399110 0.703955 0.439017
C87   C     C_2   0.636039 0.605333 0.146636 0.448635
C88   C     C_R   0.165879 0.039107 0.082411 -0.220677
H1    H     H_    0.940580 0.237963 0.112407 0.094262
H2    H     H_    0.188450 0.552470 0.676467 0.178355
H3    H     H_    0.797124 0.210155 0.326412 0.134546
H4    H     H_    0.107951 0.812896 0.727684 0.130760
H5    H     H_    0.688849 0.053090 0.139151 0.175943
H6    H     H_    0.274889 0.932640 0.908038 0.162673
H7    H     H_    0.786482 0.360502 0.478496 0.134761
H8    H     H_    0.084572 0.656921 0.503332 0.129862
H9    H     H_    0.099085 0.027544 0.855927 0.118174
H10   H     H_    0.043739 0.028276 0.327697 0.114995
H11   H     H_    0.414985 0.411300 0.011834 0.133481
H12   H     H_    0.147793 0.832266 0.980009 0.109558
H13   H     H_    0.551490 0.601880 0.839665 0.132775
H14   H     H_    0.381055 0.775601 0.206246 0.119000
H15   H     H_    0.659667 0.168751 0.832212 0.133459
H16   H     H_    0.373488 0.290192 0.170575 0.120925
H17   H     H_    0.823713 0.924212 0.997378 0.130284
H18   H     H_    0.093728 0.978419 0.538990 0.103085
H19   H     H_    0.015070 0.099413 0.560082 0.119813
H20   H     H_    0.202011 0.066435 0.469515 0.105065
H21   H     H_    0.984913 0.023007 0.675893 0.106058
H22   H     H_    0.352182 0.032657 0.462190 0.118366
H23   H     H_    0.216033 0.054372 0.773248 0.122674
H24   H     H_    0.802388 0.947439 0.659987 0.116907
H25   H     H_    0.296510 0.834188 0.609018 0.144869
H26   H     H_    0.675861 0.008080 0.398234 0.138016
H27   H     H_    0.141139 0.863205 0.608228 0.117398
H28   H     H_    0.860202 0.090934 0.421294 0.132014
H29   H     H_    0.519301 0.023428 0.697245 0.157628
H30   H     H_    0.524978 0.816944 0.365108 0.126054
H31   H     H_    0.215615 0.006962 0.059929 0.142430
H32   H     H_    0.021812 0.177703 0.197231 0.128422
H33   H     H_    0.441494 0.312642 0.824151 0.115277
H34   H     H_    0.886802 0.922737 0.339627 0.135605
H35   H     H_    0.521412 0.693743 0.021189 0.147258
H36   H     H_    0.183529 0.325772 0.845775 0.117063
H37   H     H_    0.794254 0.677128 0.059349 0.106481
H38   H     H_    0.019067 0.675253 0.351613 0.111892
H39   H     H_    0.895829 0.324389 0.619913 0.102461
H40   H     H_    0.355751 0.676825 0.027381 0.141967
H41   H     H_    0.620118 0.323400 0.885382 0.090060
H42   H     H_    0.868528 0.324545 0.187046 0.116845
H43   H     H_    0.039762 0.675252 0.805257 0.117000
H44   H     H_    0.194713 0.746854 0.370818 0.118717
H45   H     H_    0.489460 0.313743 0.087507 0.135749
H46   H     H_    0.825808 0.173647 0.649096 0.135104
H47   H     H_    0.127641 0.249282 0.947303 0.119651
H48   H     H_    0.980484 0.827135 0.159855 0.125194
H49   H     H_    0.412775 0.192291 0.889334 0.107379
H50   H     H_    0.697639 0.834113 0.188660 0.107239
H51   H     H_    0.340770 0.368820 0.640432 0.013269
H52   H     H_    0.641590 0.677199 0.205242 0.007436
H53   H     H_    0.666342 0.833368 0.016589 0.151613
H54   H     H_    0.597305 0.251663 0.021261 0.139740
H55   H     H_    0.355158 0.672951 0.856738 0.149542
H56   H     H_    0.699038 0.407517 0.209062 0.193982
N1    N     N_R   0.947560 0.293820 0.002910 -0.040840
N2    N     N_R   0.789450 0.443190 0.997090 -0.038414
N3    N     N_R   0.945970 0.443180 0.152110 -0.042958
N4    N     N_R   0.054030 0.556820 0.847890 -0.038633
N5    N     N_R   0.151530 0.706170 0.208880 -0.046342
N6    N     N_R   0.848470 0.293830 0.791120 -0.046199
N7    N     N_R   0.004980 0.293810 0.946140 -0.042745
N8    N     N_R   0.995020 0.706190 0.053860 -0.048990
N9    N     N_R   0.052440 0.706180 0.997090 -0.043535
N10   N     N_R   0.208960 0.706170 0.152110 -0.038286
N11   N     N_R   0.791040 0.293830 0.847890 -0.045292
N12   N     N_R   0.154330 0.443160 0.946140 -0.049223
N13   N     N_R   0.845670 0.556840 0.053860 -0.036894
N14   N     N_R   0.002190 0.556820 0.208880 -0.045492
N15   N     N_R   0.997810 0.443180 0.791120 -0.039556
N16   N     N_R   0.210550 0.556810 0.002910 -0.038787
Ni1   Ni    Ni4+2 0.869690 0.369690 0.000000 0.225671
Ni2   Ni    Ni4+2 0.130310 0.630310 0.000000 0.233279
Ni3   Ni    Ni4+2 0.001390 0.369680 0.869810 0.224443
Ni4   Ni    Ni4+2 0.998610 0.630320 0.130190 0.225123
O1    O     O_2   0.229608 0.387140 0.679684 -0.609689
O2    O     O_2   0.689906 0.565066 0.178650 -0.607874

loop_
_geom_bond_atom_site_label_1
_geom_bond_atom_site_label_2
_ccdc_geom_bond_type
C1    N1    A    
C70   C87   S    
C12   N9    A    
C25   C27   A    
C39   C43   A    
C29   C59   S    
C51   C53   A    
C26   C67   S    
C22   C25   A    
C62   C88   A    
C64   N14   A    
N6    Ni3   S    
C63   C84   S    
C37   C39   A    
C40   N12   A    
C66   C73   S    
C44   C47   A    
C14   H3    S    
C72   C74   S    
C82   C84   A    
C12   C85   A    
C41   N13   A    
C17   C34   A    
C69   C74   S    
C7    C20   A    
C12   H12   S    
C64   C67   A    
C34   C81   A    
C66   C72   S    
C87   H52   S    
C55   H49   S    
C1    H1    S    
C49   C54   A    
C31   H45   S    
C2    C63   A    
C39   C53   S    
C34   C51   S    
C41   C56   A    
N6    N11   A    
C42   H25   S    
C42   C44   A    
C31   C60   A    
C38   C54   S    
C33   C47   A    
C49   H29   S    
N3    Ni1   S    
N14   Ni4   S    
N11   Ni1   S    
C62   C85   S    
C80   N5    A    
C50   C53   A    
C76   N2    A    
C77   N3    A    
N7    Ni3   S    
C86   O1    D    
C74   H13   S    
C46   C48   A    
Br1   C20   S    
C1    C84   A    
C71   C73   S    
C29   C60   A    
C65   H39   S    
C16   C23   A    
C70   C73   S    
C8    C10   A    
C66   H33   S    
C40   C45   A    
C7    H54   S    
C50   C52   A    
C13   C27   S    
C47   H18   S    
N16   Ni2   S    
C83   C85   A    
C52   C54   A    
C32   H53   S    
C5    C29   A    
C22   H7    S    
C17   N11   A    
C11   C28   S    
C33   C36   A    
C23   C52   S    
C45   C71   S    
C70   C72   S    
C25   C78   S    
C41   H37   S    
C3    C5    A    
C40   H36   S    
C46   H28   S    
C75   H40   S    
C48   H19   S    
C15   C19   A    
C44   H27   S    
C49   C51   A    
N2    N13   A    
C6    C30   A    
C80   H44   S    
C76   H41   S    
C87   O2    D    
C82   N7    A    
C65   N15   A    
C10   C13   A    
C14   C18   A    
C37   H24   S    
C2    C58   A    
C68   C71   S    
C81   H46   S    
C2    H32   S    
C16   H14   S    
N5    N10   A    
C7    C9    A    
N8    N9    A    
C33   H20   S    
C5    H9    S    
C24   H8    S    
C17   H15   S    
C68   H35   S    
C56   C76   A    
C18   H5    S    
C18   C20   A    
C82   H47   S    
C19   C21   A    
C68   C74   S    
C32   C57   A    
C8    C21   A    
C88   H31   S    
C67   C77   A    
C45   C75   A    
C61   H17   S    
C50   H30   S    
C86   H51   S    
C16   N10   A    
C59   C88   A    
C56   C72   S    
C69   C71   S    
C81   N6    A    
C43   C46   A    
C75   N16   A    
C13   C15   A    
N4    N15   A    
C4    H34   S    
C31   C55   A    
C3    H23   S    
N2    Ni1   S    
C4    C57   A    
C10   H2    S    
C65   C78   A    
C30   C61   A    
C78   C79   A    
C4    C6    A    
C9    H56   S    
C79   H43   S    
C60   H16   S    
C19   H6    S    
N9    Ni2   S    
N5    Ni4   S    
N4    Ni2   S    
C24   C26   A    
N13   Ni4   S    
C3    C55   A    
C58   C62   A    
C26   C28   A    
C6    H10   S    
C35   C37   A    
N1    Ni1   S    
C36   C38   A    
C35   C48   A    
C9    C11   A    
C43   H26   S    
C23   C80   A    
C57   H50   S    
C66   C69   S    
C77   H42   S    
C32   C61   A    
C64   H38   S    
C83   N8    A    
N1    N7    A    
N3    N14   A    
C22   C28   A    
C35   H21   S    
N12   N16   A    
C8    H55   S    
C69   C86   S    
C59   C63   A    
C38   C42   A    
N10   Ni2   S    
C24   C27   A    
C11   C14   A    
Br2   C21   S    
C73   H11   S    
C30   C58   S    
N8    Ni4   S    
C68   C70   S    
C15   H4    S    
C36   H22   S    
C83   H48   S    
N15   Ni3   S    
C79   N4    A    
N12   Ni3   S    
