data_mof_unit_30689.cif
_audit_creation_date              2013-03-05T16:47:54-0500
_audit_creation_method            fapswitch 2.2
_symmetry_space_group_name_H-M    P1
_symmetry_Int_Tables_number       1
_space_group_crystal_system       triclinic
_cell_length_a                    10.958603
_cell_length_b                    10.879791
_cell_length_c                    9.626566
_cell_angle_alpha                 89.570144
_cell_angle_beta                  91.913005
_cell_angle_gamma                 93.789372
_cell_volume                      1144.58587367

loop_
_atom_site_label
_atom_site_type_symbol
_atom_site_description
_atom_site_fract_x
_atom_site_fract_y
_atom_site_fract_z
_atom_type_partial_charge
O1    O     O_R   0.499990 0.319640 0.618810 -0.594399
O2    O     O_R   0.500000 0.319660 0.381240 -0.587762
C1    C     C_R   0.503565 0.262215 0.501585 0.795434
O3    O     O_R   0.319640 0.500000 0.618780 -0.593149
O4    O     O_R   0.319650 0.500020 0.381210 -0.571894
C2    C     C_R   0.262484 0.498761 0.497244 0.786456
Cu1   Cu    Cu3+1 0.499990 0.499990 0.640660 0.912938
Cu2   Cu    Cu3+1 0.500010 0.500010 0.359340 0.923028
O5    O     O_R   0.500000 0.680340 0.618760 -0.609356
O6    O     O_R   0.500010 0.680360 0.381190 -0.600056
O7    O     O_R   0.680350 0.499980 0.618790 -0.597431
O8    O     O_R   0.680360 0.500000 0.381220 -0.604413
C3    C     C_R   0.488391 0.736201 0.499863 0.781871
C4    C     C_R   0.737812 0.497901 0.502750 0.770784
H1    H     H_    0.159072 0.383207 0.847767 0.137766
C5    C     C_R   0.174017 0.511581 0.016166 -0.146992
H2    H     H_    0.209667 0.587148 0.952386 0.131981
C6    C     C_R   0.151231 0.531443 0.155676 -0.085515
C7    C     C_R   0.102712 0.434503 0.238326 0.106781
C8    C     C_R   0.081977 0.316510 0.181043 -0.215229
C9    C     C_R   0.101150 0.296792 0.039562 0.141248
C10   C     C_R   0.145953 0.395757 0.957404 -0.140326
C11   C     C_R   0.927224 0.455297 0.386619 -0.252214
H3    H     H_    0.870670 0.423802 0.297937 0.157043
C12   C     C_R   0.871979 0.492035 0.507608 -0.089946
C13   C     C_R   0.947653 0.527062 0.624881 0.009612
C14   C     C_R   0.073993 0.531028 0.614047 -0.249156
H4    H     H_    0.130926 0.560242 0.703495 0.158452
C15   C     C_R   0.128748 0.498221 0.492668 -0.091464
C16   C     C_R   0.054383 0.461165 0.375816 0.012459
C17   C     C_R   0.949226 0.666390 0.827791 -0.209505
H5    H     H_    0.995166 0.738815 0.767349 0.131609
C18   C     C_R   0.941939 0.681153 0.970864 -0.130774
H6    H     H_    0.977883 0.765584 0.019965 0.116485
C19   C     C_R   0.886450 0.587470 0.050931 -0.064368
H7    H     H_    0.878879 0.601246 0.161096 0.127786
C20   C     C_R   0.839709 0.477998 0.988831 -0.148324
H8    H     H_    0.796906 0.406152 0.051876 0.136345
C21   C     C_R   0.850925 0.460712 0.846259 -0.091234
C22   C     C_R   0.905296 0.555252 0.764322 0.125288
C23   C     C_R   0.546185 0.110593 0.762833 -0.207888
C24   C     C_R   0.526068 0.045075 0.886794 0.136947
C25   C     C_R   0.459041 0.931536 0.881820 -0.165171
H9    H     H_    0.432867 0.883347 0.976265 0.135964
C26   C     C_R   0.431340 0.875417 0.754852 -0.205707
H10   H     H_    0.378644 0.787849 0.755941 0.166565
C27   C     C_R   0.468960 0.932897 0.630077 0.099602
C28   C     C_R   0.506346 0.059166 0.633012 0.066368
C29   C     C_R   0.501825 0.126968 0.506051 -0.105327
C30   C     C_R   0.478746 0.063495 0.380920 -0.220828
H11   H     H_    0.465500 0.889303 0.278933 0.160322
C31   C     C_R   0.471976 0.935819 0.378212 -0.230119
C32   C     C_R   0.471672 0.869060 0.502652 -0.105604
H12   H     H_    0.386143 0.337854 0.125734 0.140381
C33   C     C_R   0.638454 0.686616 0.146571 -0.161496
H13   H     H_    0.662603 0.682624 0.254506 0.200823
C34   C     C_R   0.693146 0.786317 0.075885 -0.245221
H14   H     H_    0.744815 0.858771 0.133015 0.153846
C35   C     C_R   0.694713 0.784792 0.932362 -0.157818
C36   C     C_R   0.641177 0.683890 0.860345 -0.095116
H15   H     H_    0.665786 0.677696 0.754496 0.194502
C37   C     C_R   0.567244 0.591970 0.927087 0.188247
C38   C     C_R   0.566660 0.592497 0.076233 0.203463
N1    N     N_R   0.501190 0.501210 0.147910 -0.201819
C39   C     C_R   0.438204 0.410529 0.072219 -0.058602
H16   H     H_    0.388346 0.336527 0.868309 0.136557
C40   C     C_R   0.438781 0.410199 0.924493 -0.081330
N2    N     N_R   0.501230 0.501290 0.852040 -0.207371
H17   H     H_    0.821811 0.372413 0.800803 0.109218
H18   H     H_    0.467363 0.113373 0.284681 0.162470
H19   H     H_    0.597706 0.198273 0.769824 0.163948
C41   C     C_3   0.569373 0.097450 0.025011 -0.417936
C42   C     C_3   0.707010 0.132326 0.033224 -0.351093
C43   C     C_3   0.747036 0.169429 0.181137 -0.872702
H20   H     H_    0.695239 0.247353 0.216013 0.275541
H21   H     H_    0.732115 0.090283 0.253537 0.258451
H22   H     H_    0.845430 0.198780 0.184102 0.232067
H23   H     H_    0.758951 0.053543 0.001606 0.215207
H24   H     H_    0.729517 0.210559 0.962165 0.202827
H25   H     H_    0.518212 0.179237 0.046295 0.184438
H26   H     H_    0.549500 0.027264 0.106359 0.199931
H27   H     H_    0.747099 0.856408 0.877379 0.141992
H28   H     H_    0.166172 0.623506 0.197676 0.118129
H29   H     H_    0.045896 0.241725 0.245649 0.121576
C44   C     C_3   0.063908 0.173925 0.974016 -0.437678
C45   C     C_3   0.171273 0.117271 0.905408 -0.327190
C46   C     C_3   0.131256 0.991203 0.844967 -0.865640
H30   H     H_    0.112922 0.924017 0.930175 0.241282
H31   H     H_    0.047588 0.996487 0.777277 0.248602
H32   H     H_    0.204579 0.958334 0.781131 0.253082
H33   H     H_    0.205536 0.177640 0.819639 0.213598
H34   H     H_    0.247475 0.107304 0.983092 0.214019
H35   H     H_    0.025842 0.108306 0.053151 0.197686
H36   H     H_    0.989932 0.187513 0.894543 0.194148

loop_
_geom_bond_atom_site_label_1
_geom_bond_atom_site_label_2
_geom_bond_distance
_ccdc_geom_bond_type
C33   H13   1.064907 S    
C14   C15   1.390723 A    
C42   C43   1.525238 S    
C19   H7    1.078858 S    
C35   H27   1.082501 S    
C46   H30   1.109100 S    
C1    C29   1.470644 S    
Cu1   Cu2   2.708151 S    
H12   C39   1.081649 S    
C26   H10   1.081108 S    
Cu1   O7    1.994658 S    
C13   C14   1.389713 A    
C15   C16   1.412160 A    
C43   H21   1.110848 S    
C19   C20   1.395676 A    
C20   H8    1.078334 S    
C45   H33   1.110878 S    
O4    C2    1.298344 A    
O7    C4    1.301574 A    
C34   C35   1.382544 A    
C17   C22   1.407710 A    
C36   C37   1.409749 A    
C6    C7    1.403433 A    
C23   C24   1.401702 A    
O5    C3    1.298332 A    
Cu1   N2    2.034605 S    
C44   H35   1.112537 S    
H1    C10   1.080799 S    
C27   C28   1.407607 A    
C5    H2    1.082371 S    
C39   C40   1.422353 A    
C43   H22   1.103635 S    
C33   C38   1.412234 A    
C30   C31   1.386555 A    
C42   H23   1.109639 S    
C17   C18   1.393378 A    
C41   H26   1.106435 S    
C23   H19   1.077287 S    
H16   C40   1.080944 S    
C35   C36   1.388918 A    
C9    C10   1.403279 A    
O3    Cu1   1.980579 S    
C18   H6    1.081034 S    
C3    C32   1.469557 S    
C26   C27   1.411216 A    
C42   H24   1.108150 S    
C20   C21   1.397266 A    
C9    C44   1.508308 S    
C43   H20   1.110972 S    
C40   N2    1.367053 A    
C11   C16   1.398040 A    
O3    C2    1.308251 A    
C21   C22   1.404759 A    
C45   C46   1.525632 S    
C12   C13   1.417602 A    
C44   C45   1.534367 S    
C8    H29   1.082335 S    
H11   C31   1.082843 S    
C36   H15   1.066461 S    
O1    C1    1.296959 A    
C25   H9    1.083577 S    
C37   C38   1.436042 A    
C44   H36   1.112244 S    
C17   H5    1.083116 S    
Cu2   O8    1.980579 S    
C24   C41   1.501257 S    
C6    H28   1.083290 S    
C21   H17   1.082887 S    
C25   C26   1.385932 A    
Cu2   N1    2.035756 S    
C5    C6    1.395197 A    
C28   C29   1.423952 A    
O8    C4    1.310706 A    
C33   C34   1.388918 A    
C24   C25   1.395109 A    
C31   C32   1.396236 A    
Cu1   O5    1.971883 S    
C5    C10   1.396561 A    
O1    Cu1   1.974980 S    
O2    Cu2   1.971884 S    
C41   C42   1.530381 S    
O6    C3    1.311783 A    
O4    Cu2   1.994658 S    
C37   N2    1.378432 A    
N1    C39   1.366712 A    
C7    C8    1.402645 A    
C46   H31   1.111360 S    
O2    C1    1.312867 A    
C30   H18   1.077986 S    
C41   H25   1.106553 S    
C45   H34   1.112391 S    
C13   C22   1.475806 S    
C34   H14   1.082211 S    
C27   C32   1.416295 A    
C18   C19   1.392947 A    
C23   C28   1.416774 A    
C11   C12   1.403164 A    
C4    C12   1.475047 S    
C11   H3    1.082273 S    
C38   N1    1.380526 A    
C2    C15   1.464378 S    
C8    C9    1.405200 A    
Cu2   O6    1.974980 S    
C29   C30   1.400337 A    
C46   H32   1.106972 S    
C14   H4    1.083402 S    
C7    C16   1.479634 S    
