data_mof_unit_66030.cif
_audit_creation_date              2012-12-10T17:28:08-0500
_audit_creation_method            fapswitch 2.2
_symmetry_space_group_name_H-M    P1
_symmetry_Int_Tables_number       1
_space_group_crystal_system       triclinic
_cell_length_a                    29.403005
_cell_length_b                    29.403075
_cell_length_c                    47.335862
_cell_angle_alpha                 90.000011
_cell_angle_beta                  90.000011
_cell_angle_gamma                 90.009769
_cell_volume                      40923.6869009

loop_
_atom_site_label
_atom_site_type_symbol
_atom_type_description
_atom_site_fract_x
_atom_site_fract_y
_atom_site_fract_z
_atom_type_partial_charge
C1    C     C_R   0.085522 0.500003 0.000002 0.833156
C2    C     C_R   0.500003 0.085522 0.999998 0.833137
C3    C     C_R   0.914478 0.499997 0.000002 0.833157
C4    C     C_R   0.499997 0.914478 0.999998 0.833138
C5    C     C_R   0.585522 0.000003 0.500002 0.833138
C6    C     C_R   0.000003 0.585522 0.499998 0.833122
C7    C     C_R   0.414478 0.999996 0.500002 0.833139
C8    C     C_R   0.999997 0.414478 0.499998 0.833123
C9    C     C_R   0.000000 0.500000 0.086384 -0.165553
C10   C     C_R   0.500000 0.000000 0.086342 -0.121261
C11   C     C_R   1.000000 0.500000 0.913658 -0.121260
C12   C     C_R   0.500000 0.000000 0.913614 -0.165583
C13   C     C_R   0.500000 0.000000 0.586385 -0.165582
C14   C     C_R   1.000000 0.500000 0.586342 -0.121261
C15   C     C_R   0.500000 1.000000 0.413658 -0.121260
C16   C     C_R   0.000000 0.500000 0.413613 -0.165603
C17   C     C_R   0.000000 0.500000 0.145739 0.235259
C18   C     C_R   0.500000 1.000000 0.145676 0.274660
C19   C     C_R   1.000000 0.500000 0.854323 0.274661
C20   C     C_R   0.500000 0.000000 0.854259 0.235262
C21   C     C_R   0.500000 0.000000 0.645741 0.235262
C22   C     C_R   1.000000 0.500000 0.645676 0.274660
C23   C     C_R   0.500000 1.000000 0.354323 0.274661
C24   C     C_R   1.000000 0.500000 0.354258 0.235261
C25   C     C_1   0.136632 0.500009 0.000002 -0.183873
C26   C     C_1   0.500009 0.136632 0.999998 -0.183882
C27   C     C_1   0.863368 0.499991 0.000002 -0.183873
C28   C     C_1   0.499991 0.863368 0.999998 -0.183881
C29   C     C_1   0.636632 0.000009 0.500002 -0.183881
C30   C     C_1   0.000009 0.636632 0.499998 -0.183888
C31   C     C_1   0.363368 0.999991 0.500002 -0.183881
C32   C     C_1   0.999991 0.363368 0.499998 -0.183888
C33   C     C_1   0.179001 0.500010 0.000002 0.012977
C34   C     C_1   0.500010 0.179001 0.999998 0.012978
C35   C     C_1   0.820999 0.499990 0.000002 0.012977
C36   C     C_1   0.499990 0.820999 0.999998 0.012978
C37   C     C_1   0.679001 0.000010 0.500002 0.012976
C38   C     C_1   0.000010 0.679001 0.499998 0.012978
C39   C     C_1   0.320999 0.999990 0.500002 0.012976
C40   C     C_1   0.999990 0.320999 0.499998 0.012978
C41   C     C_1   0.229231 0.500009 0.000002 0.015545
C42   C     C_1   0.500009 0.229231 0.999998 0.015546
C43   C     C_1   0.770769 0.499991 0.000002 0.015545
C44   C     C_1   0.499991 0.770769 0.999998 0.015546
C45   C     C_1   0.729231 0.000009 0.500002 0.015546
C46   C     C_1   0.000009 0.729231 0.499998 0.015546
C47   C     C_1   0.270769 0.999991 0.500002 0.015546
C48   C     C_1   0.999991 0.270769 0.499998 0.015546
C49   C     C_1   0.271601 0.500007 0.000001 0.014210
C50   C     C_1   0.500007 0.271601 0.999999 0.014210
C51   C     C_1   0.728399 0.499993 0.000001 0.014210
C52   C     C_1   0.499993 0.728399 0.999999 0.014210
C53   C     C_1   0.771601 0.000007 0.500001 0.014210
C54   C     C_1   0.000007 0.771601 0.499999 0.014210
C55   C     C_1   0.228399 0.999993 0.500001 0.014210
C56   C     C_1   0.999993 0.228399 0.499999 0.014210
C57   C     C_1   0.321831 0.500005 0.000001 0.011809
C58   C     C_1   0.500005 0.321831 0.999999 0.011810
C59   C     C_1   0.678169 0.499995 0.000001 0.011809
C60   C     C_1   0.499995 0.678169 0.999999 0.011810
C61   C     C_1   0.821831 0.000005 0.500001 0.011809
C62   C     C_1   0.000005 0.821831 0.499999 0.011810
C63   C     C_1   0.178169 0.999995 0.500001 0.011809
C64   C     C_1   0.999995 0.178169 0.499999 0.011810
C65   C     C_1   0.364202 0.500002 0.000000 -0.180691
C66   C     C_1   0.500002 0.364202 1.000000 -0.180691
C67   C     C_1   0.635798 0.499998 0.000000 -0.180691
C68   C     C_1   0.499998 0.635798 1.000000 -0.180690
C69   C     C_1   0.864202 0.000002 0.500000 -0.180691
C70   C     C_1   0.000002 0.864202 0.500000 -0.180691
C71   C     C_1   0.135798 0.999998 0.500000 -0.180691
C72   C     C_1   0.999998 0.135798 0.500000 -0.180691
C73   C     C_R   0.000000 0.500000 0.055101 0.934246
C74   C     C_R   0.500000 0.000000 0.055087 0.942311
C75   C     C_R   1.000000 0.500000 0.944913 0.942309
C76   C     C_R   0.500000 0.000000 0.944899 0.934222
C77   C     C_R   0.500000 0.000000 0.555101 0.934221
C78   C     C_R   1.000000 0.500000 0.555087 0.942312
C79   C     C_R   0.500000 0.000000 0.444913 0.942311
C80   C     C_R   1.000000 0.500000 0.444898 0.934202
C81   C     C_R   0.500000 0.415316 1.000000 0.799034
C82   C     C_R   0.584684 0.500000 0.000000 0.799037
C83   C     C_R   0.500000 0.584684 1.000000 0.799036
C84   C     C_R   0.415316 0.500000 0.000000 0.799036
C85   C     C_R   0.000000 0.915316 0.500000 0.799034
C86   C     C_R   0.084684 1.000000 0.500000 0.799037
C87   C     C_R   1.000000 0.084684 0.500000 0.799036
C88   C     C_R   0.915316 0.000000 0.500000 0.799036
C89   C     C_R   0.028669 0.471364 0.309884 0.650181
C90   C     C_R   0.528993 0.028310 0.309990 0.630837
C91   C     C_R   0.971331 0.528636 0.309884 0.650182
C92   C     C_R   0.471007 0.971690 0.309990 0.630837
C93   C     C_R   0.028310 0.528993 0.690010 0.630838
C94   C     C_R   0.528578 0.971274 0.690114 0.650189
C95   C     C_R   0.971690 0.471007 0.690010 0.630837
C96   C     C_R   0.471422 0.028726 0.690114 0.650188
C97   C     C_R   0.528725 0.971420 0.809886 0.650188
C98   C     C_R   0.028993 0.528310 0.809990 0.630837
C99   C     C_R   0.471275 0.028580 0.809886 0.650188
C100  C     C_R   0.971007 0.471690 0.809990 0.630838
C101  C     C_R   0.528310 0.028993 0.190010 0.630838
C102  C     C_R   0.028522 0.471218 0.190112 0.650195
C103  C     C_R   0.471690 0.971007 0.190010 0.630837
C104  C     C_R   0.971478 0.528782 0.190112 0.650195
C105  C     C_R   0.970505 0.529560 0.279998 -0.043065
C106  C     C_R   0.470249 0.970536 0.280079 -0.116282
C107  C     C_R   0.029495 0.470440 0.279998 -0.043065
C108  C     C_R   0.529751 0.029464 0.280079 -0.116281
C109  C     C_R   0.970536 0.470249 0.719921 -0.116282
C110  C     C_R   0.470499 0.029555 0.720000 -0.043068
C111  C     C_R   0.029464 0.529751 0.719921 -0.116282
C112  C     C_R   0.529501 0.970445 0.720000 -0.043068
C113  C     C_R   0.470447 0.029502 0.780000 -0.043068
C114  C     C_R   0.970249 0.470536 0.780079 -0.116282
C115  C     C_R   0.529553 0.970498 0.780000 -0.043068
C116  C     C_R   0.029751 0.529464 0.780079 -0.116282
C117  C     C_R   0.470536 0.970249 0.219921 -0.116282
C118  C     C_R   0.970557 0.529613 0.219998 -0.043073
C119  C     C_R   0.529464 0.029751 0.219921 -0.116282
C120  C     C_R   0.029443 0.470387 0.219998 -0.043073
C121  C     C_R   1.000000 0.500000 0.264987 -0.104106
C122  C     C_R   0.500000 1.000000 0.265036 -0.057444
C123  C     C_R   1.000000 0.500000 0.734964 -0.057444
C124  C     C_R   0.500000 0.000000 0.735012 -0.104106
C125  C     C_R   0.500000 0.000000 0.764988 -0.104107
C126  C     C_R   1.000000 0.500000 0.765036 -0.057444
C127  C     C_R   0.500000 1.000000 0.234964 -0.057443
C128  C     C_R   1.000000 0.500000 0.235010 -0.104105
C129  C     C_R   0.941163 0.559044 0.264900 0.120388
C130  C     C_R   0.440898 0.941085 0.264755 0.171739
C131  C     C_R   0.058837 0.440956 0.264900 0.120388
C132  C     C_R   0.559102 0.058915 0.264755 0.171738
C133  C     C_R   0.941085 0.440897 0.735245 0.171740
C134  C     C_R   0.441076 0.058956 0.735099 0.120386
C135  C     C_R   0.058915 0.559102 0.735245 0.171740
C136  C     C_R   0.558924 0.941044 0.735099 0.120386
C137  C     C_R   0.441047 0.058927 0.764901 0.120386
C138  C     C_R   0.940898 0.441085 0.764755 0.171739
C139  C     C_R   0.558953 0.941073 0.764901 0.120387
C140  C     C_R   0.059102 0.558915 0.764755 0.171738
C141  C     C_R   0.441085 0.940897 0.235245 0.171740
C142  C     C_R   0.941192 0.559073 0.235097 0.120386
C143  C     C_R   0.558915 0.059103 0.235245 0.171739
C144  C     C_R   0.058808 0.440927 0.235097 0.120386
C145  C     C_R   0.968875 0.472652 0.131174 0.353550
C146  C     C_R   0.533619 0.975577 0.131160 0.350113
C147  C     C_R   0.031125 0.527348 0.131174 0.353549
C148  C     C_R   0.466381 0.024423 0.131160 0.350113
C149  C     C_R   0.975577 0.533618 0.868839 0.350113
C150  C     C_R   0.527389 0.031089 0.868824 0.353519
C151  C     C_R   0.024423 0.466382 0.868840 0.350111
C152  C     C_R   0.472611 0.968910 0.868824 0.353518
C153  C     C_R   0.468910 0.972613 0.631175 0.353518
C154  C     C_R   0.033619 0.475577 0.631160 0.350112
C155  C     C_R   0.531090 0.027387 0.631175 0.353519
C156  C     C_R   0.966381 0.524423 0.631160 0.350113
C157  C     C_R   0.475577 0.033618 0.368840 0.350113
C158  C     C_R   0.027421 0.531060 0.368823 0.353492
C159  C     C_R   0.524423 0.966382 0.368840 0.350111
C160  C     C_R   0.972579 0.468940 0.368823 0.353492
C161  C     C_R   0.970380 0.470490 0.101286 -0.008128
C162  C     C_R   0.533656 0.975469 0.101214 -0.036686
C163  C     C_R   0.029620 0.529510 0.101286 -0.008129
C164  C     C_R   0.466344 0.024531 0.101214 -0.036686
C165  C     C_R   0.975469 0.533656 0.898786 -0.036686
C166  C     C_R   0.529548 0.029582 0.898712 -0.008115
C167  C     C_R   0.024531 0.466344 0.898786 -0.036686
C168  C     C_R   0.470452 0.970417 0.898712 -0.008115
C169  C     C_R   0.470416 0.970453 0.601288 -0.008115
C170  C     C_R   0.033656 0.475469 0.601214 -0.036686
C171  C     C_R   0.529584 0.029546 0.601288 -0.008115
C172  C     C_R   0.966344 0.524531 0.601214 -0.036686
C173  C     C_R   0.475469 0.033656 0.398786 -0.036686
C174  C     C_R   0.029577 0.529553 0.398710 -0.008105
C175  C     C_R   0.524531 0.966344 0.398786 -0.036686
C176  C     C_R   0.970422 0.470447 0.398710 -0.008103
Cu1   Cu    Cu3+1 0.000000 0.542440 0.000000 0.989927
Cu2   Cu    Cu3+1 0.457560 0.000000 0.000000 0.989934
Cu3   Cu    Cu3+1 0.000000 0.457560 0.000000 0.989927
Cu4   Cu    Cu3+1 0.542440 0.000000 0.000000 0.989934
Cu5   Cu    Cu3+1 0.500000 0.042440 0.500000 0.989933
Cu6   Cu    Cu3+1 0.957560 0.500000 0.500000 0.989939
Cu7   Cu    Cu3+1 0.500000 0.957560 0.500000 0.989933
Cu8   Cu    Cu3+1 0.042440 0.500000 0.500000 0.989938
Cu9   Cu    Cu3+1 0.500000 0.500000 0.028170 0.982434
Cu10  Cu    Cu3+1 0.500000 0.500000 0.971830 0.982433
Cu11  Cu    Cu3+1 1.000000 0.000000 0.528170 0.982433
Cu12  Cu    Cu3+1 0.000000 0.000000 0.471830 0.982432
N1    N     N_R   1.000000 0.500000 0.323869 -0.428034
N2    N     N_R   0.500000 1.000000 0.323922 -0.394564
N3    N     N_R   1.000000 0.500000 0.676078 -0.394564
N4    N     N_R   0.500000 0.000000 0.676130 -0.428037
N5    N     N_R   0.500000 0.000000 0.823870 -0.428037
N6    N     N_R   1.000000 0.500000 0.823922 -0.394564
N7    N     N_R   0.500000 1.000000 0.176078 -0.394564
N8    N     N_R   0.000000 0.500000 0.176128 -0.428041
O1    O     O_R   0.061940 0.535840 0.000010 -0.564865
O2    O     O_R   0.464160 0.061940 0.000010 -0.563680
O3    O     O_R   0.938060 0.464160 0.000010 -0.564865
O4    O     O_R   0.535840 0.938060 0.000010 -0.563680
O5    O     O_R   0.061940 0.464160 0.999990 -0.563672
O6    O     O_R   0.464160 0.938060 0.999990 -0.564852
O7    O     O_R   0.938060 0.535840 0.999990 -0.563672
O8    O     O_R   0.535840 0.061940 0.999990 -0.564852
O9    O     O_R   0.561940 0.035840 0.500010 -0.564853
O10   O     O_R   0.964160 0.561940 0.500010 -0.563686
O11   O     O_R   0.438060 0.964160 0.500010 -0.564852
O12   O     O_R   0.035840 0.438060 0.500010 -0.563686
O13   O     O_R   0.561940 0.964160 0.499990 -0.563680
O14   O     O_R   0.964160 0.438060 0.499990 -0.564842
O15   O     O_R   0.438060 0.035840 0.499990 -0.563680
O16   O     O_R   0.035840 0.561940 0.499990 -0.564842
O17   O     O_R   0.499970 0.438000 0.023810 -0.555468
O18   O     O_R   0.562000 0.499970 0.023810 -0.555422
O19   O     O_R   0.500030 0.562000 0.023810 -0.555469
O20   O     O_R   0.438000 0.500030 0.023810 -0.555421
O21   O     O_R   0.499970 0.562000 0.976190 -0.555422
O22   O     O_R   0.562000 0.500030 0.976190 -0.555469
O23   O     O_R   0.500030 0.438000 0.976190 -0.555421
O24   O     O_R   0.438000 0.499970 0.976190 -0.555468
O25   O     O_R   0.999970 0.938000 0.523810 -0.555468
O26   O     O_R   0.062000 0.999970 0.523810 -0.555422
O27   O     O_R   0.000030 0.062000 0.523810 -0.555469
O28   O     O_R   0.938000 0.000030 0.523810 -0.555421
O29   O     O_R   0.999970 0.062000 0.476190 -0.555422
O30   O     O_R   0.062000 0.000030 0.476190 -0.555469
O31   O     O_R   0.000030 0.938000 0.476190 -0.555421
O32   O     O_R   0.938000 0.999970 0.476190 -0.555468
O33   O     O_R   0.999950 0.535840 0.041070 -0.581323
O34   O     O_R   0.464160 0.999950 0.041070 -0.562898
O35   O     O_R   0.000050 0.464160 0.041070 -0.581322
O36   O     O_R   0.535840 0.000050 0.041070 -0.562899
O37   O     O_R   0.999950 0.464160 0.958930 -0.562898
O38   O     O_R   0.464160 0.000050 0.958930 -0.581291
O39   O     O_R   0.000050 0.535840 0.958930 -0.562899
O40   O     O_R   0.535840 0.999950 0.958930 -0.581292
O41   O     O_R   0.499950 0.035840 0.541070 -0.581292
O42   O     O_R   0.964160 0.499950 0.541070 -0.562898
O43   O     O_R   0.500050 0.964160 0.541070 -0.581292
O44   O     O_R   0.035840 0.500050 0.541070 -0.562899
O45   O     O_R   0.499950 0.964160 0.458930 -0.562898
O46   O     O_R   0.964160 0.500050 0.458930 -0.581267
O47   O     O_R   0.500050 0.035840 0.458930 -0.562899
O48   O     O_R   0.035840 0.499950 0.458930 -0.581267
O49   O     O_2   0.056176 0.444037 0.325118 -0.489671
O50   O     O_2   0.556832 0.054954 0.325408 -0.554476
O51   O     O_2   0.943823 0.555963 0.325118 -0.489671
O52   O     O_2   0.443168 0.945046 0.325408 -0.554476
O53   O     O_2   0.054954 0.556832 0.674592 -0.554476
O54   O     O_2   0.555852 0.943713 0.674880 -0.489654
O55   O     O_2   0.945046 0.443168 0.674592 -0.554476
O56   O     O_2   0.444148 0.056287 0.674880 -0.489654
O57   O     O_2   0.556284 0.944145 0.825120 -0.489654
O58   O     O_2   0.056832 0.554954 0.825408 -0.554476
O59   O     O_2   0.443716 0.055855 0.825120 -0.489654
O60   O     O_2   0.943168 0.445046 0.825408 -0.554476
O61   O     O_2   0.554954 0.056832 0.174592 -0.554477
O62   O     O_2   0.055743 0.443605 0.174878 -0.489638
O63   O     O_2   0.445046 0.943168 0.174592 -0.554476
O64   O     O_2   0.944257 0.556395 0.174878 -0.489638
N9    N     N_3   0.911138 0.589202 0.279824 -0.508906
H1    H     H_    0.877528 0.581855 0.274289 0.223614
H2    H     H_    0.918666 0.622781 0.274312 0.222219
N10   N     N_3   0.409976 0.910214 0.278338 -0.527519
H3    H     H_    0.386460 0.928520 0.290370 0.265419
H4    H     H_    0.428199 0.887115 0.290726 0.266721
N11   N     N_3   0.088862 0.410798 0.279824 -0.508906
H5    H     H_    0.122472 0.418145 0.274289 0.223614
H6    H     H_    0.081334 0.377219 0.274312 0.222219
N12   N     N_3   0.590024 0.089786 0.278338 -0.527520
H7    H     H_    0.613540 0.071480 0.290370 0.265419
H8    H     H_    0.571801 0.112885 0.290726 0.266721
N13   N     N_3   0.910215 0.409976 0.721662 -0.527520
H9    H     H_    0.928520 0.386460 0.709630 0.265419
H10   H     H_    0.887115 0.428198 0.709274 0.266721
N14   N     N_3   0.410980 0.089043 0.720174 -0.508905
H11   H     H_    0.418395 0.122637 0.725709 0.223617
H12   H     H_    0.377385 0.081584 0.725686 0.222218
N15   N     N_3   0.089785 0.590024 0.721662 -0.527520
H13   H     H_    0.071480 0.613540 0.709630 0.265419
H14   H     H_    0.112885 0.571802 0.709274 0.266721
N16   N     N_3   0.589020 0.910957 0.720174 -0.508905
H15   H     H_    0.581605 0.877363 0.725709 0.223617
H16   H     H_    0.622615 0.918416 0.725686 0.222219
N17   N     N_3   0.410962 0.089025 0.779826 -0.508903
H17   H     H_    0.377366 0.081611 0.774291 0.223617
H18   H     H_    0.418422 0.122619 0.774313 0.222218
N18   N     N_3   0.909976 0.410214 0.778337 -0.527520
H19   H     H_    0.886460 0.428520 0.790370 0.265419
H20   H     H_    0.928199 0.387115 0.790726 0.266721
N19   N     N_3   0.589038 0.910975 0.779826 -0.508903
H21   H     H_    0.622633 0.918389 0.774291 0.223617
H22   H     H_    0.581578 0.877381 0.774313 0.222218
N20   N     N_3   0.090024 0.589786 0.778337 -0.527519
H23   H     H_    0.113540 0.571480 0.790370 0.265419
H24   H     H_    0.071801 0.612885 0.790726 0.266721
N21   N     N_3   0.410215 0.909976 0.221662 -0.527519
H25   H     H_    0.428520 0.886460 0.209630 0.265419
H26   H     H_    0.387115 0.928198 0.209274 0.266721
N22   N     N_3   0.911156 0.589220 0.220172 -0.508899
H27   H     H_    0.918639 0.622800 0.225707 0.223619
H28   H     H_    0.877546 0.581828 0.225685 0.222217
N23   N     N_3   0.589785 0.090024 0.221662 -0.527520
H29   H     H_    0.571480 0.113540 0.209630 0.265420
H30   H     H_    0.612885 0.071802 0.209274 0.266721
N24   N     N_3   0.088844 0.410780 0.220172 -0.508900
H31   H     H_    0.081361 0.377200 0.225707 0.223619
H32   H     H_    0.122454 0.418172 0.225685 0.222218
O65   O     O_3   0.938370 0.447676 0.146907 -0.706538
H33   H     H_    0.908005 0.451572 0.138182 0.331808
O66   O     O_3   0.565215 0.952175 0.147227 -0.707893
H34   H     H_    0.587715 0.936969 0.134971 0.330295
O67   O     O_3   0.061630 0.552324 0.146907 -0.706537
H35   H     H_    0.091995 0.548428 0.138182 0.331808
O68   O     O_3   0.434785 0.047825 0.147227 -0.707893
H36   H     H_    0.412285 0.063031 0.134971 0.330295
O69   O     O_3   0.952174 0.565215 0.852773 -0.707893
H37   H     H_    0.936968 0.587714 0.865029 0.330294
O70   O     O_3   0.552409 0.061558 0.853092 -0.706535
H38   H     H_    0.548544 0.091931 0.861811 0.331809
O71   O     O_3   0.047826 0.434785 0.852773 -0.707892
H39   H     H_    0.063032 0.412286 0.865029 0.330295
O72   O     O_3   0.447591 0.938442 0.853092 -0.706534
H40   H     H_    0.451456 0.908069 0.861811 0.331809
O73   O     O_3   0.438440 0.947593 0.646908 -0.706535
H41   H     H_    0.408067 0.951459 0.638189 0.331809
O74   O     O_3   0.065215 0.452175 0.647227 -0.707894
H42   H     H_    0.087715 0.436968 0.634971 0.330295
O75   O     O_3   0.561560 0.052407 0.646908 -0.706534
H43   H     H_    0.591933 0.048541 0.638189 0.331809
O76   O     O_3   0.934785 0.547825 0.647227 -0.707894
H44   H     H_    0.912285 0.563031 0.634971 0.330295
O77   O     O_3   0.452174 0.065215 0.352773 -0.707893
H45   H     H_    0.436968 0.087714 0.365029 0.330294
O78   O     O_3   0.052478 0.561499 0.353090 -0.706533
H46   H     H_    0.048637 0.591879 0.361805 0.331816
O79   O     O_3   0.547826 0.934785 0.352773 -0.707892
H47   H     H_    0.563032 0.912286 0.365029 0.330295
O80   O     O_3   0.947522 0.438501 0.353090 -0.706532
H48   H     H_    0.951363 0.408121 0.361805 0.331815
N25   N     N_3   0.942770 0.438607 0.085706 -0.566855
H49   H     H_    0.920357 0.420664 0.098588 0.236993
H50   H     H_    0.964636 0.413848 0.077558 0.245820
N26   N     N_3   0.566624 0.949692 0.085589 -0.571050
H51   H     H_    0.563992 0.915442 0.091295 0.225258
H52   H     H_    0.599145 0.961737 0.090463 0.234637
N27   N     N_3   0.057230 0.561393 0.085706 -0.566855
H53   H     H_    0.079643 0.579336 0.098588 0.236992
H54   H     H_    0.035364 0.586152 0.077558 0.245820
N28   N     N_3   0.433376 0.050308 0.085589 -0.571049
H55   H     H_    0.436008 0.084558 0.091295 0.225258
H56   H     H_    0.400855 0.038263 0.090463 0.234637
N29   N     N_3   0.949691 0.566624 0.914411 -0.571050
H57   H     H_    0.915442 0.563991 0.908705 0.225257
H58   H     H_    0.961736 0.599144 0.909537 0.234637
N30   N     N_3   0.561466 0.057153 0.914292 -0.566789
H59   H     H_    0.579421 0.079559 0.901412 0.236980
H60   H     H_    0.586209 0.035257 0.922428 0.245825
N31   N     N_3   0.050309 0.433376 0.914411 -0.571050
H61   H     H_    0.084558 0.436009 0.908705 0.225257
H62   H     H_    0.038263 0.400856 0.909537 0.234637
N32   N     N_3   0.438534 0.942847 0.914292 -0.566789
H63   H     H_    0.420579 0.920441 0.901412 0.236980
H64   H     H_    0.413791 0.964743 0.922428 0.245825
N33   N     N_3   0.442845 0.938536 0.585708 -0.566790
H65   H     H_    0.420438 0.920582 0.598588 0.236980
H66   H     H_    0.464740 0.913793 0.577571 0.245825
N34   N     N_3   0.066624 0.449692 0.585589 -0.571050
H67   H     H_    0.063992 0.415442 0.591295 0.225258
H68   H     H_    0.099145 0.461737 0.590463 0.234637
N35   N     N_3   0.557155 0.061464 0.585708 -0.566791
H69   H     H_    0.579561 0.079418 0.598588 0.236980
H70   H     H_    0.535260 0.086207 0.577571 0.245824
N36   N     N_3   0.933376 0.550308 0.585589 -0.571049
H71   H     H_    0.936008 0.584558 0.591295 0.225258
H72   H     H_    0.900855 0.538263 0.590463 0.234637
N37   N     N_3   0.449691 0.066624 0.414411 -0.571050
H73   H     H_    0.415442 0.063991 0.408705 0.225257
H74   H     H_    0.461736 0.099144 0.409537 0.234637
N38   N     N_3   0.061525 0.557091 0.414290 -0.566736
H75   H     H_    0.079489 0.579492 0.401411 0.236969
H76   H     H_    0.086254 0.535171 0.422418 0.245827
N39   N     N_3   0.550308 0.933376 0.414411 -0.571050
H77   H     H_    0.584558 0.936009 0.408705 0.225257
H78   H     H_    0.538264 0.900856 0.409537 0.234637
N40   N     N_3   0.938475 0.442909 0.414290 -0.566737
H79   H     H_    0.920511 0.420508 0.401411 0.236970
H80   H     H_    0.913746 0.464828 0.422418 0.245827

loop_
_geom_bond_atom_site_label_1
_geom_bond_atom_site_label_2
_ccdc_geom_bond_type
C119  C143  A    
N19   H21   S    
C34   C42   S    
Cu3   O37   S    
Cu12  O31   S    
C139  N19   S    
O79   H47   S    
N23   H30   S    
O77   H45   S    
N16   H15   S    
C9    C73   S    
C112  C124  A    
C132  N12   S    
C131  N11   S    
Cu11  O28   S    
Cu9   O18   S    
C154  C170  A    
C106  C130  A    
C97   N5    A    
C130  C141  A    
C155  O75   S    
C156  O76   S    
C158  C174  A    
C93   O53   S    
C120  C144  A    
C79   O47   A    
C97   C115  A    
C136  N16   S    
O75   H43   S    
C14   C170  A    
C78   O42   A    
C11   C167  A    
C103  C117  A    
C101  C119  A    
C41   C49   T    
N34   H67   S    
N29   H58   S    
Cu5   Cu7   S    
C15   C173  A    
C109  C133  A    
O72   H40   S    
C108  C122  A    
C7    C31   S    
C121  C128  A    
Cu1   O39   S    
C95   C109  A    
C21   N4    S    
C129  C142  A    
C27   C35   T    
Cu10  O24   S    
C16   C80   S    
C87   O27   A    
N40   H80   S    
Cu2   Cu4   S    
N23   H29   S    
N24   H31   S    
C100  C114  A    
C2    C26   S    
C154  O74   S    
C69   C88   S    
C14   C172  A    
C6    C30   S    
C63   C71   T    
N12   H8    S    
C36   C44   S    
Cu3   O35   S    
N39   H77   S    
N22   H27   S    
C39   C47   S    
C40   C48   S    
C108  C132  A    
C161  N25   S    
C68   C83   S    
C92   C106  A    
Cu11  O26   S    
C15   C79   S    
C99   N5    A    
Cu9   O20   S    
C172  N36   S    
C171  N35   S    
N17   H18   S    
N33   H65   S    
C145  C161  A    
C151  C167  A    
C158  O78   S    
C89   O49   S    
N15   H14   S    
N28   H55   S    
C153  O73   S    
O78   H46   S    
O74   H42   S    
Cu4   O40   S    
O71   H39   S    
N31   H61   S    
C11   C165  A    
C160  O80   S    
C21   C153  A    
C76   O38   A    
C100  O60   S    
Cu8   O44   S    
N38   H75   S    
Cu7   O11   S    
C91   C105  A    
Cu4   O8    S    
C111  C135  A    
C73   O33   A    
C92   O52   S    
C91   N1    A    
C176  N40   S    
Cu3   O3    S    
N19   H22   S    
Cu2   O34   S    
Cu12  O30   S    
N9    H1    S    
C114  C126  A    
N27   H54   S    
N32   H63   S    
C150  C166  A    
Cu6   O14   S    
C14   C78   S    
C49   C57   S    
C122  C127  A    
N36   H71   S    
C52   C60   S    
C59   C67   T    
C53   C61   S    
C81   O17   A    
N10   H3    S    
Cu1   Cu3   S    
C55   C63   S    
C19   C151  A    
C56   C64   S    
C137  N17   S    
C35   C43   S    
C4    O4    A    
C44   C52   T    
C13   C169  A    
C45   C53   T    
Cu1   O1    S    
C147  O67   S    
N21   H26   S    
C112  C136  A    
C8    O14   A    
C94   O54   S    
N25   H50   S    
Cu8   O48   S    
C133  N13   S    
C148  C164  A    
C149  C165  A    
C7    O11   A    
Cu2   O38   S    
C170  N34   S    
C109  C123  A    
C65   C84   S    
C152  O72   S    
C150  O70   S    
C156  C172  A    
C102  O62   S    
C101  O61   S    
Cu6   O10   S    
N18   H20   S    
Cu4   O4    S    
C71   C86   S    
C149  O69   S    
C106  C122  A    
N30   H60   S    
C21   C155  A    
C76   O40   A    
C169  N33   S    
C9    C161  A    
C60   C68   T    
C42   C50   T    
C142  N22   S    
C110  C134  A    
C29   C37   T    
C20   N5    S    
C73   O35   A    
C72   C87   S    
C97   O57   S    
C90   N2    A    
C16   C174  A    
C1    O1    A    
N26   H52   S    
Cu12  O32   S    
C7    O15   A    
N11   H5    S    
C5    O13   A    
N16   H16   S    
C96   N4    A    
C3    C27   S    
C90   C108  A    
C11   C75   S    
C88   O32   A    
Cu11  O27   S    
C146  O66   S    
C23   C157  A    
C94   C112  A    
N13   H10   S    
C20   C150  A    
C114  C138  A    
Cu6   Cu8   S    
N37   H74   S    
O68   H36   S    
N26   H51   S    
C19   N6    S    
C10   C162  A    
C17   N8    S    
Cu7   O45   S    
C22   N3    S    
C70   C85   S    
C85   O25   A    
C23   N2    S    
C130  N10   S    
Cu5   O47   S    
C25   C33   T    
C119  C127  A    
C175  N39   S    
C3    O7    A    
C1    O5    A    
C151  O71   S    
C134  C137  A    
N34   H68   S    
N29   H57   S    
C146  C162  A    
C135  N15   S    
C166  N30   S    
N20   H23   S    
C83   O21   A    
C10   C164  A    
Cu5   O41   S    
N35   H69   S    
C81   O23   A    
C164  N28   S    
C98   N6    A    
C104  O64   S    
C9    C163  A    
C110  C124  A    
Cu3   O5    S    
N22   H28   S    
N24   H32   S    
N15   H13   S    
Cu1   O7    S    
C85   O31   A    
C16   C176  A    
C132  C143  A    
C165  N29   S    
C133  C138  A    
C77   O41   A    
C103  N7    A    
C136  C139  A    
C129  N9    S    
C152  C168  A    
C144  N24   S    
C104  C118  A    
C93   N3    A    
C135  C140  A    
C91   O51   S    
C111  C123  A    
C50   C58   S    
C74   O36   A    
C95   O55   S    
N27   H53   S    
C54   C62   S    
C118  C142  A    
O65   H33   S    
C96   C110  A    
Cu9   O19   S    
C17   C145  A    
O76   H44   S    
N17   H17   S    
Cu10  O22   S    
C4    O6    A    
O80   H48   S    
C46   C54   T    
C104  N8    A    
N28   H56   S    
C117  C127  A    
C93   C111  A    
C12   C76   S    
C107  C121  A    
C102  C120  A    
N38   H76   S    
C18   N7    S    
C103  O63   S    
C57   C65   T    
C123  C126  A    
C99   C113  A    
C83   O19   A    
C120  C128  A    
Cu11  O25   S    
Cu10  O23   S    
Cu9   Cu10  S    
Cu8   O12   S    
C33   C41   S    
N40   H79   S    
Cu11  Cu12  S    
C162  N26   S    
C66   C81   S    
Cu1   O33   S    
N11   H6    S    
C43   C51   T    
O67   H35   S    
N32   H64   S    
C90   O50   S    
C113  C125  A    
C80   O46   A    
O73   H41   S    
N36   H72   S    
O70   H38   S    
C145  O65   S    
C20   C152  A    
C28   C36   T    
N10   H4    S    
C153  C169  A    
C77   O43   A    
C89   N1    A    
N12   H7    S    
C147  C163  A    
C131  C144  A    
C101  N7    A    
C157  C173  A    
C148  O68   S    
O66   H34   S    
C167  N31   S    
C134  N14   S    
N21   H25   S    
C117  C141  A    
C74   O34   A    
C157  O77   S    
C22   C156  A    
N25   H49   S    
C17   C147  A    
C18   C148  A    
N33   H66   S    
C12   C166  A    
C24   C158  A    
C6    O16   A    
C138  N18   S    
C8    O12   A    
C99   O59   S    
C19   C149  A    
C82   O18   A    
C26   C34   T    
Cu9   O17   S    
C87   O29   A    
C163  N27   S    
C3    O3    A    
C75   O39   A    
C24   N1    S    
C84   O24   A    
C143  N23   S    
Cu7   O43   S    
C32   C40   T    
Cu2   O2    S    
C116  C126  A    
C1    C25   S    
C160  C176  A    
C62   C70   T    
C89   C107  A    
C118  C128  A    
Cu6   O46   S    
C4    C28   S    
C58   C66   T    
Cu8   O16   S    
C5    C29   S    
Cu10  O21   S    
C13   C77   S    
C38   C46   S    
C8    C32   S    
C2    O8    A    
C107  C131  A    
Cu12  O29   S    
N9    H2    S    
C6    O10   A    
C105  C129  A    
N35   H70   S    
C80   O48   A    
C23   C159  A    
Cu5   O9    S    
N39   H78   S    
C92   N2    A    
C98   C116  A    
C82   O22   A    
C13   C171  A    
C88   O28   A    
N13   H9    S    
C105  C121  A    
N31   H62   S    
N14   H11   S    
C159  O79   S    
C174  N38   S    
N37   H73   S    
C168  N32   S    
N14   H12   S    
Cu2   O6    S    
C86   O30   A    
C51   C59   S    
C98   O58   S    
Cu6   O42   S    
C47   C55   T    
C22   C154  A    
C61   C69   T    
C48   C56   T    
Cu4   O36   S    
C78   O44   A    
C95   N3    A    
C173  N37   S    
C2    O2    A    
C115  C139  A    
C18   C146  A    
C102  N8    A    
C12   C168  A    
C24   C160  A    
C100  N6    A    
Cu7   O13   S    
C115  C125  A    
C15   C175  A    
Cu5   O15   S    
N18   H19   S    
C79   O45   A    
N20   H24   S    
C10   C74   S    
C141  N21   S    
N30   H59   S    
C31   C39   T    
C75   O37   A    
C113  C137  A    
C64   C72   T    
O69   H37   S    
C140  N20   S    
C94   N4    A    
C5    O9    A    
C155  C171  A    
C67   C82   S    
C96   O56   S    
C159  C175  A    
C86   O26   A    
C30   C38   T    
C37   C45   S    
C84   O20   A    
C124  C125  A    
C116  C140  A    
