data_mof_unit_67235.cif
_audit_creation_date              2012-12-11T18:15:39-0500
_audit_creation_method            fapswitch 2.2
_symmetry_space_group_name_H-M    P1
_symmetry_Int_Tables_number       1
_space_group_crystal_system       triclinic
_cell_length_a                    20.350945
_cell_length_b                    20.515957
_cell_length_c                    8.910213
_cell_angle_alpha                 90.329452
_cell_angle_beta                  93.746562
_cell_angle_gamma                 91.774215
_cell_volume                      3710.34126946

loop_
_atom_site_label
_atom_site_type_symbol
_atom_type_description
_atom_site_fract_x
_atom_site_fract_y
_atom_site_fract_z
_atom_type_partial_charge
Ba1   Ba    Ba6+2 0.999980 0.452130 0.155200 1.863473
Ba2   Ba    Ba6+2 0.999980 0.547870 0.655200 1.894648
Ba3   Ba    Ba6+2 0.499980 0.952130 0.155200 1.869788
Ba4   Ba    Ba6+2 0.499980 0.047870 0.655200 1.895392
C1    C     C_3   0.009277 0.122332 0.501590 -0.132441
C2    C     C_R   0.126574 0.649201 0.173238 -0.221714
C3    C     C_R   0.627660 0.847167 0.675200 -0.089854
C4    C     C_R   0.626185 0.148594 0.171853 -0.225334
C5    C     C_R   0.141984 0.300049 0.569626 0.108893
C6    C     C_R   0.141063 0.699114 0.073970 0.029281
C7    C     C_R   0.636678 0.795605 0.576938 0.080093
C8    C     C_R   0.640372 0.198796 0.072979 0.029092
C9    C     C_R   0.191891 0.256432 0.609427 0.013724
C10   C     C_R   0.189841 0.746189 0.116239 -0.109474
C11   C     C_R   0.684876 0.750520 0.617678 -0.055178
C12   C     C_3   0.065656 0.859544 0.100539 -0.287467
C13   C     C_R   0.687989 0.246656 0.116188 -0.103391
C14   C     C_R   0.221989 0.254386 0.756963 0.068607
C15   C     C_R   0.220278 0.747474 0.262276 0.056286
C16   C     C_R   0.717490 0.750761 0.762570 0.069331
C17   C     C_R   0.717227 0.248671 0.262958 0.056287
C18   C     C_R   0.204799 0.301066 0.865831 -0.038943
C19   C     C_R   0.203781 0.698487 0.366320 -0.030346
C20   C     C_R   0.702776 0.799561 0.869078 -0.045878
C21   C     C_R   0.700828 0.199642 0.366952 -0.029563
C22   C     C_R   0.800859 0.701146 0.940935 0.054443
C23   C     C_3   0.513073 0.603956 0.413251 -0.191073
C24   C     C_R   0.797317 0.301290 0.447222 0.015315
C25   C     C_R   0.302248 0.201938 0.938917 0.049869
C26   C     C_R   0.300320 0.800577 0.447616 -0.012760
C27   C     C_R   0.783416 0.747517 0.050494 0.076195
C28   C     C_R   0.779687 0.252979 0.552393 0.107477
C29   C     C_R   0.283751 0.247480 0.049122 0.079745
C30   C     C_R   0.283579 0.751522 0.551539 0.102026
C31   C     C_R   0.853764 0.656079 0.977966 0.085694
C32   C     C_R   0.852135 0.345888 0.483569 0.094078
C33   C     C_R   0.354439 0.156143 0.977463 0.096365
C34   C     C_3   0.561582 0.356176 0.107686 -0.281497
C35   C     C_R   0.351436 0.848822 0.489662 0.050814
C36   C     C_R   0.888698 0.663670 0.119641 -0.210860
C37   C     C_R   0.892296 0.332987 0.615178 -0.133694
C38   C     C_R   0.387981 0.162445 0.120703 -0.224565
C39   C     C_R   0.383525 0.845540 0.635655 -0.101214
C40   C     C_3   0.997721 0.203033 0.983563 0.246842
C41   C     C_3   0.002780 0.798614 0.524264 0.257253
C42   C     C_3   0.486268 0.697162 0.021092 0.323496
C43   C     C_3   0.501034 0.298612 0.525268 0.254654
C44   C     C_R   0.866111 0.703628 0.232484 0.004308
C45   C     C_R   0.158788 0.351585 0.819525 -0.043144
C46   C     C_R   0.871075 0.289009 0.723732 0.014878
C47   C     C_R   0.365417 0.202726 0.232711 0.006740
C48   C     C_R   0.362967 0.799415 0.739511 0.086773
C49   C     C_R   0.813708 0.745072 0.197392 -0.004609
C50   C     C_R   0.814698 0.250038 0.692505 0.036041
C51   C     C_R   0.313417 0.244556 0.196685 -0.014808
C52   C     C_R   0.314395 0.752325 0.696545 0.076926
C53   C     C_R   0.765115 0.702768 0.799517 0.051388
C54   C     C_R   0.763304 0.299165 0.304758 -0.002876
C55   C     C_R   0.268719 0.205541 0.794976 0.022147
C56   C     C_R   0.155970 0.648134 0.320169 -0.073116
C57   C     C_R   0.266885 0.797725 0.304028 -0.038987
C58   C     C_3   0.015605 0.135645 0.043397 -0.165454
C59   C     C_3   0.006829 0.870721 0.569557 -0.132676
C60   C     C_3   0.486391 0.623256 0.037905 -0.306701
C61   C     C_3   0.503355 0.370519 0.571457 -0.127207
C62   C     C_3   0.752896 0.483325 0.873466 0.694548
C63   C     C_3   0.806129 0.539883 0.383801 0.710524
C64   C     C_3   0.246703 0.985946 0.864083 0.731309
C65   C     C_3   0.302177 0.039934 0.371260 0.709992
C66   C     C_3   0.679254 0.484874 0.915885 0.343539
C67   C     C_R   0.656651 0.849953 0.822722 -0.049473
C68   C     C_3   0.762958 0.585132 0.465865 0.417635
C69   C     C_3   0.172124 0.988396 0.895706 0.256288
C70   C     C_3   0.258475 0.085732 0.455525 0.428625
C71   C     C_3   0.236965 0.492071 0.833685 0.651836
C72   C     C_3   0.235120 0.509137 0.332870 0.665687
C73   C     C_3   0.738599 0.990334 0.834179 0.644537
C74   C     C_3   0.731706 0.003967 0.334171 0.621237
C75   C     C_3   0.287197 0.438202 0.818219 -0.305840
C76   C     C_3   0.283735 0.566151 0.305354 -0.320113
C77   C     C_3   0.789932 0.937167 0.826877 -0.283864
C78   C     C_R   0.654807 0.148179 0.319619 -0.084041
C79   C     C_3   0.776980 0.060619 0.289159 -0.254921
C80   C     C_3   0.001434 0.192395 0.444431 0.598585
C81   C     C_3   0.028100 0.805202 0.009532 0.799677
C82   C     C_3   0.529903 0.675159 0.458697 0.688081
C83   C     C_3   0.525283 0.302688 0.011813 0.817496
C84   C     C_R   0.236352 0.296050 0.011879 -0.041172
C85   C     C_R   0.236437 0.701512 0.510420 0.013463
C86   C     C_R   0.736103 0.796117 0.013393 -0.063033
C87   C     C_R   0.732083 0.203535 0.512099 0.045556
C88   C     C_2   0.951843 0.632413 0.149273 0.571974
C89   C     C_R   0.133075 0.351450 0.668914 -0.099571
C90   C     C_2   0.954548 0.367910 0.649214 0.460995
C91   C     C_2   0.449539 0.128749 0.153096 0.562763
C92   C     C_2   0.436862 0.892610 0.686876 0.586430
C93   C     C_2   0.015062 0.203052 0.825739 0.506580
C94   C     C_2   0.065827 0.780423 0.458420 0.489761
C95   C     C_2   0.553060 0.720231 0.976931 0.507328
C96   C     C_2   0.564976 0.281570 0.462189 0.493282
H1    H     H_    0.663477 0.435267 0.950156 -0.003782
H2    H     H_    0.200417 0.501156 0.233236 0.023238
H3    H     H_    0.564958 0.254176 0.357782 -0.057782
H4    H     H_    0.708828 0.388852 0.533671 0.370282
H5    H     H_    0.750104 0.431596 0.172803 0.300656
H6    H     H_    0.203917 0.896114 0.512471 0.375962
H7    H     H_    0.241905 0.929346 0.168450 0.303204
H8    H     H_    0.705800 0.989474 0.729875 0.018807
H9    H     H_    0.695410 0.990983 0.240477 0.030265
H10   H     H_    0.296286 0.412211 0.925393 0.165450
H11   H     H_    0.297575 0.593490 0.410380 0.156634
H12   H     H_    0.801158 0.915913 0.938979 0.163351
H13   H     H_    0.792384 0.091107 0.388475 0.181605
H14   H     H_    0.335459 0.457429 0.784638 0.184530
H15   H     H_    0.330027 0.549480 0.260993 0.156835
H16   H     H_    0.836911 0.956390 0.785666 0.197394
H17   H     H_    0.781929 0.635868 0.455838 -0.192034
H18   H     H_    0.821950 0.043131 0.240545 0.189134
H19   H     H_    0.269336 0.402882 0.729224 0.094986
H20   H     H_    0.262110 0.599431 0.219579 0.101030
H21   H     H_    0.772035 0.898136 0.746816 0.095486
H22   H     H_    0.751796 0.090724 0.201709 0.096592
H23   H     H_    0.999776 0.226805 0.538763 0.007897
H24   H     H_    0.020009 0.763759 0.086265 -0.209348
H25   H     H_    0.565120 0.678028 0.557712 0.058182
H26   H     H_    0.516827 0.260089 0.085290 -0.231764
H27   H     H_    0.962705 0.100107 0.538946 0.103787
H28   H     H_    0.151232 0.938036 0.901661 0.032137
H29   H     H_    0.040157 0.869950 0.204009 0.106136
H30   H     H_    0.513546 0.572935 0.515011 0.153079
H31   H     H_    0.533186 0.367865 0.206046 0.107754
H32   H     H_    0.026369 0.090052 0.412890 0.175801
H33   H     H_    0.067819 0.905015 0.034698 0.151894
H34   H     H_    0.463354 0.598469 0.354853 0.091656
H35   H     H_    0.567316 0.401063 0.041492 0.174441
H36   H     H_    0.066401 0.124197 0.017403 0.147533
H37   H     H_    0.043835 0.879421 0.665372 0.179575
H38   H     H_    0.533078 0.607123 0.094691 0.120576
H39   H     H_    0.283330 0.134311 0.461698 -0.215683
H40   H     H_    0.539201 0.379218 0.669374 0.194101
H41   H     H_    0.104021 0.391817 0.628564 0.060409
H42   H     H_    0.092834 0.610038 0.134547 0.069196
H43   H     H_    0.600329 0.887789 0.632970 0.092032
H44   H     H_    0.593453 0.108775 0.132319 0.065572
H45   H     H_    0.208351 0.224734 0.524355 0.082618
H46   H     H_    0.201835 0.783834 0.036675 0.098990
H47   H     H_    0.697825 0.715863 0.534621 0.085123
H48   H     H_    0.699542 0.284631 0.037112 0.113074
H49   H     H_    0.799280 0.778355 0.283154 0.149567
H50   H     H_    0.675797 0.519089 0.009065 0.178596
H51   H     H_    0.799444 0.216047 0.776697 0.149621
H52   H     H_    0.298998 0.277973 0.282194 0.140103
H53   H     H_    0.301665 0.715439 0.776729 0.147999
H54   H     H_    0.225765 0.331048 0.096947 0.173749
H55   H     H_    0.226189 0.664770 0.591791 0.165321
H56   H     H_    0.726544 0.832009 0.097321 0.175462
H57   H     H_    0.723060 0.166188 0.592667 0.164118
H58   H     H_    0.775094 0.667684 0.715063 0.100269
H59   H     H_    0.775615 0.333391 0.220417 0.085276
H60   H     H_    0.278921 0.170630 0.710162 0.117540
H61   H     H_    0.765810 0.571210 0.583705 0.097854
H62   H     H_    0.277681 0.833077 0.220743 0.078974
H63   H     H_    0.042778 0.121919 0.602844 0.197595
H64   H     H_    0.116394 0.845889 0.134867 0.041143
H65   H     H_    0.547881 0.584693 0.336556 0.178005
H66   H     H_    0.610775 0.341119 0.150681 0.031984
H67   H     H_    0.027392 0.240641 0.050769 0.080837
H68   H     H_    0.995421 0.769093 0.626272 0.120186
H69   H     H_    0.475496 0.719624 0.129293 0.049612
H70   H     H_    0.493398 0.268776 0.626708 0.119029
H71   H     H_    0.017024 0.132829 0.165815 0.174676
H72   H     H_    0.164900 0.013149 0.001632 0.147108
H73   H     H_    0.957958 0.886009 0.602519 0.208227
H74   H     H_    0.444306 0.606771 0.102263 0.150591
H75   H     H_    0.453810 0.384850 0.602004 0.204346
H76   H     H_    0.980080 0.097701 0.995172 0.172496
H77   H     H_    0.020614 0.901507 0.473586 0.112600
H78   H     H_    0.480588 0.599382 0.925467 0.204120
H79   H     H_    0.517713 0.401862 0.476896 0.109504
H80   H     H_    0.783744 0.461824 0.962319 0.035531
H81   H     H_    0.857815 0.558751 0.401924 -0.040854
H82   H     H_    0.273800 0.959500 0.951631 0.026763
H83   H     H_    0.255553 0.068004 0.571346 0.113398
H84   H     H_    0.353817 0.059042 0.386039 -0.045909
H85   H     H_    0.946824 0.276222 0.224667 0.354643
H86   H     H_    0.949186 0.939809 0.963900 0.361274
H87   H     H_    0.425433 0.766370 0.330130 0.340258
H88   H     H_    0.440690 0.436770 0.961355 0.365022
H89   H     H_    0.579082 0.616217 0.783877 0.361360
H90   H     H_    0.687146 0.675278 0.289359 0.320972
H91   H     H_    0.163076 0.120370 0.895977 0.348764
H92   H     H_    0.196999 0.191362 0.275900 0.314673
H93   H     H_    0.352164 0.559249 0.685621 0.374899
H94   H     H_    0.203264 0.493880 0.731055 0.010034
H95   H     H_    0.360748 0.441734 0.211481 0.361391
H96   H     H_    0.857434 0.069616 0.687737 0.365495
H97   H     H_    0.859406 0.935720 0.222309 0.368486
H98   H     H_    0.995813 0.657097 0.117682 -0.129057
H99   H     H_    0.957467 0.419247 0.676311 0.070134
H100  H     H_    0.494512 0.150235 0.117906 -0.112090
H101  H     H_    0.431074 0.924811 0.781648 0.037141
H102  H     H_    0.979139 0.181456 0.744711 -0.055089
H103  H     H_    0.064576 0.753874 0.352697 -0.057673
H104  H     H_    0.595367 0.718070 0.056845 0.050093
O1    O     O_2   0.130070 0.404060 0.104920 -0.429199
O2    O     O_3   0.950014 0.790482 0.415484 -0.598896
O3    O     O_2   0.249712 0.864958 0.781995 -0.430947
O4    O     O_3   0.200035 0.937247 0.569318 -0.424028
O5    O     O_2   0.252182 0.091466 0.113200 -0.397099
O6    O     O_2   0.337700 0.010476 0.127601 -0.399270
O7    O     O_3   0.219308 0.969806 0.189727 -0.552890
O8    O     O_3   0.437078 0.710472 0.909403 -0.515523
O9    O     O_3   0.449416 0.289889 0.413944 -0.600617
O10   O     O_3   0.924190 0.533610 0.949240 -0.434106
O11   O     O_3   0.924190 0.466390 0.449240 -0.491073
O12   O     O_3   0.424190 0.033610 0.949240 -0.455761
O13   O     O_3   0.424190 0.966390 0.449240 -0.434034
O14   O     O_3   0.075780 0.466370 0.861070 -0.492615
O15   O     O_3   0.075780 0.533630 0.361070 -0.457200
O16   O     O_3   0.575780 0.966370 0.861070 -0.475295
O17   O     O_2   0.130070 0.595940 0.604920 -0.433321
O18   O     O_3   0.575780 0.033630 0.361070 -0.452196
O19   O     O_3   0.022320 0.344950 0.359800 -0.488116
O20   O     O_3   0.022320 0.655050 0.859800 -0.497703
O21   O     O_3   0.522320 0.844950 0.359800 -0.430904
O22   O     O_3   0.522320 0.155050 0.859800 -0.496880
O23   O     O_2   0.129944 0.300429 0.255881 -0.463447
O24   O     O_2   0.133548 0.703375 0.759314 -0.408871
O25   O     O_2   0.634158 0.803812 0.267016 -0.484581
O26   O     O_2   0.632674 0.204473 0.758116 -0.413672
O27   O     O_3   0.201370 0.484128 0.963029 -0.632120
O28   O     O_2   0.630070 0.904060 0.104920 -0.441552
O29   O     O_3   0.200365 0.518513 0.462625 -0.632200
O30   O     O_3   0.701896 0.983931 0.962499 -0.644339
O31   O     O_3   0.699640 0.018115 0.464964 -0.621246
O32   O     O_3   0.052499 0.210630 0.350127 -0.600447
O33   O     O_3   0.061816 0.788617 0.881063 -0.621043
O34   O     O_3   0.554183 0.710892 0.337419 -0.659851
O35   O     O_3   0.560276 0.288273 0.883852 -0.619213
O36   O     O_2   0.869860 0.403670 0.205810 -0.431231
O37   O     O_2   0.869860 0.596330 0.705810 -0.513259
O38   O     O_2   0.369860 0.903670 0.205810 -0.460348
O39   O     O_2   0.630070 0.095940 0.604920 -0.428080
O40   O     O_2   0.369860 0.096330 0.705810 -0.496906
O41   O     O_3   0.977590 0.344880 0.951200 -0.486448
O42   O     O_3   0.977590 0.655120 0.451200 -0.497353
O43   O     O_3   0.477590 0.844880 0.951200 -0.505028
O44   O     O_3   0.477590 0.155120 0.451200 -0.496243
O45   O     O_2   0.855549 0.313314 0.019067 -0.413643
O46   O     O_2   0.871349 0.711823 0.554458 -0.468735
O47   O     O_2   0.366443 0.791062 0.057566 -0.509283
O48   O     O_2   0.371397 0.211763 0.554744 -0.469341
O49   O     O_2   0.909833 0.139228 0.234167 -0.272137
O50   O     O_3   0.797934 0.475179 0.426315 -0.573391
O51   O     O_2   0.875036 0.177885 0.469329 -0.378365
O52   O     O_3   0.906554 0.264522 0.274903 -0.502343
O53   O     O_2   0.914951 0.788974 0.835700 -0.309248
O54   O     O_2   0.908675 0.836669 0.086115 -0.335639
O55   O     O_3   0.955326 0.909553 0.879263 -0.523473
O56   O     O_2   0.424003 0.659263 0.616782 -0.285667
O57   O     O_2   0.480169 0.765671 0.609503 -0.368054
O58   O     O_3   0.407426 0.724966 0.368860 -0.557025
O59   O     O_2   0.412730 0.286198 0.836631 -0.315669
O60   O     O_2   0.405902 0.334226 0.086941 -0.335014
O61   O     O_3   0.779160 0.544809 0.833562 -0.614298
O62   O     O_3   0.452002 0.406760 0.880086 -0.512118
O63   O     O_2   0.608422 0.494218 0.645130 -0.185475
O64   O     O_2   0.551160 0.499646 0.874153 -0.340218
O65   O     O_3   0.623041 0.600032 0.815902 -0.490133
O66   O     O_2   0.649482 0.517678 0.373911 -0.161811
O67   O     O_2   0.647597 0.608743 0.546738 -0.335647
O68   O     O_3   0.659220 0.635517 0.268290 -0.488342
O69   O     O_2   0.111301 0.011578 0.620843 -0.171166
O70   O     O_2   0.051104 0.029105 0.840208 -0.347841
O71   O     O_3   0.145154 0.113370 0.791094 -0.483855
O72   O     O_3   0.295950 0.975240 0.415702 -0.575180
O73   O     O_2   0.138496 0.037581 0.336737 -0.173707
O74   O     O_2   0.143546 0.129750 0.509410 -0.297672
O75   O     O_3   0.169513 0.153113 0.240590 -0.475328
O76   O     O_2   0.233000 0.620517 0.888258 -0.318166
O77   O     O_2   0.333745 0.566422 0.974440 -0.335047
O78   O     O_3   0.313209 0.586804 0.688594 -0.521774
O79   O     O_2   0.332912 0.447064 0.486711 -0.325290
O80   O     O_2   0.235688 0.381255 0.398601 -0.336439
O81   O     O_3   0.317206 0.418586 0.202423 -0.515568
O82   O     O_2   0.732762 0.119378 0.881043 -0.313601
O83   O     O_3   0.277162 0.047956 0.836754 -0.607359
O84   O     O_2   0.835564 0.068443 0.965335 -0.299562
O85   O     O_3   0.811698 0.084959 0.678719 -0.534772
O86   O     O_2   0.833801 0.952223 0.495221 -0.311059
O87   O     O_2   0.738871 0.879547 0.427994 -0.327729
O88   O     O_3   0.816463 0.911527 0.219255 -0.526683
O89   O     O_2   0.955457 0.581734 0.219278 -0.515247
O90   O     O_2   0.003549 0.336227 0.664126 -0.661384
O91   O     O_2   0.450464 0.078626 0.225608 -0.520466
O92   O     O_2   0.488659 0.894403 0.626926 -0.573140
O93   O     O_2   0.067975 0.225300 0.790758 -0.601230
O94   O     O_3   0.929314 0.212721 0.988897 -0.549226
O95   O     O_2   0.118838 0.794429 0.524413 -0.577818
O96   O     O_2   0.560858 0.739536 0.850315 -0.575638
O97   O     O_2   0.617313 0.297279 0.529097 -0.583294
O98   O     O_2   0.831204 0.436937 0.700663 -0.442326
O99   O     O_2   0.752018 0.359236 0.806488 -0.397798
O100  O     O_3   0.708704 0.431453 0.585897 -0.419123
O101  O     O_2   0.755452 0.595304 0.131161 -0.390239
O102  O     O_2   0.844301 0.516730 0.139865 -0.401999
O103  O     O_3   0.726593 0.471119 0.196035 -0.558400
O104  O     O_2   0.321616 0.951387 0.680373 -0.459335
P1    P     P_3+3 0.136530 0.426510 0.931350 0.990141
P2    P     P_3+3 0.914413 0.711534 0.417498 0.990729
P3    P     P_3+3 0.409716 0.790263 0.921236 1.067450
P4    P     P_3+3 0.413957 0.211002 0.417162 0.991085
P5    P     P_3+3 0.090672 0.708642 0.895385 1.033263
P6    P     P_3+3 0.086884 0.289966 0.390428 1.050995
P7    P     P_3+3 0.590199 0.208712 0.895006 1.036279
P8    P     P_3+3 0.586808 0.789361 0.391768 1.046136
P9    P     P_3+3 0.136530 0.573490 0.431350 0.983367
P10   P     P_3+3 0.636530 0.926510 0.931350 0.980044
P11   P     P_3+3 0.636530 0.073490 0.431350 0.993224
P12   P     P_3+3 0.863410 0.426100 0.379280 1.112743
P13   P     P_3+3 0.863410 0.573900 0.879280 1.136311
P14   P     P_3+3 0.363410 0.926100 0.379280 1.125832
P15   P     P_3+3 0.363410 0.073900 0.879280 1.132803
P16   P     P_3+3 0.909357 0.290477 0.918607 1.060968
S1    S     S_3+6 0.921517 0.192054 0.350459 -0.118266
S2    S     S_3+6 0.280957 0.436839 0.360353 -0.078374
S3    S     S_3+6 0.780449 0.068216 0.844600 -0.074458
S4    S     S_3+6 0.781002 0.934849 0.374605 -0.073632
S5    S     S_3+6 0.761468 0.425004 0.736872 -0.128257
S6    S     S_3+6 0.781910 0.534650 0.201389 -0.161451
S7    S     S_3+6 0.254094 0.932362 0.718607 -0.155674
S8    S     S_3+6 0.276539 0.031609 0.190132 -0.158279
S9    S     S_3+6 0.948805 0.834184 0.951275 -0.111189
S10   S     S_3+6 0.457753 0.707157 0.518656 -0.131078
S11   S     S_3+6 0.446128 0.331557 0.952370 -0.108982
S12   S     S_3+6 0.613855 0.518533 0.803886 -0.026915
S13   S     S_3+6 0.677669 0.584661 0.411268 -0.017957
S14   S     S_3+6 0.118109 0.035193 0.779991 -0.047807
S15   S     S_3+6 0.175478 0.099698 0.382711 0.008264
S16   S     S_3+6 0.280020 0.568866 0.851159 -0.074650

loop_
_geom_bond_atom_site_label_1
_geom_bond_atom_site_label_2
_ccdc_geom_bond_type
C29   C51   A    
C49   H49   S    
C30   C52   A    
O22   P7    S    
C95   H104  S    
C66   H50   S    
O103  S6    S    
C93   H102  S    
C42   C95   S    
O67   S13   D    
C60   H38   S    
O44   P4    S    
C64   H82   S    
C9    C14   A    
H89   O65   S    
C29   C84   A    
C67   P10   S    
H6    O4    S    
C85   H55   S    
Ba3   P14   S    
C25   C29   A    
C33   C38   A    
C5    C9    A    
O20   P5    S    
Ba2   O14   S    
C7    C11   A    
O7    S8    S    
O60   S11   D    
C68   H61   S    
C19   C85   A    
O84   S3    D    
Ba4   O39   S    
O26   P7    D    
O49   S1    D    
H4    O100  S    
C61   H75   S    
C8    P7    S    
C33   P15   S    
C59   H73   S    
Ba1   O36   S    
C11   C16   A    
C38   C91   S    
O29   P9    S    
C24   C28   A    
O43   P3    S    
C46   P16   S    
C88   O89   D    
Ba2   O17   S    
C13   C17   A    
C77   H21   S    
C23   C82   S    
C15   C19   A    
C55   H60   S    
C37   C90   S    
H97   O88   S    
C27   C86   A    
C39   C92   S    
C65   C70   S    
C12   H29   S    
O15   P9    S    
C23   H65   S    
C18   C45   A    
O87   S4    D    
O48   P4    D    
Ba3   O18   S    
C12   C81   S    
C40   O94   S    
C60   H74   S    
C47   P4    S    
C36   C44   A    
O18   P11   S    
O38   P14   D    
C23   H34   S    
C10   C15   A    
O8    P3    S    
H90   O68   S    
C20   C86   A    
C73   S3    S    
O62   S11   S    
C24   C54   A    
C69   H28   S    
C68   S13   S    
Ba1   O19   S    
C31   C36   A    
O54   S9    D    
Ba1   O41   S    
C62   C66   S    
C15   C57   A    
O64   S12   D    
C82   O34   S    
C47   C51   A    
C22   C53   A    
O63   S12   D    
C22   C31   A    
C6    P5    S    
C26   C57   A    
C42   C60   S    
Ba1   O10   S    
O41   P16   S    
C45   C89   A    
C71   C75   S    
O11   P12   S    
C41   O2    S    
Ba4   O12   S    
O14   P1    S    
C9    H45   S    
H85   O52   S    
C3    H43   S    
O82   S3    D    
C66   H1    S    
C72   S2    S    
C12   H64   S    
O83   P15   S    
C74   S4    S    
C1    H63   S    
O72   P14   S    
C54   H59   S    
C35   P14   S    
C39   C48   A    
O4    S7    S    
O51   S1    D    
C69   S14   S    
C63   C68   S    
C1    H32   S    
O73   S15   D    
O77   S16   D    
O25   P8    D    
O45   P16   D    
O35   P7    S    
O94   P16   S    
C59   H37   S    
C88   H98   S    
C94   O95   D    
H91   O71   S    
O5    S8    D    
O42   P2    S    
C72   H2    S    
C44   C49   A    
C83   O35   S    
C26   C30   A    
C57   H62   S    
C94   H103  S    
C13   H48   S    
C4    H44   S    
C6    C10   A    
O31   P11   S    
C1    C80   S    
O33   P5    S    
C27   C49   A    
C64   S7    S    
C84   H54   S    
C44   P2    S    
O56   S10   D    
C64   O83   S    
C77   H12   S    
H86   O55   S    
C4    C8    A    
Ba2   P13   S    
Ba2   O20   S    
C69   H72   S    
O50   P12   S    
O79   S2    D    
C62   O61   S    
Ba4   O22   S    
O30   P10   S    
C86   H56   S    
Ba3   Ba4   S    
O59   S11   D    
C63   O50   S    
C17   C21   A    
C14   C18   A    
C73   H8    S    
C72   C76   S    
O76   S16   D    
C30   C85   A    
C81   S9    S    
C17   C54   A    
C77   H16   S    
C73   O30   S    
C26   C35   A    
C74   H9    S    
C79   H22   S    
C41   H68   S    
H92   O75   S    
C71   H94   S    
C14   C55   A    
C23   H30   S    
C25   C55   A    
O66   S13   D    
C62   S5    S    
Ba4   O40   S    
C83   H26   S    
C53   H58   S    
C5    C89   A    
O53   S9    D    
C79   H13   S    
O104  S7    D    
C63   S6    S    
C80   H23   S    
C58   H71   S    
O34   P8    S    
C46   C50   A    
C4    C78   A    
C80   O32   S    
O81   S2    S    
C41   C94   S    
O58   S10   S    
H7    O7    S    
C7    P8    S    
C96   O97   D    
C63   H81   S    
C74   C79   S    
C91   H100  S    
Ba4   O16   S    
C75   H19   S    
C8    C13   A    
Ba4   P15   S    
O78   S16   S    
C18   C84   A    
C2    H42   S    
O71   S14   S    
Ba2   O11   S    
O12   P15   S    
C32   C37   A    
Ba3   O43   S    
C28   C50   A    
C51   H52   S    
C93   O93   D    
C61   H79   S    
Ba3   O12   S    
C32   P12   S    
C62   H80   S    
O23   P6    D    
Ba3   O38   S    
C91   O91   D    
O36   P12   D    
C60   H78   S    
C76   H15   S    
C73   C77   S    
C70   S15   S    
C58   H76   S    
C1    H27   S    
H95   O81   S    
C34   H35   S    
O10   P13   S    
C21   C78   A    
C71   S16   S    
O55   S9    S    
C37   C46   A    
C90   H99   S    
C89   H41   S    
C65   S8    S    
C34   H66   S    
Ba1   P1    S    
O52   S1    S    
C75   H10   S    
O37   P13   D    
C52   H53   S    
C2    C6    A    
O1    P1    D    
C48   P3    S    
C50   H51   S    
O17   P9    D    
C78   P11   S    
H87   O58   S    
C34   C83   S    
O74   S15   D    
C90   O90   D    
O24   P5    D    
Ba2   O42   S    
C11   H47   S    
C83   S11   S    
O13   P14   S    
C43   O9    S    
C76   H11   S    
O70   S14   D    
C81   O33   S    
C96   H3    S    
O61   P13   S    
C87   H57   S    
O85   S3    S    
C24   C32   A    
C25   C33   A    
C40   H67   S    
O98   S5    D    
O21   P8    S    
C76   H20   S    
H93   O78   S    
C80   S1    S    
C92   H101  S    
H96   O85   S    
C3    C7    A    
O75   S15   S    
C79   H18   S    
Ba1   Ba2   S    
O9    P4    S    
O102  S6    D    
C3    C67   A    
C28   C87   A    
Ba1   P12   S    
C81   H24   S    
O69   S14   D    
Ba3   P10   S    
C58   H36   S    
Ba4   O44   S    
C95   O96   D    
O27   P1    S    
C61   H40   S    
C16   C20   A    
C74   O31   S    
C68   H17   S    
Ba1   O11   S    
C72   O29   S    
Ba1   O1    S    
Ba3   O21   S    
C38   C47   A    
O65   S12   S    
C22   C27   A    
C82   H25   S    
O6    S8    D    
C45   P1    S    
C12   H33   S    
O16   P10   S    
C19   C56   A    
C21   C87   A    
C2    C56   A    
O99   S5    D    
C35   C39   A    
C70   H83   S    
C40   C58   S    
C64   C69   S    
C41   C59   S    
C43   C96   S    
O19   P6    S    
H88   O62   S    
C92   O92   D    
C40   C93   S    
C42   H69   S    
Ba3   O13   S    
O28   P10   D    
Ba1   O15   S    
C36   C88   S    
C71   O27   S    
Ba4   P11   S    
O32   P6    S    
H5    O103  S    
O3    S7    D    
C31   P13   S    
O86   S4    D    
C43   H70   S    
C5    P6    S    
C65   O72   S    
O47   P3    D    
O40   P15   D    
O100  S5    S    
O80   S2    D    
Ba3   O28   S    
Ba2   O10   S    
C70   H39   S    
C10   H46   S    
C59   H77   S    
Ba2   P9    S    
O39   P11   D    
C34   H31   S    
C82   S10   S    
O57   S10   D    
C42   O8    S    
O68   S13   S    
Ba2   O37   S    
C65   H84   S    
C66   S12   S    
C48   C52   A    
O46   P2    D    
Ba4   O13   S    
C75   H14   S    
O101  S6    D    
C16   C53   A    
C43   C61   S    
O88   S4    S    
C20   C67   A    
C56   P9    S    
O2    P2    S    
