data_mof_unit_51180.cif
_audit_creation_date              2012-12-11T14:13:15-0500
_audit_creation_method            fapswitch 2.2
_symmetry_space_group_name_H-M    P1
_symmetry_Int_Tables_number       1
_space_group_crystal_system       triclinic
_cell_length_a                    11.5898
_cell_length_b                    18.766943
_cell_length_c                    10.104884
_cell_angle_alpha                 89.684958
_cell_angle_beta                  109.961321
_cell_angle_gamma                 90.110066
_cell_volume                      2065.79231296

loop_
_atom_site_label
_atom_site_type_symbol
_atom_type_description
_atom_site_fract_x
_atom_site_fract_y
_atom_site_fract_z
_atom_type_partial_charge
C1    C     C_R   0.086410 0.642346 0.145191 0.545924
C2    C     C_R   0.920283 0.355674 0.856701 0.541471
C3    C     C_R   0.919977 0.144208 0.857021 0.529385
C4    C     C_R   0.079784 0.855689 0.142741 0.545272
C5    C     C_R   0.446930 0.474168 0.596661 -0.019769
C6    C     C_R   0.562079 0.527226 0.412900 -0.010842
C7    C     C_R   0.559344 0.974227 0.419341 -0.015377
C8    C     C_R   0.443585 0.025545 0.601167 -0.022551
C9    C     C_2   0.360909 0.938028 0.018866 0.226035
C10   C     C_2   0.605238 0.066885 0.039552 0.180901
C11   C     C_2   0.604129 0.432359 0.031955 0.216931
C12   C     C_2   0.361199 0.561395 0.020664 0.212842
C13   C     C_2   0.453607 0.969142 0.990040 -0.084239
C14   C     C_2   0.495896 0.042415 0.036875 -0.105154
C15   C     C_2   0.498884 0.457736 0.040777 -0.112855
C16   C     C_2   0.448998 0.529057 0.984664 -0.079740
C17   C     C_2   0.022915 0.925724 0.120883 -0.061800
C18   C     C_2   0.969248 0.072248 0.875757 -0.091877
C19   C     C_2   0.973978 0.426514 0.876802 -0.093485
C20   C     C_2   0.032964 0.571374 0.124776 -0.069533
C21   C     C_2   0.003567 0.960134 0.999757 -0.055531
C22   C     C_2   0.978940 0.036012 0.992136 -0.060901
C23   C     C_2   0.981032 0.462895 0.991969 -0.069386
C24   C     C_2   0.015482 0.537334 0.003972 -0.085095
C25   C     C_R   0.438001 0.637801 0.380201 0.573905
C26   C     C_R   0.564500 0.361936 0.623664 0.587842
C27   C     C_R   0.564370 0.138077 0.625896 0.575264
C28   C     C_R   0.438230 0.862571 0.381618 0.570670
C29   C     C_R   0.350061 0.639499 0.013544 0.587990
C30   C     C_R   0.623613 0.355930 0.032504 0.560239
C31   C     C_R   0.624698 0.143403 0.031852 0.556183
C32   C     C_R   0.349599 0.860169 0.013848 0.592255
C33   C     C_R   0.548694 0.437813 0.580504 0.043596
C34   C     C_R   0.459628 0.563078 0.428890 0.061670
C35   C     C_R   0.457407 0.937268 0.432533 0.054674
C36   C     C_R   0.546648 0.061727 0.587057 0.029020
C37   C     C_R   0.393566 0.452004 0.695706 -0.127614
C38   C     C_R   0.613824 0.549900 0.312536 -0.136231
C39   C     C_R   0.612464 0.953837 0.320673 -0.121856
C40   C     C_R   0.389191 0.047961 0.698305 -0.133768
C41   C     C_R   0.276512 0.472614 0.688900 0.296559
C42   C     C_R   0.729649 0.528794 0.312088 0.306206
C43   C     C_R   0.735990 0.967370 0.338380 0.293131
C44   C     C_R   0.275929 0.023156 0.697129 0.304820
C45   C     C_R   0.215842 0.524747 0.592952 0.300643
C46   C     C_R   0.786685 0.473193 0.402519 0.297472
C47   C     C_R   0.795603 0.018799 0.437604 0.274365
C48   C     C_R   0.219740 0.967490 0.609306 0.305554
C49   C     C_R   0.274244 0.552875 0.501753 -0.144779
C50   C     C_R   0.729116 0.444830 0.495117 -0.171049
C51   C     C_R   0.733368 0.049441 0.520203 -0.139575
C52   C     C_R   0.276186 0.941951 0.514645 -0.161992
C53   C     C_R   0.393595 0.531342 0.509018 -0.013922
C54   C     C_R   0.613785 0.468900 0.497202 -0.032399
C55   C     C_R   0.613220 0.029635 0.509305 -0.039267
C56   C     C_R   0.392163 0.967094 0.515615 -0.014325
Cr1   Cr    Cr6+3 0.187610 0.750000 0.979860 0.998845
Cr2   Cr    Cr6+3 0.812390 0.250000 0.020140 1.001535
Cr3   Cr    Cr6+3 0.245810 0.750000 0.341640 0.975855
Cr4   Cr    Cr6+3 0.754190 0.250000 0.658360 0.984247
Cr5   Cr    Cr6+3 0.485760 0.750000 0.219910 0.954647
Cr6   Cr    Cr6+3 0.514240 0.250000 0.780090 0.971495
H1    H     H_    0.441716 0.416725 0.778341 0.185896
H2    H     H_    0.560392 0.584369 0.233001 0.151180
H3    H     H_    0.558409 0.922046 0.235998 0.143891
H4    H     H_    0.433871 0.085739 0.777262 0.180955
H5    H     H_    0.223422 0.587075 0.419644 0.172960
H6    H     H_    0.778676 0.407853 0.571250 0.175902
H7    H     H_    0.782720 0.083902 0.600061 0.186110
H8    H     H_    0.226156 0.906378 0.435402 0.170400
H9    H     H_    0.434371 0.078932 0.062362 0.165105
H10   H     H_    0.503150 0.937692 0.937183 0.153166
H11   H     H_    0.489457 0.558350 0.918573 0.145320
H12   H     H_    0.447600 0.423430 0.087093 0.151963
H13   H     H_    0.964221 0.061866 0.080688 0.169256
H14   H     H_    0.017694 0.934119 0.910518 0.180986
H15   H     H_    0.034069 0.563080 0.916706 0.178895
H16   H     H_    0.956280 0.438645 0.076269 0.196809
H17   H     H_    0.981847 0.045326 0.786675 0.171041
H18   H     H_    0.011019 0.952727 0.210162 0.151458
H19   H     H_    0.018125 0.544283 0.212974 0.173636
H20   H     H_    0.994133 0.452198 0.790479 0.168243
O1    O     O_R   0.267710 0.668200 0.902110 -0.504082
O2    O     O_R   0.732290 0.331800 0.097890 -0.500009
O3    O     O_R   0.732290 0.168200 0.097890 -0.523412
O4    O     O_R   0.267710 0.831800 0.902110 -0.490230
O5    O     O_R   0.099480 0.674460 0.038850 -0.513458
O6    O     O_R   0.900520 0.325540 0.961150 -0.490062
O7    O     O_R   0.900520 0.174460 0.961150 -0.491954
O8    O     O_R   0.099480 0.825540 0.038850 -0.507174
O9    O     O_R   0.116720 0.669210 0.267660 -0.572869
O10   O     O_R   0.883280 0.330790 0.732340 -0.578985
O11   O     O_R   0.883280 0.169210 0.732340 -0.560650
O12   O     O_R   0.116720 0.830790 0.267660 -0.576039
O13   O     O_R   0.366710 0.675440 0.427590 -0.496277
O14   O     O_R   0.633290 0.324560 0.572410 -0.506048
O15   O     O_R   0.633290 0.175440 0.572410 -0.498552
O16   O     O_R   0.366710 0.824560 0.427590 -0.495746
O17   O     O_R   0.534870 0.669390 0.371760 -0.534057
O18   O     O_R   0.465130 0.330610 0.628240 -0.531967
O19   O     O_R   0.465130 0.169390 0.628240 -0.529284
O20   O     O_R   0.534870 0.830610 0.371760 -0.540950
O21   O     O_R   0.453080 0.674480 0.075160 -0.567292
O22   O     O_R   0.546920 0.325520 0.924840 -0.549539
O23   O     O_R   0.546920 0.174480 0.924840 -0.550060
O24   O     O_R   0.453080 0.825520 0.075160 -0.568560
O25   O     O_3   0.306390 0.750000 0.180470 -0.307765
O26   O     O_3   0.693610 0.250000 0.819530 -0.269293
O27   O     O_3   0.225998 0.448570 0.787048 -0.525771
C57   C     C_3   0.215337 0.373271 0.785919 -0.014633
H21   H     H_    0.277489 0.344033 0.742054 0.126354
H22   H     H_    0.120956 0.358901 0.719271 0.140814
C58   C     C_3   0.237236 0.346278 0.935298 -0.371271
H23   H     H_    0.161264 0.311436 0.937503 0.104270
H24   H     H_    0.325309 0.316754 0.976467 0.120749
H25   H     H_    0.238534 0.390447 0.007273 0.239224
O28   O     O_3   0.789110 0.558512 0.224031 -0.516382
C59   C     C_3   0.730997 0.620951 0.151152 0.011152
H26   H     H_    0.733048 0.664502 0.226261 0.121516
H27   H     H_    0.637166 0.609194 0.084605 0.172559
C60   C     C_3   0.786372 0.646815 0.043315 -0.361410
H28   H     H_    0.807225 0.602421 0.984503 0.224400
H29   H     H_    0.719217 0.680632 0.962760 0.112058
H30   H     H_    0.868490 0.679161 0.095627 0.132807
O29   O     O_3   0.801425 0.930559 0.266318 -0.539988
C61   C     C_3   0.739266 0.867542 0.203843 0.002975
H31   H     H_    0.657185 0.881402 0.112793 0.187596
H32   H     H_    0.715840 0.834059 0.282446 0.147225
C62   C     C_3   0.813299 0.821697 0.142603 -0.373708
H33   H     H_    0.831272 0.849483 0.054902 0.183639
H34   H     H_    0.896908 0.802161 0.226092 0.158595
H35   H     H_    0.753926 0.776383 0.095640 0.084670
O30   O     O_3   0.224848 0.048503 0.792872 -0.512463
C63   C     C_3   0.197881 0.122063 0.770798 -0.012440
H36   H     H_    0.099460 0.127802 0.706368 0.170816
H37   H     H_    0.250479 0.151586 0.713933 0.110601
C64   C     C_3   0.221388 0.158045 0.912008 -0.374221
H38   H     H_    0.212100 0.120017 0.992018 0.225841
H39   H     H_    0.314662 0.181763 0.950570 0.128511
H40   H     H_    0.152177 0.200065 0.899017 0.101047
O31   O     O_3   0.097545 0.541693 0.588268 -0.510458
C65   C     C_3   0.060428 0.611437 0.540299 0.016729
H41   H     H_    0.018497 0.610991 0.424001 0.186453
H42   H     H_    0.137287 0.650617 0.574552 0.130691
C66   C     C_3   0.962469 0.635124 0.599591 -0.346841
H43   H     H_    0.004583 0.645463 0.714150 0.154944
H44   H     H_    0.917980 0.684522 0.545725 0.083429
H45   H     H_    0.890954 0.593399 0.582803 0.176966
O32   O     O_3   0.901327 0.451366 0.401761 -0.502418
C67   C     C_3   0.919293 0.377200 0.423332 0.005226
H46   H     H_    0.835571 0.346129 0.365082 0.142738
H47   H     H_    0.946583 0.365014 0.536513 0.145789
C68   C     C_3   0.023851 0.353228 0.375258 -0.344840
H48   H     H_    0.107312 0.385581 0.427122 0.170224
H49   H     H_    0.045168 0.296287 0.403523 0.071437
H50   H     H_    0.997174 0.358950 0.259578 0.171103
O33   O     O_3   0.916537 0.036843 0.460240 -0.524845
C69   C     C_3   0.918084 0.089626 0.360875 0.010323
H51   H     H_    0.874749 0.139654 0.380065 0.130991
H52   H     H_    0.869189 0.070889 0.251999 0.206930
C70   C     C_3   0.049649 0.106097 0.371940 -0.362215
H53   H     H_    0.096863 0.056822 0.357932 0.169637
H54   H     H_    0.049746 0.145085 0.288902 0.106282
H55   H     H_    0.100645 0.129680 0.475470 0.134727
O34   O     O_3   0.109503 0.943106 0.620423 -0.496377
C71   C     C_3   0.065671 0.879006 0.549075 0.025196
H56   H     H_    0.138961 0.837711 0.572365 0.128245
H57   H     H_    0.026131 0.889837 0.434431 0.191584
C72   C     C_3   0.963601 0.850208 0.597121 -0.335114
H58   H     H_    0.896714 0.892897 0.594384 0.185238
H59   H     H_    0.914362 0.806943 0.525822 0.081966
H60   H     H_    0.002632 0.829165 0.706346 0.150120
Cl1   Cl    Cl    0.706158 0.012759 0.987794 -0.698623
Cl2   Cl    Cl    0.284057 0.983734 0.115276 -0.724410
Cl3   Cl    Cl    0.293260 0.517521 0.128863 -0.745001
Cl4   Cl    Cl    0.687496 0.479719 0.944113 -0.692348

loop_
_geom_bond_atom_site_label_1
_geom_bond_atom_site_label_2
_ccdc_geom_bond_type
C1    O5    A    
C71   H57   S    
C61   H31   S    
C31   O3    A    
C5    C37   A    
C12   C29   S    
C72   H59   S    
C72   H58   S    
C7    C55   A    
C6    C34   A    
C8    C56   A    
C63   C64   S    
C70   H53   S    
Cr6   O23   S    
C64   H39   S    
C21   H14   S    
C11   Cl4   S    
C50   C54   A    
C37   C41   A    
C7    C39   A    
C5    C53   A    
Cr5   O21   S    
C38   C42   A    
C42   C46   A    
Cr6   O26   S    
C15   C16   S    
C44   O30   S    
Cr1   O4    S    
C29   O21   A    
C3    C18   S    
C8    C36   A    
C59   H27   S    
C9    C13   D    
C59   H26   S    
C60   H30   S    
C20   H19   S    
C69   C70   S    
C37   H1    S    
C57   H21   S    
C11   C15   D    
C10   C31   S    
C25   O17   A    
O33   C69   S    
C48   O34   S    
C12   C16   D    
C28   C35   S    
C18   H17   S    
C67   C68   S    
C5    C33   A    
C23   C24   S    
C6    C38   A    
C2    O6    A    
Cr3   O12   S    
C68   H49   S    
C19   H20   S    
C40   C44   A    
C38   H2    S    
Cr4   O26   S    
C25   C34   S    
Cr6   O19   S    
Cr4   O11   S    
C10   Cl1   S    
O29   C61   S    
C35   C56   A    
C1    O9    A    
C40   H4    S    
C21   C22   S    
C45   O31   S    
C31   O23   A    
C65   C66   S    
C43   O29   S    
C71   H56   S    
Cr5   O17   S    
Cr3   O13   S    
C22   H13   S    
C6    C54   A    
C62   H35   S    
C70   H55   S    
C70   H54   S    
C66   H43   S    
C4    O8    A    
Cr4   O10   S    
C26   O14   A    
C64   H40   S    
Cr2   O26   S    
Cr1   O8    S    
C66   H44   S    
C52   C56   A    
C16   H11   S    
C20   C24   D    
C11   C30   S    
Cr4   O15   S    
C10   C14   D    
C47   C51   A    
C41   O27   S    
C61   C62   S    
C14   H9    S    
C27   O19   A    
Cr6   O22   S    
Cr3   O25   S    
Cr1   O5    S    
C59   C60   S    
C19   C23   D    
C67   H47   S    
Cr2   O2    S    
C24   H15   S    
C26   C33   S    
C45   C49   A    
C32   O4    A    
C46   O32   S    
Cr1   O1    S    
C9    Cl2   S    
C3    O11   A    
Cr3   O9    S    
C68   H50   S    
C2    O10   A    
Cr5   O24   S    
C57   C58   S    
C60   H28   S    
C71   C72   S    
C12   Cl3   S    
Cr6   O18   S    
C4    C17   S    
Cr4   O14   S    
Cr1   O25   S    
C25   O13   A    
O31   C65   S    
O30   C63   S    
C72   H60   S    
C4    O12   A    
C9    C32   S    
C30   O22   A    
Cr2   O3    S    
C66   H45   S    
C58   H23   S    
C47   O33   S    
C28   O16   A    
C33   C54   A    
C46   C50   A    
C27   O15   A    
C1    C20   S    
C61   H32   S    
C49   H5    S    
C2    C19   S    
C18   C22   D    
C7    C35   A    
Cr2   O6    S    
C63   H37   S    
C42   O28   S    
C29   O1    A    
C63   H36   S    
C13   H10   S    
C27   C36   S    
C8    C40   A    
C64   H38   S    
C39   H3    S    
O28   C59   S    
C3    O7    A    
C58   H25   S    
Cr5   O20   S    
C62   H33   S    
C36   C55   A    
O32   C67   S    
C69   H52   S    
C69   H51   S    
C50   H6    S    
C49   C53   A    
C51   C55   A    
C17   H18   S    
C23   H16   S    
C30   O2    A    
Cr5   O25   S    
Cr2   O7    S    
C57   H22   S    
C60   H29   S    
C52   H8    S    
C28   O20   A    
O34   C71   S    
C48   C52   A    
C15   H12   S    
C39   C43   A    
C34   C53   A    
O27   C57   S    
C65   H41   S    
Cr3   O16   S    
C41   C45   A    
C67   H46   S    
C32   O24   A    
C51   H7    S    
C58   H24   S    
C68   H48   S    
C13   C14   S    
C43   C47   A    
C65   H42   S    
C44   C48   A    
C26   O18   A    
C62   H34   S    
C17   C21   D    
