data_mof_unit_43999.cif
_audit_creation_date              2013-03-05T16:02:39-0500
_audit_creation_method            fapswitch 2.2
_symmetry_space_group_name_H-M    P1
_symmetry_Int_Tables_number       1
_space_group_crystal_system       triclinic
_cell_length_a                    6.954044
_cell_length_b                    17.362607
_cell_length_c                    18.72923
_cell_angle_alpha                 106.316881
_cell_angle_beta                  89.748746
_cell_angle_gamma                 90.470015
_cell_volume                      2170.21300497

loop_
_atom_site_label
_atom_site_type_symbol
_atom_site_description
_atom_site_fract_x
_atom_site_fract_y
_atom_site_fract_z
_atom_type_partial_charge
O1    O     O_R   0.494360 0.415680 0.413760 -0.586635
O2    O     O_R   0.818810 0.432910 0.557230 -0.569728
O3    O     O_R   0.994290 0.584320 0.586240 -0.587202
C1    C     C_R   0.649850 0.415991 0.580643 0.951803
O4    O     O_R   0.823740 0.406440 0.412520 -0.586097
O5    O     O_R   0.999250 0.557660 0.440500 -0.578213
C2    C     C_R   0.654827 0.383873 0.384736 0.938404
O6    O     O_R   0.489400 0.442340 0.559500 -0.576833
O7    O     O_3   0.662500 0.549650 0.509350 -0.264487
V1    V     V_3+5 0.935340 0.490790 0.498270 1.156012
O8    O     O_R   0.329270 0.567090 0.442770 -0.568733
C3    C     C_R   0.161067 0.583985 0.419337 0.951995
O9    O     O_R   0.324340 0.593560 0.587480 -0.588392
C4    C     C_R   0.155436 0.616348 0.615112 0.938763
V2    V     V_3+5 0.435970 0.509210 0.501730 1.154567
O10   O     O_3   0.158940 0.450350 0.490650 -0.262322
H1    H     H_    0.839350 0.845760 0.561624 0.135142
C5    C     C_R   0.309588 0.605198 0.755357 -0.167737
C6    C     C_R   0.383445 0.597527 0.822006 -0.116765
C7    C     C_R   0.370318 0.660793 0.886482 -0.113632
C8    C     C_R   0.283484 0.732265 0.884793 -0.153801
C9    C     C_R   0.209610 0.742421 0.817695 0.118776
C10   C     C_R   0.222671 0.677438 0.751558 0.118928
C11   C     C_R   0.119878 0.815069 0.816151 -0.315543
C12   C     C_R   0.042771 0.822546 0.748381 0.120286
C13   C     C_R   0.055838 0.757564 0.682244 0.116518
C14   C     C_R   0.145520 0.684907 0.683793 -0.316418
C15   C     C_R   0.955904 0.894794 0.744577 -0.172619
C16   C     C_R   0.882127 0.902478 0.677920 -0.108431
C17   C     C_R   0.895267 0.839214 0.613442 -0.089289
C18   C     C_R   0.982027 0.767729 0.615140 -0.155208
H2    H     H_    0.320286 0.553513 0.707253 0.118742
H3    H     H_    0.449738 0.541873 0.823727 0.118057
H4    H     H_    0.426300 0.654258 0.938295 0.115731
H5    H     H_    0.273479 0.778886 0.936897 0.106213
H6    H     H_    0.945198 0.946477 0.792683 0.120878
H7    H     H_    0.815887 0.958140 0.676193 0.128075
H8    H     H_    0.992042 0.721107 0.563037 0.112566
C19   C     C_1   0.111449 0.863333 0.132100 -0.288294
C20   C     C_1   0.118329 0.820502 0.175454 0.138974
C21   C     C_1   0.127540 0.770324 0.227389 0.047461
C22   C     C_1   0.135648 0.728188 0.271327 0.013459
C23   C     C_1   0.145260 0.678190 0.323411 0.069901
C24   C     C_1   0.152984 0.635801 0.367136 -0.323738
C25   C     C_1   0.641265 0.364062 0.632674 -0.326545
C26   C     C_1   0.637076 0.321468 0.676246 0.062145
C27   C     C_1   0.633751 0.271208 0.728126 -0.004872
C28   C     C_1   0.631302 0.228865 0.771933 -0.006679
C29   C     C_1   0.627983 0.178609 0.823817 0.057918
C30   C     C_1   0.623801 0.136015 0.867389 -0.329507
H9    H     H_    0.402638 0.146123 0.444593 0.173641
C31   C     C_R   0.780869 0.399968 0.242072 -0.168779
C32   C     C_R   0.841338 0.409933 0.174189 -0.114606
C33   C     C_R   0.828865 0.346401 0.109791 -0.108880
C34   C     C_R   0.756193 0.272351 0.112783 -0.154455
C35   C     C_R   0.695454 0.260091 0.181017 0.112781
C36   C     C_R   0.707665 0.325316 0.247023 0.114021
C37   C     C_R   0.621262 0.184719 0.184041 -0.282253
C38   C     C_R   0.561038 0.174460 0.253347 0.076778
C39   C     C_R   0.571080 0.239938 0.319081 0.135094
C40   C     C_R   0.644276 0.315420 0.316012 -0.300372
C41   C     C_R   0.495029 0.098977 0.258817 -0.305499
C42   C     C_R   0.438239 0.087823 0.327228 0.416859
C43   C     C_R   0.445259 0.153079 0.391072 -0.224288
C44   C     C_R   0.511323 0.227725 0.387305 -0.212652
H10   H     H_    0.791478 0.451560 0.290367 0.113759
H11   H     H_    0.897227 0.467437 0.171507 0.116604
H12   H     H_    0.874992 0.354604 0.057115 0.116115
H13   H     H_    0.747518 0.225154 0.060967 0.100325
H14   H     H_    0.488683 0.047814 0.210046 0.162675
H15   H     H_    0.517351 0.275366 0.438880 0.127559
O11   O     O_R   0.775690 0.057750 0.940570 -0.577539
O12   O     O_R   0.441200 0.093570 0.087490 -0.586181
O13   O     O_R   0.265840 0.942320 0.059480 -0.569382
C45   C     C_R   0.610200 0.116335 0.115210 0.943092
O14   O     O_R   0.446270 0.067110 0.942790 -0.571773
O15   O     O_R   0.270950 0.915660 0.913750 -0.587263
C46   C     C_R   0.615229 0.084071 0.919407 0.949482
O16   O     O_R   0.770580 0.084400 0.086300 -0.583898
O17   O     O_3   0.602640 0.950400 0.990690 -0.263874
V3    V     V_3+5 0.329740 0.009200 0.001730 1.162322
O18   O     O_R   0.940900 0.906360 0.912450 -0.590997
C47   C     C_R   0.109852 0.883612 0.884842 0.934441
O19   O     O_R   0.935830 0.932820 0.057160 -0.570314
C48   C     C_R   0.103954 0.915734 0.080419 0.951606
V4    V     V_3+5 0.829130 0.990680 0.998180 1.159097
O20   O     O_3   0.106100 0.049590 0.009310 -0.264369
N1    N     N_R   0.376422 0.010069 0.331950 0.236902
O21   O     O_R   0.302285 0.001476 0.393210 -0.398313
O22   O     O_R   0.399988 0.946678 0.275893 -0.421058

loop_
_geom_bond_atom_site_label_1
_geom_bond_atom_site_label_2
_geom_bond_distance
_ccdc_geom_bond_type
C34   C35   1.415470 A    
C42   N1    1.439573 S    
C21   C22   1.246989 T    
C6    C7    1.388730 A    
C1    O6    1.313438 A    
C32   C33   1.389533 A    
C12   C15   1.416539 A    
C13   C14   1.419455 A    
C16   C17   1.388733 A    
C15   C16   1.392814 A    
C11   C47   1.488816 S    
O19   V4    1.850138 S    
O5    C3    1.312154 A    
C17   C18   1.392878 A    
C33   H12   1.082560 S    
O15   C47   1.297543 A    
V2    O10   2.156579 S    
C35   C36   1.425020 A    
C41   H14   1.081302 S    
C5    C6    1.392801 A    
C2    C40   1.488116 S    
O11   C46   1.313431 A    
C33   C34   1.393250 A    
O8    V2    1.850105 S    
O17   V4    1.708282 S    
O1    V2    2.004536 S    
C10   C14   1.419533 A    
C4    C14   1.488814 S    
O7    V1    2.143961 S    
C7    H4    1.082608 S    
C38   C39   1.423388 A    
O9    C4    1.300472 A    
H1    C17   1.082615 S    
O12   C45   1.299759 A    
C30   C46   1.502817 S    
O12   V3    1.999198 S    
C37   C45   1.488925 S    
C1    C25   1.502810 S    
C5    C10   1.416535 A    
C11   C12   1.419541 A    
C6    H3    1.082695 S    
C19   C20   1.246945 T    
O4    C2    1.298968 A    
V4    O20   2.156558 S    
C37   C38   1.419846 A    
O18   V4    2.003113 S    
C39   C40   1.418132 A    
O2    C1    1.311986 A    
C23   C24   1.246962 T    
C41   C42   1.403178 A    
C27   C28   1.246016 T    
O15   V3    2.002831 S    
C7    C8    1.392867 A    
C34   H13   1.081586 S    
O19   C48   1.314321 A    
V3    O20   1.700179 S    
O3    C4    1.297519 A    
C20   C21   1.478821 S    
N1    O22   1.301032 A    
C39   C44   1.412981 A    
O18   C47   1.300493 A    
O6    V2    1.836637 S    
O9    V2    2.003220 S    
C9    C11   1.419451 A    
C5    H2    1.081090 S    
C22   C23   1.478848 S    
C19   C48   1.504482 S    
O13   V3    1.846295 S    
O2    V1    1.867718 S    
C31   H10   1.081770 S    
C31   C32   1.393174 A    
C26   C27   1.477204 S    
C28   C29   1.477208 S    
C38   C41   1.415626 A    
O1    C2    1.296846 A    
H9    C43   1.082621 S    
O14   C46   1.311986 A    
O17   V3    2.143887 S    
O14   V3    1.867806 S    
O5    V1    1.846460 S    
O11   V4    1.837132 S    
O8    C3    1.315036 A    
C36   C40   1.418430 A    
C8    H5    1.081133 S    
C18   H8    1.081139 S    
C43   C44   1.391810 A    
C12   C13   1.425122 A    
O4    V1    1.999283 S    
C3    C24   1.504640 S    
O3    V1    2.002848 S    
C44   H15   1.081594 S    
C35   C37   1.418543 A    
O13   C48   1.312832 A    
O7    V2    1.709521 S    
C32   H11   1.082631 S    
C31   C36   1.415635 A    
C42   C43   1.397953 A    
C25   C26   1.245905 T    
C13   C18   1.416321 A    
N1    O21   1.301620 A    
C15   H6    1.081097 S    
C29   C30   1.245909 T    
C16   H7    1.082696 S    
C9    C10   1.425126 A    
V1    O10   1.700241 S    
C8    C9    1.416317 A    
C45   O16   1.296397 A    
O16   V4    2.008348 S    
