data_mof_unit_29779.cif
_audit_creation_date              2012-10-26T17:13:01-0400
_audit_creation_method            fapswitch 2.2
_symmetry_space_group_name_H-M    P1
_symmetry_Int_Tables_number       1
_space_group_crystal_system       triclinic
_cell_length_a                    16.851873
_cell_length_b                    16.851885
_cell_length_c                    16.851888
_cell_angle_alpha                 67.544372
_cell_angle_beta                  67.544409
_cell_angle_gamma                 67.54442
_cell_volume                      3928.23886754

loop_
_atom_site_label
_atom_site_type_symbol
_atom_type_description
_atom_site_fract_x
_atom_site_fract_y
_atom_site_fract_z
_atom_type_partial_charge
C1    C     C_R   0.312229 0.998994 0.437119 -0.010728
C2    C     C_R   0.320615 0.452338 0.960381 -0.018286
C3    C     C_R   0.536979 0.413003 0.999954 -0.009614
C4    C     C_R   0.009064 0.455602 0.588778 -0.017015
C5    C     C_R   0.999954 0.536979 0.413003 -0.009614
C6    C     C_3   0.535442 0.827895 0.809297 -0.103003
C7    C     C_3   0.596374 0.801664 0.274896 -0.114218
C8    C     C_3   0.827895 0.809298 0.535444 -0.103002
C9    C     C_3   0.801664 0.274895 0.596374 -0.114217
C10   C     C_3   0.809296 0.535443 0.827894 -0.103005
C11   C     C_3   0.274896 0.596374 0.801663 -0.114218
C12   C     C_3   0.190704 0.172106 0.464557 -0.103005
C13   C     C_R   0.001006 0.687771 0.562880 -0.010728
C14   C     C_3   0.725104 0.198336 0.403626 -0.114217
C15   C     C_3   0.464558 0.190703 0.172105 -0.103005
C16   C     C_3   0.403626 0.725104 0.198336 -0.114218
C17   C     C_3   0.172105 0.464558 0.190704 -0.103005
C18   C     C_3   0.198336 0.403626 0.725104 -0.114217
C19   C     C_R   0.960381 0.320615 0.452338 -0.018286
C20   C     C_R   0.454697 0.990782 0.450271 -0.035788
C21   C     C_R   0.549729 0.009218 0.545303 -0.035788
C22   C     C_R   0.990782 0.450271 0.454697 -0.035788
C23   C     C_R   0.009217 0.545303 0.549729 -0.035788
C24   C     C_R   0.450271 0.454697 0.990782 -0.035788
C25   C     C_R   0.545303 0.549729 0.009217 -0.035788
C26   C     C_R   0.016208 0.830670 0.568892 0.552413
C27   C     C_R   0.679384 0.039619 0.547662 -0.018286
C28   C     C_R   0.972752 0.171409 0.435226 0.550115
C29   C     C_R   0.830670 0.568892 0.016208 0.552416
C30   C     C_R   0.171409 0.435226 0.972752 0.550115
C31   C     C_R   0.568892 0.016208 0.830670 0.552415
C32   C     C_R   0.435226 0.972752 0.171409 0.550115
C33   C     C_R   0.431108 0.169330 0.983792 0.552415
C34   C     C_R   0.564774 0.828591 0.027248 0.550115
C35   C     C_R   0.983792 0.431108 0.169330 0.552415
C36   C     C_R   0.027248 0.564774 0.828591 0.550116
C37   C     C_R   0.169330 0.983792 0.431108 0.552415
C38   C     C_R   0.998993 0.437120 0.312229 -0.010727
C39   C     C_R   0.828591 0.027248 0.564774 0.550114
C40   C     C_R   0.406407 0.982384 0.402822 -0.070621
C41   C     C_R   0.597178 0.017616 0.593593 -0.070621
C42   C     C_R   0.982384 0.402822 0.406407 -0.070621
C43   C     C_R   0.017615 0.593593 0.597178 -0.070621
C44   C     C_R   0.402822 0.406407 0.982384 -0.070621
C45   C     C_R   0.593593 0.597178 0.017616 -0.070621
C46   C     C_R   0.264542 0.984576 0.391905 -0.031212
C47   C     C_R   0.730945 0.037455 0.599659 -0.039824
C48   C     C_R   0.984576 0.391905 0.264542 -0.031212
C49   C     C_R   0.039618 0.547662 0.679384 -0.018286
C50   C     C_R   0.037455 0.599659 0.730945 -0.039823
C51   C     C_R   0.391905 0.264542 0.984576 -0.031212
C52   C     C_R   0.599659 0.730945 0.037455 -0.039823
C53   C     C_R   0.608095 0.015424 0.735458 -0.031212
C54   C     C_R   0.400340 0.962545 0.269055 -0.039823
C55   C     C_R   0.735458 0.608095 0.015423 -0.031212
C56   C     C_R   0.269055 0.400340 0.962545 -0.039823
C57   C     C_R   0.015424 0.735458 0.608095 -0.031213
C58   C     C_R   0.962545 0.269055 0.400341 -0.039823
C59   C     C_R   0.483819 0.970849 0.729570 0.284473
C60   C     C_R   0.437120 0.312229 0.998993 -0.010727
C61   C     C_R   0.548198 0.941782 0.292316 0.288013
C62   C     C_R   0.970849 0.729570 0.483820 0.284473
C63   C     C_R   0.941782 0.292316 0.548198 0.288013
C64   C     C_R   0.729570 0.483820 0.970849 0.284473
C65   C     C_R   0.292316 0.548198 0.941782 0.288013
C66   C     C_R   0.270430 0.029151 0.516180 0.284473
C67   C     C_R   0.707684 0.058218 0.451802 0.288013
C68   C     C_R   0.516180 0.270430 0.029151 0.284473
C69   C     C_R   0.451802 0.707684 0.058218 0.288013
C70   C     C_R   0.029151 0.516180 0.270430 0.284473
C71   C     C_R   0.547662 0.679384 0.039618 -0.018286
C72   C     C_R   0.058218 0.451802 0.707684 0.288013
C73   C     C_R   0.309165 0.968900 0.308008 -0.194623
C74   C     C_R   0.691992 0.031100 0.690835 -0.194624
C75   C     C_R   0.968900 0.308008 0.309165 -0.194624
C76   C     C_R   0.031100 0.690835 0.691992 -0.194623
C77   C     C_R   0.308008 0.309165 0.968900 -0.194623
C78   C     C_R   0.690835 0.691992 0.031100 -0.194623
C79   C     C_R   0.671254 0.027630 0.410107 0.024800
C80   C     C_R   0.321163 0.011249 0.573152 0.030477
C81   C     C_R   0.027630 0.410107 0.671254 0.024800
C82   C     C_R   0.562880 0.001007 0.687771 -0.010728
C83   C     C_R   0.011249 0.573152 0.321163 0.030477
C84   C     C_R   0.410107 0.671254 0.027630 0.024800
C85   C     C_R   0.573152 0.321163 0.011248 0.030477
C86   C     C_R   0.589893 0.972370 0.328746 0.024800
C87   C     C_R   0.426848 0.988752 0.678837 0.030477
C88   C     C_R   0.328746 0.589893 0.972370 0.024800
C89   C     C_R   0.678837 0.426848 0.988751 0.030477
C90   C     C_R   0.972370 0.328746 0.589893 0.024801
C91   C     C_R   0.988751 0.678837 0.426848 0.030478
C92   C     C_R   0.714251 0.016485 0.323606 -0.121316
C93   C     C_R   0.452338 0.960381 0.320615 -0.018286
C94   C     C_R   0.282069 0.009143 0.663811 -0.126780
C95   C     C_R   0.016485 0.323606 0.714251 -0.121316
C96   C     C_R   0.009142 0.663811 0.282069 -0.126780
C97   C     C_R   0.323606 0.714251 0.016485 -0.121316
C98   C     C_R   0.663811 0.282069 0.009142 -0.126780
C99   C     C_R   0.676394 0.983515 0.285749 -0.121316
C100  C     C_R   0.336188 0.990858 0.717931 -0.126779
C101  C     C_R   0.285749 0.676394 0.983514 -0.121316
C102  C     C_R   0.717931 0.336189 0.990857 -0.126780
C103  C     C_R   0.983515 0.285749 0.676394 -0.121316
C104  C     C_R   0.687771 0.562881 0.001006 -0.010728
C105  C     C_R   0.990857 0.717931 0.336189 -0.126779
C106  C     C_R   0.544398 0.990935 0.411222 -0.017015
C107  C     C_R   0.463021 0.000046 0.586997 -0.009614
C108  C     C_R   0.990935 0.411222 0.544398 -0.017015
C109  C     C_R   0.000046 0.586997 0.463021 -0.009614
C110  C     C_R   0.411222 0.544397 0.990935 -0.017015
C111  C     C_R   0.586997 0.463021 0.000046 -0.009614
C112  C     C_R   0.588778 0.009065 0.455602 -0.017015
C113  C     C_R   0.413003 0.999954 0.536979 -0.009614
C114  C     C_R   0.455602 0.588778 0.009064 -0.017015
Cu1   Cu    Cu3+1 0.995180 0.995180 0.424630 1.018698
Cu2   Cu    Cu3+1 0.004820 0.004820 0.575370 1.018698
Cu3   Cu    Cu3+1 0.995180 0.424630 0.995180 1.018698
Cu4   Cu    Cu3+1 0.004820 0.575370 0.004820 1.018698
Cu5   Cu    Cu3+1 0.424630 0.995180 0.995180 1.018698
Cu6   Cu    Cu3+1 0.575370 0.004820 0.004820 1.018698
H1    H     H_    0.271419 0.964703 0.270867 0.161798
H2    H     H_    0.971221 0.221034 0.712789 0.156163
H3    H     H_    0.788918 0.306416 0.983438 0.146627
H4    H     H_    0.221034 0.712788 0.971221 0.156163
H5    H     H_    0.211082 0.016562 0.693584 0.146627
H6    H     H_    0.778966 0.028778 0.287212 0.156163
H7    H     H_    0.693584 0.211083 0.016561 0.146627
H8    H     H_    0.287211 0.778966 0.028778 0.156163
H9    H     H_    0.016562 0.693584 0.211082 0.146627
H10   H     H_    0.028778 0.287211 0.778966 0.156163
H11   H     H_    0.600318 0.831274 0.808570 0.107660
H12   H     H_    0.729133 0.035297 0.728581 0.161798
H13   H     H_    0.543795 0.806690 0.750827 0.096535
H14   H     H_    0.514356 0.775471 0.869847 0.146047
H15   H     H_    0.529562 0.797357 0.282435 0.099648
H16   H     H_    0.611345 0.773764 0.340746 0.106804
H17   H     H_    0.646487 0.759369 0.231139 0.138656
H18   H     H_    0.775470 0.869846 0.514357 0.146046
H19   H     H_    0.831275 0.808576 0.600317 0.107662
H20   H     H_    0.806690 0.750826 0.543802 0.096532
H21   H     H_    0.797357 0.282434 0.529562 0.099648
H22   H     H_    0.773764 0.340745 0.611344 0.106804
H23   H     H_    0.964703 0.270867 0.271419 0.161799
H24   H     H_    0.759369 0.231139 0.646487 0.138655
H25   H     H_    0.808567 0.600319 0.831273 0.107660
H26   H     H_    0.750827 0.543794 0.806689 0.096536
H27   H     H_    0.869847 0.514358 0.775470 0.146047
H28   H     H_    0.282434 0.529562 0.797356 0.099648
H29   H     H_    0.340746 0.611344 0.773764 0.106804
H30   H     H_    0.231139 0.646487 0.759369 0.138656
H31   H     H_    0.191432 0.168727 0.399681 0.107660
H32   H     H_    0.249172 0.193311 0.456206 0.096536
H33   H     H_    0.130153 0.224530 0.485642 0.146047
H34   H     H_    0.035297 0.728581 0.729133 0.161799
H35   H     H_    0.717565 0.202644 0.470438 0.099648
H36   H     H_    0.659254 0.226236 0.388655 0.106804
H37   H     H_    0.768860 0.240631 0.353513 0.138655
H38   H     H_    0.399682 0.191432 0.168727 0.107660
H39   H     H_    0.456207 0.249172 0.193310 0.096536
H40   H     H_    0.485643 0.130153 0.224529 0.146047
H41   H     H_    0.470438 0.717565 0.202643 0.099648
H42   H     H_    0.388655 0.659254 0.226236 0.106804
H43   H     H_    0.353513 0.768861 0.240631 0.138656
H44   H     H_    0.168727 0.399682 0.191433 0.107660
H45   H     H_    0.270866 0.271419 0.964703 0.161798
H46   H     H_    0.193311 0.456208 0.249172 0.096537
H47   H     H_    0.224529 0.485643 0.130153 0.146047
H48   H     H_    0.202643 0.470438 0.717566 0.099648
H49   H     H_    0.226236 0.388656 0.659254 0.106804
H50   H     H_    0.240631 0.353513 0.768861 0.138655
H51   H     H_    0.728581 0.729133 0.035297 0.161798
H52   H     H_    0.306415 0.983439 0.788917 0.146627
H53   H     H_    0.712789 0.971221 0.221034 0.156163
H54   H     H_    0.983438 0.788918 0.306416 0.146627
O1    O     O_R   0.124540 0.978640 0.385460 -0.529858
O2    O     O_R   0.124540 0.385460 0.978640 -0.516883
O3    O     O_R   0.021360 0.875460 0.614540 -0.529858
O4    O     O_R   0.978640 0.124540 0.385460 -0.516882
O5    O     O_R   0.013780 0.867370 0.487190 -0.453234
O6    O     O_R   0.986220 0.132630 0.512810 -0.430531
O7    O     O_R   0.867370 0.487190 0.013780 -0.453234
O8    O     O_R   0.132630 0.512810 0.986220 -0.430532
O9    O     O_R   0.487190 0.013780 0.867370 -0.453234
O10   O     O_R   0.512810 0.986220 0.132630 -0.430531
O11   O     O_R   0.512810 0.132630 0.986220 -0.453234
O12   O     O_R   0.875460 0.021360 0.614540 -0.516883
O13   O     O_R   0.487190 0.867370 0.013780 -0.430532
O14   O     O_R   0.986220 0.512810 0.132630 -0.453234
O15   O     O_R   0.013780 0.487190 0.867370 -0.430531
O16   O     O_R   0.132630 0.986220 0.512810 -0.453234
O17   O     O_R   0.867370 0.013780 0.487190 -0.430532
O18   O     O_3   0.469354 0.909970 0.813160 -0.541155
O19   O     O_3   0.603060 0.890029 0.234115 -0.544241
O20   O     O_3   0.909970 0.813161 0.469355 -0.541155
O21   O     O_3   0.890029 0.234115 0.603060 -0.544241
O22   O     O_3   0.813160 0.469355 0.909969 -0.541155
O23   O     O_R   0.978640 0.385460 0.124540 -0.529858
O24   O     O_3   0.234115 0.603060 0.890029 -0.544241
O25   O     O_3   0.186839 0.090030 0.530644 -0.541155
O26   O     O_3   0.765885 0.109971 0.396940 -0.544240
O27   O     O_3   0.530645 0.186839 0.090030 -0.541155
O28   O     O_3   0.396940 0.765885 0.109971 -0.544241
O29   O     O_3   0.090030 0.530645 0.186839 -0.541155
O30   O     O_3   0.109971 0.396940 0.765885 -0.544241
O31   O     O_R   0.021360 0.614540 0.875460 -0.516883
O32   O     O_R   0.385460 0.124540 0.978640 -0.529858
O33   O     O_R   0.614540 0.875460 0.021360 -0.516883
O34   O     O_R   0.614540 0.021360 0.875460 -0.529858
O35   O     O_R   0.385460 0.978640 0.124540 -0.516883
O36   O     O_R   0.875460 0.614540 0.021360 -0.529858

loop_
_geom_bond_atom_site_label_1
_geom_bond_atom_site_label_2
_ccdc_geom_bond_type
C15   H40   S    
C96   C105  A    
C38   C70   A    
C75   H23   S    
C74   H12   S    
C14   H35   S    
C3    C85   A    
C91   C105  A    
C53   C74   A    
C48   C75   A    
C59   C82   A    
C12   H33   S    
C2    C65   A    
Cu6   O11   S    
C88   C101  A    
C59   O18   S    
C36   C50   S    
C29   O36   A    
C22   C108  A    
C106  C112  A    
C26   O5    A    
C7    H15   S    
C4    C108  A    
C52   C71   A    
C29   O7    A    
C79   C112  A    
C8    H19   S    
C84   C97   A    
C57   C76   A    
C17   H44   S    
C38   C42   A    
C6    H13   S    
C10   O22   S    
C17   H46   S    
C34   O33   A    
C20   C113  A    
C81   C95   A    
C61   C93   A    
C11   H28   S    
C26   O3    A    
C100  H52   S    
C41   C82   A    
C61   O19   S    
C77   H45   S    
Cu1   Cu2   S    
C23   C43   A    
C8    H18   S    
C32   C54   S    
C69   C71   A    
C12   H32   S    
C107  C113  A    
C54   C93   A    
Cu1   O1    S    
C85   C98   A    
C1    C40   A    
C39   O12   A    
Cu1   O17   S    
C11   H29   S    
C5    C22   A    
C19   C63   A    
C35   O14   A    
C49   C72   A    
C95   H10   S    
C8    O20   S    
C7    O19   S    
C110  C114  A    
C38   C48   A    
C66   O25   S    
C19   C42   A    
C10   H27   S    
C72   O30   S    
C88   C110  A    
C18   H50   S    
C37   O16   A    
C69   O28   S    
C16   H43   S    
Cu2   O3    S    
C68   C85   A    
C30   O8    A    
C12   H31   S    
C3    C24   A    
C86   C106  A    
C64   C89   A    
C97   H8    S    
C52   C78   A    
C35   C48   S    
C30   O2    A    
C15   O27   S    
C9    H24   S    
C95   C103  A    
C58   C75   A    
C20   C106  A    
Cu4   O8    S    
C19   C58   A    
C23   C109  A    
C33   O32   A    
Cu5   O35   S    
C101  H4    S    
C4    C81   A    
C14   H37   S    
C36   O15   A    
Cu6   O34   S    
Cu4   O31   S    
C24   C110  A    
C94   H5    S    
C15   H38   S    
C67   O26   S    
C17   H47   S    
C2    C44   A    
C7    H17   S    
C4    C23   A    
Cu4   O14   S    
C43   C49   A    
C29   C55   S    
C16   H42   S    
C98   C102  A    
Cu2   O12   S    
C55   C104  A    
C56   C77   A    
C53   C82   A    
C16   O28   S    
C51   C77   A    
C15   H39   S    
C86   C99   A    
C45   C104  A    
C50   C76   A    
C37   O1    A    
C54   C73   A    
C39   O17   A    
C27   C41   A    
C11   H30   S    
C99   H53   S    
C40   C93   A    
C94   C100  A    
Cu5   Cu6   S    
C97   C101  A    
C62   C91   A    
C89   C102  A    
C1    C66   A    
C67   C79   A    
Cu5   O32   S    
Cu5   O9    S    
C31   C53   S    
C70   C83   A    
C28   O6    A    
C79   C92   A    
C21   C107  A    
Cu3   O15   S    
C10   H26   S    
C21   C41   A    
C13   C62   A    
Cu3   O2    S    
C98   H7    S    
C73   H1    S    
C105  H54   S    
Cu2   O6    S    
C24   C44   A    
C63   O21   S    
C18   H48   S    
C62   O20   S    
C80   C94   A    
C102  H3    S    
C25   C45   A    
C13   C43   A    
C21   C112  A    
Cu3   O23   S    
C45   C71   A    
C35   O23   A    
C65   C88   A    
C39   C47   S    
C87   C100  A    
C18   H49   S    
C27   C47   A    
C70   O29   S    
C55   C78   A    
Cu2   O16   S    
C84   C114  A    
C14   H36   S    
C68   O27   S    
Cu6   O33   S    
C32   O10   A    
C64   C104  A    
C72   C81   A    
C47   C74   A    
C6    H11   S    
C87   C107  A    
C92   H6    S    
C18   O30   S    
C9    H22   S    
C9    O21   S    
C5    C83   A    
C30   C56   S    
C28   C58   S    
C16   H41   S    
C33   C51   S    
C66   C80   A    
C89   C111  A    
C34   C52   S    
C8    H20   S    
Cu4   O36   S    
C91   C109  A    
C11   O24   S    
C90   C108  A    
C7    H16   S    
C6    H14   S    
C69   C84   A    
C2    C56   A    
C25   C114  A    
C32   O35   A    
C22   C42   A    
C14   O26   S    
C44   C60   A    
C20   C40   A    
C83   C96   A    
C64   O22   S    
C63   C90   A    
C76   H34   S    
C78   H51   S    
C12   O25   S    
Cu3   O7    S    
C31   O9    A    
C36   O31   A    
C34   O13   A    
C1    C46   A    
C26   C57   S    
C59   C87   A    
C90   C103  A    
Cu1   O4    S    
C9    H21   S    
C61   C86   A    
C25   C111  A    
C10   H25   S    
C3    C111  A    
C65   O24   S    
C17   O29   S    
C31   O34   A    
C13   C57   A    
C80   C113  A    
C60   C68   A    
C49   C50   A    
C6    O18   S    
C27   C67   A    
Cu6   O10   S    
C33   O11   A    
C51   C60   A    
C5    C109  A    
Cu5   O13   S    
C37   C46   S    
Cu3   Cu4   S    
C103  H2    S    
C28   O4    A    
C46   C73   A    
Cu1   O5    S    
C92   C99   A    
C96   H9    S    
