data_mof_unit_44789.cif
_audit_creation_date              2013-03-05T16:06:19-0500
_audit_creation_method            fapswitch 2.2
_symmetry_space_group_name_H-M    P1
_symmetry_Int_Tables_number       1
_space_group_crystal_system       triclinic
_cell_length_a                    10.758404
_cell_length_b                    9.502474
_cell_length_c                    27.825142
_cell_angle_alpha                 89.565895
_cell_angle_beta                  90.102243
_cell_angle_gamma                 90.095722
_cell_volume                      2844.51465174

loop_
_atom_site_label
_atom_site_type_symbol
_atom_site_description
_atom_site_fract_x
_atom_site_fract_y
_atom_site_fract_z
_atom_type_partial_charge
O1    O     O_R   0.319640 0.618740 0.500000 -0.577046
O2    O     O_R   0.680360 0.381260 0.500000 -0.578547
O3    O     O_R   0.680360 0.618740 0.500000 -0.579995
O4    O     O_R   0.319640 0.381260 0.500000 -0.582176
C1    C     C_R   0.262576 0.499852 0.500313 0.837567
C2    C     C_R   0.737395 0.500138 0.499827 0.840233
O5    O     O_R   0.500020 0.618770 0.430260 -0.588604
O6    O     O_R   0.499980 0.381230 0.569740 -0.578431
O7    O     O_R   0.499980 0.618770 0.569740 -0.587252
O8    O     O_R   0.500020 0.381230 0.430260 -0.578451
C3    C     C_R   0.499724 0.500516 0.407153 0.809580
C4    C     C_R   0.498545 0.499264 0.592692 0.807388
Cu1   Cu    Cu3+1 0.500000 0.640660 0.500000 0.941030
Cu2   Cu    Cu3+1 0.500000 0.359340 0.500000 0.935412
C5    C     C_R   0.409388 0.587477 0.177863 0.580199
C6    C     C_R   0.612121 0.488775 0.822409 0.576202
O9    O     O_2   0.304507 0.607870 0.203378 -0.497723
O10   O     O_2   0.714279 0.455048 0.796937 -0.504682
N1    N     N_R   0.516219 0.553078 0.201555 -0.450597
N2    N     N_R   0.505201 0.520902 0.798438 -0.445953
C7    C     C_R   0.626030 0.534594 0.177983 0.567854
C8    C     C_R   0.397693 0.551592 0.822036 0.570467
C9    C     C_R   0.488875 0.404360 0.273100 0.161134
C10   C     C_R   0.457401 0.392184 0.724682 0.165024
C11   C     C_R   0.483500 0.386443 0.323787 0.106749
C12   C     C_R   0.452267 0.383826 0.673870 0.087944
C13   C     C_R   0.528336 0.637252 0.332169 -0.273197
C14   C     C_R   0.542885 0.619686 0.669132 -0.254210
C15   C     C_R   0.533145 0.654528 0.282505 0.165038
C16   C     C_R   0.545271 0.628623 0.719145 0.162576
C17   C     C_R   0.513198 0.537567 0.252930 0.339677
C18   C     C_R   0.503537 0.513928 0.746851 0.331825
C19   C     C_R   0.519221 0.570433 0.101820 -0.125859
C20   C     C_R   0.506078 0.527403 0.898422 -0.126919
C21   C     C_R   0.408522 0.599296 0.127395 -0.009281
C22   C     C_R   0.615636 0.491546 0.873035 -0.007131
C23   C     C_R   0.302169 0.643025 0.101732 0.162059
C24   C     C_R   0.723198 0.453901 0.899106 0.161413
C25   C     C_R   0.631385 0.546693 0.127298 -0.086890
C26   C     C_R   0.393772 0.549939 0.872864 -0.083460
C27   C     C_R   0.503616 0.505630 0.353664 -0.118440
C28   C     C_R   0.497840 0.499036 0.645949 -0.115998
H1    H     H_    0.544713 0.729073 0.354194 0.185784
H2    H     H_    0.577177 0.707860 0.648034 0.168106
C29   C     C_R   0.397624 0.565967 0.975031 0.007692
C30   C     C_R   0.628740 0.541368 0.025101 0.008968
C31   C     C_R   0.622339 0.518500 0.974588 0.063005
C32   C     C_R   0.404170 0.587944 0.025623 0.062902
C33   C     C_R   0.508781 0.538922 0.949424 0.010017
C34   C     C_R   0.517375 0.565527 0.050726 0.011425
C35   C     C_R   0.283047 0.559045 0.949450 0.151208
C36   C     C_R   0.743016 0.549520 0.050807 0.149736
C37   C     C_R   0.281273 0.561183 0.899021 0.122422
C38   C     C_R   0.744496 0.542966 0.101244 0.121483
O11   O     O_2   0.295985 0.583952 0.795873 -0.559262
O12   O     O_2   0.728268 0.503004 0.203931 -0.551930
C39   C     C_R   0.303127 0.642078 0.051709 -0.220407
C40   C     C_R   0.723675 0.463325 0.948977 -0.221302
H3    H     H_    0.224335 0.689543 0.033986 0.167771
H4    H     H_    0.803627 0.419914 0.967119 0.167432
C41   C     C_R   0.065912 0.474598 0.456793 0.123313
C42   C     C_R   0.933938 0.525172 0.543419 0.122514
C43   C     C_R   0.935253 0.475455 0.456233 0.129589
C44   C     C_R   0.064628 0.524358 0.543971 0.129798
C45   C     C_R   0.871341 0.500493 0.499659 -0.108220
C46   C     C_R   0.128568 0.499462 0.500529 -0.107849
C47   C     C_R   0.421007 0.074931 0.470806 -0.015947
C48   C     C_R   0.578575 0.925028 0.529386 -0.012342
C49   C     C_R   0.578624 0.073988 0.529362 -0.022089
C50   C     C_R   0.421242 0.926011 0.470700 -0.014991
H5    H     H_    0.357369 0.131483 0.447613 0.117865
H6    H     H_    0.641417 0.868370 0.552927 0.115407
H7    H     H_    0.641479 0.129864 0.552888 0.122811
H8    H     H_    0.358227 0.870158 0.447230 0.124552
N3    N     N_R   0.500000 0.852070 0.500000 -0.158820
N4    N     N_R   0.500000 0.147930 0.500000 -0.158110
C51   C     C_3   0.559673 0.799387 0.262500 -0.814855
H9    H     H_    0.651259 0.836401 0.275897 0.233090
H10   H     H_    0.562043 0.802536 0.222687 0.231642
H11   H     H_    0.486698 0.873579 0.274619 0.227003
C52   C     C_3   0.591335 0.760883 0.742805 -0.817998
H12   H     H_    0.674299 0.737082 0.765165 0.251911
H13   H     H_    0.617705 0.842659 0.715948 0.220779
H14   H     H_    0.517232 0.804813 0.765989 0.237053
N5    N     N_3   0.193173 0.692437 0.125882 -0.513040
H15   H     H_    0.175904 0.795716 0.114509 0.209795
H16   H     H_    0.117995 0.630167 0.115182 0.237325
N6    N     N_3   0.832394 0.402358 0.875605 -0.511604
H17   H     H_    0.851419 0.301465 0.888934 0.212121
H18   H     H_    0.906918 0.467737 0.884732 0.232957
C53   C     C_3   0.396564 0.255460 0.649906 -0.811770
H19   H     H_    0.324194 0.288522 0.623664 0.240693
H20   H     H_    0.470610 0.195438 0.631426 0.242929
H21   H     H_    0.350598 0.181530 0.675117 0.216728
C54   C     C_3   0.455182 0.243145 0.345401 -0.835331
H22   H     H_    0.535915 0.205805 0.366834 0.250742
H23   H     H_    0.371347 0.250077 0.368376 0.229805
H24   H     H_    0.435651 0.160573 0.318629 0.213203
N7    N     N_3   0.416922 0.278272 0.755017 -0.583561
H25   H     H_    0.321739 0.262185 0.749806 0.236140
H26   H     H_    0.465902 0.187330 0.745966 0.228732
N8    N     N_3   0.469821 0.289109 0.240864 -0.580586
H27   H     H_    0.535859 0.211192 0.248141 0.231963
H28   H     H_    0.380375 0.248646 0.245977 0.232765
N9    N     N_3   0.161774 0.564343 0.875945 -0.603074
H29   H     H_    0.151913 0.476402 0.853903 0.264043
H30   H     H_    0.152511 0.657787 0.856246 0.272659
N10   N     N_3   0.863698 0.541544 0.124539 -0.602085
H31   H     H_    0.875655 0.445948 0.142742 0.275345
H32   H     H_    0.870175 0.626453 0.148091 0.262367
N11   N     N_3   0.168038 0.532944 0.974193 -0.609695
H33   H     H_    0.104943 0.612588 0.965204 0.237768
H34   H     H_    0.131528 0.436967 0.962545 0.235718
N12   N     N_3   0.857406 0.580581 0.026290 -0.609347
H35   H     H_    0.891714 0.676663 0.038778 0.235490
H36   H     H_    0.922269 0.502267 0.034723 0.237365
C55   C     C_3   0.141433 0.448597 0.411471 -0.831228
H37   H     H_    0.198694 0.352556 0.416434 0.221574
H38   H     H_    0.085662 0.432979 0.378543 0.245681
H39   H     H_    0.203821 0.539690 0.404479 0.220354
C56   C     C_3   0.858327 0.550332 0.588807 -0.830574
H40   H     H_    0.800174 0.645857 0.584052 0.223781
H41   H     H_    0.796637 0.458594 0.595748 0.219553
H42   H     H_    0.914155 0.566135 0.621711 0.246492
C57   C     C_3   0.865448 0.451450 0.409427 -0.813710
H43   H     H_    0.763178 0.456109 0.412746 0.216789
H44   H     H_    0.891707 0.533751 0.382766 0.237820
H45   H     H_    0.888224 0.345737 0.395201 0.236580
C58   C     C_3   0.134418 0.548001 0.590791 -0.820522
H46   H     H_    0.236670 0.543659 0.587420 0.215633
H47   H     H_    0.111475 0.653494 0.605158 0.241163
H48   H     H_    0.108357 0.465334 0.617350 0.234368

loop_
_geom_bond_atom_site_label_1
_geom_bond_atom_site_label_2
_geom_bond_distance
_ccdc_geom_bond_type
C43   C45   1.413259 A    
C13   C15   1.391422 A    
C10   N7    1.435154 S    
N11   H33   1.046103 S    
O3    C2    1.284172 A    
N1    C17   1.436420 S    
C52   H12   1.109714 S    
C54   H24   1.105668 S    
C32   C39   1.408367 A    
C31   C33   1.419904 A    
C51   H9    1.110422 S    
C48   N3    1.366740 A    
C5    N1    1.362961 A    
N9    H30   1.044773 S    
C19   C25   1.415996 A    
O1    C1    1.284843 A    
C23   N5    1.434045 S    
C6    N2    1.362582 A    
N1    C7    1.364531 A    
C10   C12   1.417654 A    
C55   H38   1.105131 S    
C39   H3    1.077771 S    
C9    N8    1.435071 S    
C29   C35   1.423998 A    
C40   H4    1.077647 S    
C30   C36   1.423555 A    
N10   H31   1.044729 S    
C49   N4    1.366563 A    
C14   C28   1.404842 A    
C41   C43   1.405775 A    
O7    Cu1   1.950075 S    
C56   H42   1.105169 S    
C4    C28   1.481905 S    
C24   C40   1.391247 A    
C41   C46   1.411411 A    
C2    C45   1.441050 S    
C54   H22   1.109911 S    
C48   C49   1.415479 A    
C50   H8    1.081773 S    
C57   H45   1.110401 S    
C42   C44   1.406107 A    
C49   H7    1.081763 S    
C47   H5    1.080915 S    
O3    Cu1   1.951880 S    
O6    C4    1.295020 A    
C58   H48   1.110426 S    
C32   C34   1.418495 A    
Cu1   Cu2   2.673236 S    
O2    C2    1.284614 A    
Cu2   N4    2.008919 S    
C5    C21   1.407922 A    
C52   H13   1.110863 S    
C36   C38   1.404398 A    
N12   H35   1.045849 S    
C51   H10   1.108331 S    
N5    H16   1.045542 S    
C41   C55   1.523350 S    
Cu1   N3    2.008918 S    
O8    Cu2   1.950075 S    
C55   H39   1.110686 S    
C11   C27   1.426006 A    
C53   H19   1.110584 S    
O4    C1    1.284285 A    
O6    Cu2   1.953209 S    
C12   C53   1.516617 S    
N5    H15   1.045717 S    
C14   H2    1.084011 S    
C24   N6    1.434259 S    
C35   C37   1.403270 A    
C44   C46   1.413549 A    
O5    C3    1.298870 A    
C10   C18   1.404636 A    
C37   N9    1.436273 S    
C53   H20   1.109831 S    
C13   C27   1.407443 A    
N7    H25   1.045126 S    
C7    C25   1.415384 A    
C29   C33   1.417990 A    
C48   H6    1.081825 S    
C8    C26   1.414971 A    
N11   H34   1.045908 S    
C44   C58   1.520476 S    
N8    H28   1.045237 S    
C56   H40   1.110254 S    
C43   C57   1.520753 S    
N7    H26   1.045548 S    
N6    H18   1.045603 S    
C11   C54   1.515115 S    
C57   H43   1.105281 S    
C20   C26   1.416654 A    
O1    Cu1   1.951188 S    
C52   H14   1.110411 S    
C12   C28   1.424497 A    
C58   H46   1.105088 S    
N2    C18   1.437508 S    
C29   C32   1.426299 A    
C5    O9    1.349240 S    
C30   C31   1.425385 A    
C20   C33   1.424430 A    
C35   N11   1.437323 S    
C42   C45   1.411409 A    
C21   C23   1.409219 A    
N2    C8    1.364072 A    
C1    C46   1.441734 S    
C7    O12   1.347671 S    
N12   H36   1.046097 S    
C54   H23   1.108773 S    
C8    O11   1.347850 S    
C36   N12   1.437264 S    
N9    H29   1.045464 S    
C30   C34   1.415275 A    
C38   N10   1.435928 S    
C47   C50   1.415139 A    
C16   C52   1.505929 S    
C22   C24   1.409887 A    
C19   C34   1.422931 A    
C15   C17   1.403902 A    
C55   H37   1.109559 S    
C6    C22   1.409540 A    
C31   C40   1.407697 A    
C16   C18   1.403802 A    
C51   H11   1.110648 S    
C14   C16   1.395043 A    
C19   C21   1.416706 A    
N10   H32   1.045451 S    
C3    C27   1.489417 S    
C20   C22   1.418562 A    
C9    C11   1.420605 A    
O4    Cu2   1.951880 S    
N8    H27   1.045431 S    
O2    Cu2   1.951188 S    
O7    C4    1.298731 A    
C56   H41   1.110712 S    
O8    C3    1.298928 A    
C25   C38   1.418214 A    
C13   H1    1.084040 S    
O5    Cu1   1.953209 S    
C15   C51   1.507895 S    
N6    H17   1.045749 S    
C6    O10   1.349220 S    
C26   C37   1.418015 A    
C50   N3    1.366429 A    
C57   H44   1.110392 S    
C47   N4    1.366528 A    
C58   H47   1.110356 S    
C42   C56   1.524033 S    
C23   C39   1.392062 A    
C9    C17   1.405113 A    
C53   H21   1.105799 S    
