data_mof_unit_56377.cif
_audit_creation_date              2012-12-11T17:25:06-0500
_audit_creation_method            fapswitch 2.2
_symmetry_space_group_name_H-M    P1
_symmetry_Int_Tables_number       1
_space_group_crystal_system       triclinic
_cell_length_a                    6.95122
_cell_length_b                    20.549998
_cell_length_c                    24.46582
_cell_angle_alpha                 90.127083
_cell_angle_beta                  89.861593
_cell_angle_gamma                 88.890136
_cell_volume                      3494.2077924

loop_
_atom_site_label
_atom_site_type_symbol
_atom_type_description
_atom_site_fract_x
_atom_site_fract_y
_atom_site_fract_z
_atom_type_partial_charge
O1    O     O_R   0.507280 0.423750 0.460310 -0.536457
O2    O     O_R   0.171030 0.555650 0.437630 -0.537192
O3    O     O_R   0.004080 0.576250 0.539690 -0.536078
C1    C     C_R   0.339154 0.575675 0.421801 0.722917
O4    O     O_R   0.177330 0.422980 0.453960 -0.538467
O5    O     O_R   0.010420 0.442640 0.556140 -0.534348
C2    C     C_R   0.348174 0.399128 0.443243 0.721168
O6    O     O_R   0.500930 0.557360 0.443860 -0.534780
O7    O     O_3   0.340310 0.506600 0.533500 -0.367073
V1    V     V_3+5 0.064140 0.498780 0.493780 1.422187
O8    O     O_R   0.680890 0.444350 0.562370 -0.537772
C3    C     C_R   0.850482 0.424413 0.578192 0.726116
O9    O     O_R   0.674590 0.577020 0.546040 -0.538515
C4    C     C_R   0.841083 0.601101 0.556691 0.697136
V2    V     V_3+5 0.564550 0.501220 0.506220 1.423531
O10   O     O_3   0.838250 0.493400 0.466500 -0.366528
C5    C     C_R   0.985919 0.837930 0.910966 -0.044447
C6    C     C_R   0.838605 0.661740 0.589249 -0.052767
C7    C     C_R   0.124349 0.729989 0.898994 -0.134237
C8    C     C_R   0.088247 0.784349 0.931538 -0.182616
C9    C     C_R   0.915821 0.836080 0.857105 -0.188882
C10   C     C_R   0.953711 0.781299 0.822312 0.021541
C11   C     C_R   0.062516 0.728245 0.844323 0.032056
C12   C     C_R   0.892962 0.778183 0.766236 0.048726
C13   C     C_R   0.940257 0.721959 0.733472 -0.014325
C14   C     C_R   0.050455 0.671376 0.757381 -0.277396
C15   C     C_R   0.114386 0.674767 0.811239 0.433696
C16   C     C_R   0.787197 0.829588 0.741701 -0.168169
C17   C     C_R   0.730838 0.826769 0.687405 -0.203191
C18   C     C_R   0.773430 0.772246 0.655311 0.138394
C19   C     C_R   0.877469 0.718476 0.677572 0.111181
C20   C     C_R   0.708352 0.770890 0.601119 -0.165951
C21   C     C_R   0.738974 0.716006 0.568703 -0.162883
C22   C     C_R   0.909631 0.663113 0.643069 -0.221137
H1    H     H_    0.979948 0.619208 0.657333 0.102500
H2    H     H_    0.680741 0.715265 0.527661 0.112254
H3    H     H_    0.650257 0.867675 0.670488 0.125242
H4    H     H_    0.206604 0.689926 0.916519 0.161628
H5    H     H_    0.145484 0.785395 0.972692 0.112589
H6    H     H_    0.841282 0.879292 0.843076 0.096076
H7    H     H_    0.093841 0.628355 0.735040 0.146069
H8    H     H_    0.744955 0.873230 0.763331 0.121144
H9    H     H_    0.628744 0.811936 0.584130 0.118635
H10   H     H_    0.619474 0.213150 0.798571 0.111879
C23   C     C_R   0.729977 0.273805 0.734495 -0.148610
H11   H     H_    0.588164 0.291153 0.722485 0.113050
C24   C     C_R   0.893987 0.295578 0.706909 0.135994
C25   C     C_R   0.076067 0.272244 0.723359 -0.150936
H12   H     H_    0.204438 0.288384 0.702629 0.113020
C26   C     C_R   0.093913 0.227743 0.766690 -0.145097
H13   H     H_    0.235718 0.210353 0.778671 0.112629
C27   C     C_R   0.929898 0.205887 0.794209 0.136607
C28   C     C_R   0.747828 0.229315 0.777841 -0.157094
C29   C     C_1   0.875923 0.341394 0.661740 -0.054919
C30   C     C_1   0.947993 0.159655 0.839058 -0.054466
C31   C     C_1   0.961314 0.121195 0.876636 -0.185058
C32   C     C_1   0.862792 0.379413 0.623829 -0.189694
H14   H     H_    0.699276 0.702444 0.296214 0.112733
C33   C     C_R   0.596750 0.767477 0.233256 -0.153844
H15   H     H_    0.740644 0.780348 0.220736 0.111262
C34   C     C_R   0.435940 0.795016 0.206650 0.135773
C35   C     C_R   0.251133 0.777233 0.223849 -0.153118
H16   H     H_    0.124943 0.797768 0.203939 0.112846
C36   C     C_R   0.227469 0.732739 0.266899 -0.154053
H17   H     H_    0.083575 0.719865 0.279417 0.111156
C37   C     C_R   0.388278 0.705200 0.293505 0.135735
C38   C     C_R   0.573085 0.722983 0.276306 -0.153620
C39   C     C_1   0.459571 0.841017 0.161731 -0.057867
C40   C     C_1   0.364650 0.659186 0.338414 -0.058111
C41   C     C_1   0.349284 0.620971 0.376160 -0.191482
C42   C     C_1   0.474945 0.879208 0.123968 -0.189394
C43   C     C_R   0.460542 0.163223 0.086955 -0.211112
C44   C     C_R   0.365968 0.338366 0.411279 -0.108444
C45   C     C_R   0.371577 0.278189 0.089347 0.395751
C46   C     C_R   0.411186 0.221208 0.059371 0.381122
C47   C     C_R   0.474265 0.163159 0.144223 -0.298882
C48   C     C_R   0.431418 0.219956 0.175760 0.039339
C49   C     C_R   0.376944 0.277453 0.147163 -0.036163
C50   C     C_R   0.435884 0.221247 0.234616 0.109698
C51   C     C_R   0.385492 0.279941 0.263725 0.086778
C52   C     C_R   0.328375 0.334958 0.233090 -0.201500
C53   C     C_R   0.324603 0.333626 0.176443 -0.152866
C54   C     C_R   0.488315 0.165743 0.265363 -0.206196
C55   C     C_R   0.492217 0.167111 0.322035 -0.177777
C56   C     C_R   0.447270 0.224025 0.351142 0.034240
C57   C     C_R   0.393072 0.281617 0.322503 0.027692
C58   C     C_R   0.460665 0.224168 0.408783 0.464336
C59   C     C_R   0.417555 0.281008 0.438209 -0.249948
C60   C     C_R   0.353044 0.338805 0.353999 -0.223975
H18   H     H_    0.278597 0.377603 0.155492 0.164853
H19   H     H_    0.317927 0.385013 0.335504 0.107794
H20   H     H_    0.428382 0.280626 0.482398 0.123876
H21   H     H_    0.534084 0.122789 0.343159 0.170919
H22   H     H_    0.510940 0.117124 0.162774 0.130731
H23   H     H_    0.283582 0.380307 0.251650 0.121735
H24   H     H_    0.528501 0.119872 0.246931 0.125911
O11   O     O_R   0.323320 0.942780 0.056240 -0.536324
O12   O     O_R   0.647300 0.077050 0.046060 -0.546369
O13   O     O_R   0.813840 0.057330 0.943840 -0.544718
C61   C     C_R   0.476658 0.101264 0.056427 0.765642
O14   O     O_R   0.653250 0.944380 0.062400 -0.537370
O15   O     O_R   0.819830 0.923720 0.960300 -0.537113
C62   C     C_R   0.485096 0.924448 0.078289 0.719282
O16   O     O_R   0.317330 0.076390 0.039790 -0.525479
O17   O     O_3   0.483830 0.993470 0.966560 -0.370972
V3    V     V_3+5 0.760140 0.001210 0.006210 1.414369
O18   O     O_R   0.149290 0.922840 0.953850 -0.539886
C63   C     C_R   0.982755 0.898772 0.943289 0.689992
O19   O     O_R   0.143340 0.055500 0.937510 -0.530113
C64   C     C_R   0.973755 0.075706 0.921900 0.734859
V4    V     V_3+5 0.259690 0.998600 0.993650 1.444575
O20   O     O_3   0.986130 0.006520 0.033440 -0.366009
O21   O     O_3   0.224144 0.623740 0.832116 -0.553304
C65   C     C_3   0.417356 0.632230 0.816222 -0.242564
H25   H     H_    0.473134 0.679494 0.831162 0.137000
H26   H     H_    0.434668 0.628500 0.771086 0.140948
H27   H     H_    0.506889 0.592907 0.834806 0.174413
O22   O     O_3   0.311570 0.333615 0.061687 -0.538801
C66   C     C_3   0.474560 0.370687 0.049226 -0.210120
H28   H     H_    0.571498 0.344608 0.020004 0.151055
H29   H     H_    0.555415 0.384127 0.086692 0.118217
H30   H     H_    0.425632 0.416541 0.029362 0.167175
O23   O     O_3   0.382576 0.222284 0.003304 -0.538602
C67   C     C_3   0.560380 0.215242 0.975514 -0.218249
H31   H     H_    0.582901 0.163912 0.962633 0.150601
H32   H     H_    0.686978 0.231642 0.999509 0.110730
H33   H     H_    0.553935 0.245087 0.937811 0.162846
O24   O     O_3   0.509742 0.167819 0.436742 -0.557470
C68   C     C_3   0.704340 0.171087 0.452550 -0.254427
H34   H     H_    0.726084 0.210425 0.483108 0.138386
H35   H     H_    0.800480 0.177896 0.416596 0.139473
H36   H     H_    0.746792 0.124339 0.472092 0.173518

loop_
_geom_bond_atom_site_label_1
_geom_bond_atom_site_label_2
_ccdc_geom_bond_type
C13   C19   A    
C50   C54   A    
C58   C59   A    
C4    C6    S    
O2    C1    A    
C7    C8    A    
C43   C47   A    
O24   C68   S    
C21   H2    S    
C1    C41   S    
C52   C53   A    
O23   C67   S    
C2    C44   S    
V3    O20   S    
C48   C49   A    
C14   C15   A    
C17   C18   A    
C46   O23   S    
C16   C17   A    
C68   H34   S    
O19   V4    S    
O5    C3    A    
C18   C19   A    
C52   H23   S    
C37   C40   S    
V2    O10   S    
C61   O16   A    
C5    C8    A    
C22   H1    S    
C23   C24   A    
C16   H8    S    
O22   C66   S    
C35   C36   A    
C33   C38   A    
O8    V2    S    
H10   C28   S    
C24   C25   A    
C26   C27   A    
O18   C63   A    
O15   C63   A    
O1    V2    S    
C11   C15   A    
C60   H19   S    
O7    V1    S    
C27   C30   S    
C1    O6    A    
C68   H36   S    
C47   H22   S    
C66   H29   S    
C37   C38   A    
O17   V4    S    
C23   C28   A    
C33   H15   S    
O14   C62   A    
O9    C4    A    
C34   C35   A    
C43   C46   A    
C31   C64   S    
C58   O24   S    
C65   H25   S    
C47   C48   A    
C48   C50   A    
C45   O22   S    
C33   C34   A    
C45   C46   A    
C56   C58   A    
C59   H20   S    
C12   C13   A    
C5    C63   S    
O4    C2    A    
C8    H5    S    
C13   C14   A    
C56   C57   A    
O13   C64   A    
C5    C9    A    
C36   C37   A    
C7    C11   A    
C44   C59   A    
C35   H16   S    
C7    H4    S    
C49   C53   A    
C54   C55   A    
C66   H28   S    
C30   C31   T    
C26   H13   S    
C19   C22   A    
C55   C56   A    
C6    C22   A    
O11   C62   A    
O3    C4    A    
C24   C29   S    
C3    C32   S    
C15   O21   S    
C25   H12   S    
O6    V2    S    
O12   C61   A    
C67   H33   S    
C10   C12   A    
O2    V1    S    
C27   C28   A    
C67   H32   S    
O21   C65   S    
C43   C61   S    
C66   H30   S    
O14   V3    S    
O13   V3    S    
C42   C62   S    
V4    O20   S    
O1    C2    A    
O18   V4    S    
C12   C16   A    
C51   C52   A    
C57   C60   A    
O12   V3    S    
O5    V1    S    
O16   V4    S    
C65   H26   S    
O8    C3    A    
O17   V3    S    
C51   C57   A    
C53   H18   S    
C20   C21   A    
O9    V2    S    
O7    V2    S    
C44   C60   A    
O4    V1    S    
O3    V1    S    
V1    O10   S    
O19   C64   A    
C36   H17   S    
C18   C20   A    
C34   C39   S    
C9    H6    S    
C39   C42   T    
O11   V4    S    
C54   H24   S    
C25   C26   A    
C20   H9    S    
O15   V3    S    
C55   H21   S    
C40   C41   T    
C6    C21   A    
C65   H27   S    
C50   C51   A    
C23   H11   S    
H14   C38   S    
C45   C49   A    
C17   H3    S    
C10   C11   A    
C9    C10   A    
C14   H7    S    
C67   H31   S    
C68   H35   S    
C29   C32   T    
