data_mof_unit_46596.cif
_audit_creation_date              2012-12-10T17:49:42-0500
_audit_creation_method            fapswitch 2.2
_symmetry_space_group_name_H-M    P1
_symmetry_Int_Tables_number       1
_space_group_crystal_system       triclinic
_cell_length_a                    10.636526
_cell_length_b                    10.745192
_cell_length_c                    10.015041
_cell_angle_alpha                 90.018393
_cell_angle_beta                  88.507842
_cell_angle_gamma                 95.761316
_cell_volume                      1138.46310988

loop_
_atom_site_label
_atom_site_type_symbol
_atom_type_description
_atom_site_fract_x
_atom_site_fract_y
_atom_site_fract_z
_atom_type_partial_charge
C1    C     C_R   0.514239 0.262035 0.500513 0.963295
C2    C     C_R   0.594495 0.067144 0.605088 0.016235
C3    C     C_R   0.533996 0.129958 0.500569 -0.148633
C4    C     C_R   0.257136 0.496563 0.501251 0.992032
C5    C     C_R   0.496712 0.062066 0.384313 0.031403
C6    C     C_R   0.463962 0.935693 0.396858 0.364061
C7    C     C_R   0.521615 0.872825 0.496403 -0.158075
C8    C     C_R   0.297215 0.370334 0.145163 0.138019
C9    C     C_R   0.180774 0.354955 0.087853 -0.285261
C10   C     C_R   0.172855 0.359629 0.951539 0.113731
C11   C     C_R   0.284296 0.380127 0.873282 0.477982
C12   C     C_3   0.956878 0.453221 0.379863 0.387877
C13   C     C_R   0.397431 0.438667 0.931517 0.003945
C14   C     C_R   0.400576 0.436066 0.075434 0.062852
C15   C     C_R   0.592777 0.565268 0.068566 0.423334
C16   C     C_R   0.503649 0.739465 0.499482 0.910401
C17   C     C_R   0.593902 0.563412 0.925481 0.101090
C18   C     C_R   0.742219 0.504949 0.497926 0.920102
C19   C     C_3   0.039886 0.546188 0.615226 0.422676
C20   C     C_3   0.943127 0.432141 0.594939 -0.040669
C21   C     C_3   0.876642 0.504422 0.492425 -0.156929
C22   C     C_3   0.974022 0.616736 0.508917 0.003988
C23   C     C_3   0.023975 0.379606 0.483801 0.286675
C24   C     C_3   0.055835 0.568546 0.394927 -0.293768
C25   C     C_3   0.121343 0.494993 0.502217 -0.273958
C26   C     C_R   0.658187 0.122385 0.718999 0.379999
C27   C     C_R   0.755442 0.063913 0.776142 -0.230680
C28   C     C_R   0.782595 0.946815 0.734302 0.414451
C29   C     C_R   0.703025 0.880838 0.645281 -0.218807
C30   C     C_R   0.605881 0.938801 0.583818 -0.049754
Cl1   Cl    Cl    0.910101 0.879913 0.803558 -0.506607
Cl2   Cl    Cl    0.350795 0.860854 0.288047 -0.565370
Cl3   Cl    Cl    0.710709 0.660321 0.151009 -0.529995
Cl4   Cl    Cl    0.282542 0.270744 0.743217 -0.492482
Cl5   Cl    Cl    0.091021 0.610860 0.770811 -0.512892
Cl6   Cl    Cl    0.890939 0.394718 0.227619 -0.575913
Cl7   Cl    Cl    0.048050 0.217809 0.476034 -0.564350
Cl8   Cl    Cl    0.603648 0.234911 0.827427 -0.581336
H1    H     H_    0.720621 0.786148 0.620469 0.182541
H2    H     H_    0.984226 0.351377 0.942693 0.235482
H3    H     H_    0.690425 0.727862 0.879801 0.232495
H4    H     H_    0.778764 0.604994 0.877956 0.258043
H5    H     H_    0.029831 0.802264 0.521616 0.274703
H6    H     H_    0.900634 0.767113 0.430990 0.222749
H7    H     H_    0.484593 0.053259 0.178201 0.251069
H8    H     H_    0.599729 0.152901 0.235847 0.234808
H9    H     H_    0.102209 0.308131 0.144538 0.230806
H10   H     H_    0.103946 0.625773 0.312714 0.247032
H11   H     H_    0.806938 0.107417 0.858765 0.196334
H12   H     H_    0.914880 0.277194 0.713183 0.251312
H13   H     H_    0.862993 0.409703 0.781491 0.242396
H14   H     H_    0.295598 0.194211 0.210196 0.227267
H15   H     H_    0.246969 0.291984 0.323928 0.237861
H16   H     H_    0.043433 0.213943 0.917193 0.236771
N1    N     N_R   0.498800 0.498800 0.142780 -0.128687
N2    N     N_R   0.498760 0.498720 0.857170 -0.087642
N3    N     N_3   0.869459 0.356554 0.694894 -0.394960
N4    N     N_3   0.314939 0.284400 0.248773 -0.342428
N5    N     N_3   0.057343 0.309446 0.894414 -0.406867
N6    N     N_3   0.692209 0.634654 0.851220 -0.370721
N7    N     N_3   0.944173 0.745525 0.519235 -0.379371
N8    N     N_3   0.505161 0.118798 0.253538 -0.388979
O1    O     O_R   0.500000 0.316780 0.614690 -0.517617
O2    O     O_R   0.499990 0.316750 0.385360 -0.600952
O3    O     O_R   0.313960 0.499980 0.614650 -0.567654
O4    O     O_R   0.313940 0.499960 0.385310 -0.623894
O5    O     O_R   0.500010 0.683250 0.614640 -0.614764
O6    O     O_R   0.500000 0.683220 0.385310 -0.550916
O7    O     O_R   0.686060 0.500040 0.614690 -0.600979
O8    O     O_R   0.686040 0.500020 0.385350 -0.550109
Zn1   Zn    Zn3+2 0.500010 0.500020 0.653130 1.067440
Zn2   Zn    Zn3+2 0.499990 0.499980 0.346870 1.068760

loop_
_geom_bond_atom_site_label_1
_geom_bond_atom_site_label_2
_ccdc_geom_bond_type
C18   O8    A    
C6    Cl2   S    
C18   C21   S    
C19   C20   S    
C4    C25   S    
C12   C23   S    
C26   C27   A    
H8    N8    S    
C28   C29   A    
C5    C6    A    
H7    N8    S    
O7    Zn1   S    
C8    N4    S    
O4    Zn2   S    
O3    Zn1   S    
C8    C9    A    
C16   O6    A    
C12   Cl6   S    
C9    C10   A    
N1    Zn2   S    
C13   N2    A    
C18   O7    A    
O2    Zn2   S    
C14   N1    A    
H2    N5    S    
C13   C14   A    
C1    O1    A    
H16   N5    S    
C11   Cl4   S    
C24   H10   S    
C19   C22   S    
C24   C25   S    
H4    N6    S    
C26   Cl8   S    
C23   Cl7   S    
C12   C21   S    
C1    C3    S    
C15   N1    A    
C29   C30   A    
C20   C23   S    
O6    Zn2   S    
N2    Zn1   S    
C29   H1    S    
C2    C26   A    
C16   O5    A    
C17   N2    A    
H14   N4    S    
H13   N3    S    
C7    C16   S    
O1    Zn1   S    
C9    H9    S    
C22   C24   S    
C1    O2    A    
H5    N7    S    
C15   C17   A    
C8    C14   A    
H12   N3    S    
C28   Cl1   S    
H3    N6    S    
C3    C5    A    
H15   N4    S    
C6    C7    A    
H6    N7    S    
C12   C24   S    
C2    C30   A    
C2    C3    A    
C19   Cl5   S    
C22   N7    S    
C4    O4    A    
C11   C13   A    
C4    O3    A    
C5    N8    S    
C10   N5    S    
O5    Zn1   S    
C23   C25   S    
C19   C25   S    
C10   C11   A    
C17   N6    S    
C20   C21   S    
C27   C28   A    
C7    C30   A    
O8    Zn2   S    
C20   N3    S    
C21   C22   S    
C15   Cl3   S    
C27   H11   S    
