data_mof_unit_45480.cif
_audit_creation_date              2012-12-10T18:43:05-0500
_audit_creation_method            fapswitch 2.2
_symmetry_space_group_name_H-M    P1
_symmetry_Int_Tables_number       1
_space_group_crystal_system       triclinic
_cell_length_a                    10.689179
_cell_length_b                    9.918723
_cell_length_c                    10.737905
_cell_angle_alpha                 89.963354
_cell_angle_beta                  91.283824
_cell_angle_gamma                 90.012463
_cell_volume                      1138.17892208

loop_
_atom_site_label
_atom_site_type_symbol
_atom_type_description
_atom_site_fract_x
_atom_site_fract_y
_atom_site_fract_z
_atom_type_partial_charge
C1    C     C_R   0.260420 0.499977 0.497067 0.933162
C2    C     C_R   0.739794 0.500295 0.497265 0.958199
C3    C     C_R   0.497157 0.499978 0.262722 0.938520
C4    C     C_R   0.502282 0.499912 0.737284 0.930236
C5    C     C_2   0.492050 0.387500 0.933150 -0.158461
C6    C     C_2   0.503486 0.387335 0.066851 -0.150896
C7    C     C_2   0.513781 0.499968 0.869164 -0.312487
C8    C     C_2   0.483903 0.500136 0.130947 -0.326650
C9    C     C_R   0.065526 0.395221 0.548841 -0.241526
C10   C     C_R   0.937738 0.395084 0.548029 -0.244999
C11   C     C_R   0.872496 0.501430 0.491826 -0.211936
C12   C     C_R   0.128069 0.499800 0.490250 -0.184052
C13   C     C_R   0.934480 0.608008 0.432275 0.410663
C14   C     C_R   0.063892 0.602874 0.425781 0.418108
C15   C     C_R   0.556775 0.069414 0.595697 0.006279
C16   C     C_R   0.442273 0.069729 0.404815 -0.002639
C17   C     C_R   0.555285 0.926578 0.594916 -0.125121
C18   C     C_R   0.444381 0.926807 0.405182 -0.066288
H1    H     H_    0.467305 0.293333 0.887440 0.202383
H2    H     H_    0.527561 0.292848 0.112392 0.204950
H3    H     H_    0.544201 0.593371 0.912807 0.162590
H4    H     H_    0.454000 0.593887 0.087498 0.154828
H5    H     H_    0.115492 0.314806 0.596954 0.191794
H6    H     H_    0.890410 0.313510 0.594192 0.232499
H7    H     H_    0.600427 0.870369 0.669821 0.167497
H8    H     H_    0.398747 0.870769 0.330489 0.175772
N1    N     N_R   0.500000 0.857200 0.500000 -0.101212
N2    N     N_R   0.500000 0.142810 0.500000 -0.153910
O1    O     O_R   0.316770 0.614620 0.499990 -0.583518
O2    O     O_R   0.683230 0.614620 0.500010 -0.597135
O3    O     O_R   0.316800 0.385290 0.500000 -0.588928
O4    O     O_R   0.683200 0.385290 0.500000 -0.589284
O5    O     O_R   0.500000 0.614630 0.319080 -0.615653
O6    O     O_R   0.500000 0.614630 0.680920 -0.631989
O7    O     O_R   0.500030 0.385300 0.319080 -0.613903
O8    O     O_R   0.499970 0.385300 0.680920 -0.604684
Zn1   Zn    Zn3+2 0.500000 0.653120 0.500000 0.987497
Zn2   Zn    Zn3+2 0.500000 0.346880 0.500000 1.003835
O9    O     O_3   0.868003 0.707982 0.369472 -0.589970
C19   C     C_3   0.875900 0.828770 0.438822 -0.180178
H9    H     H_    0.850576 0.813531 0.537949 0.133939
H10   H     H_    0.808243 0.902134 0.397917 0.180603
H11   H     H_    0.970581 0.874311 0.433719 0.192921
O10   O     O_3   0.127132 0.700711 0.360099 -0.601423
C20   C     C_3   0.144863 0.653252 0.238014 -0.243169
H12   H     H_    0.201803 0.559280 0.237746 0.146260
H13   H     H_    0.196878 0.730902 0.185737 0.187780
H14   H     H_    0.053703 0.636533 0.188267 0.182936
C21   C     C_2   0.621261 0.132489 0.703581 0.903970
O11   O     O_2   0.696132 0.223354 0.689009 -0.626995
O12   O     O_R   0.603552 0.079829 0.822774 -0.829416
H15   H     H_    0.655791 0.127745 0.889159 0.345304
C22   C     C_2   0.373885 0.133365 0.299409 0.917518
O13   O     O_2   0.296500 0.221080 0.317343 -0.600407
O14   O     O_R   0.390218 0.083812 0.178951 -0.835808
H16   H     H_    0.335200 0.131399 0.114555 0.342595

loop_
_geom_bond_atom_site_label_1
_geom_bond_atom_site_label_2
_ccdc_geom_bond_type
C16   N2    A    
C8    H4    S    
O14   H16   S    
C4    O8    A    
C15   C17   A    
C5    H1    S    
O4    Zn2   S    
O6    Zn1   S    
C6    H2    S    
C9    C10   A    
C22   O14   S    
C18   H8    S    
O3    Zn2   S    
N2    Zn2   S    
C2    O2    A    
C17   H7    S    
C19   H10   S    
C22   O13   D    
C15   C21   S    
C11   C13   A    
C15   N2    A    
C1    C12   S    
N1    Zn1   S    
C4    C7    S    
C2    C11   S    
C2    O4    A    
C1    O1    A    
C19   H9    S    
C12   C14   A    
C3    C8    S    
C14   O10   S    
C20   H13   S    
C5    C6    S    
C9    C12   A    
C4    O6    A    
C13   O9    S    
C10   C11   A    
C3    O5    A    
C3    O7    A    
O8    Zn2   S    
C17   N1    A    
C20   H12   S    
C1    O3    A    
O7    Zn2   S    
O10   C20   S    
C16   C18   A    
C21   O11   D    
C20   H14   S    
O1    Zn1   S    
O9    C19   S    
C5    C7    D    
C16   C22   S    
C9    H5    S    
C6    C8    D    
C13   C14   A    
C10   H6    S    
C7    H3    S    
C19   H11   S    
O5    Zn1   S    
C18   N1    A    
O12   H15   S    
O2    Zn1   S    
C21   O12   S    
