data_mof_unit_36514.cif
_audit_creation_date              2012-12-11T14:08:15-0500
_audit_creation_method            fapswitch 2.2
_symmetry_space_group_name_H-M    P1
_symmetry_Int_Tables_number       1
_space_group_crystal_system       triclinic
_cell_length_a                    28.071516
_cell_length_b                    7.184929
_cell_length_c                    17.182018
_cell_angle_alpha                 89.999266
_cell_angle_beta                  101.758674
_cell_angle_gamma                 89.999684
_cell_volume                      3392.74876012

loop_
_atom_site_label
_atom_site_type_symbol
_atom_type_description
_atom_site_fract_x
_atom_site_fract_y
_atom_site_fract_z
_atom_type_partial_charge
O1    O     O_R   0.000700 0.436510 0.857920 -0.548986
O2    O     O_R   0.999300 0.563490 0.142080 -0.549112
O3    O     O_R   0.999300 0.936510 0.642080 -0.548986
O4    O     O_R   0.000700 0.063490 0.357920 -0.549109
O5    O     O_R   0.930080 0.766380 0.721890 -0.519950
O6    O     O_R   0.069920 0.233620 0.278110 -0.520164
O7    O     O_R   0.069920 0.266380 0.778110 -0.519873
O8    O     O_R   0.930080 0.733620 0.221890 -0.520122
C1    C     C_R   0.910547 0.597595 0.711027 0.811738
C2    C     C_R   0.089320 0.402109 0.292075 0.811271
C3    C     C_R   0.089455 0.097593 0.788963 0.811646
C4    C     C_R   0.910678 0.902111 0.207925 0.811237
O9    O     O_R   0.996180 0.766230 0.862310 -0.525903
O10   O     O_R   0.003820 0.233770 0.137690 -0.526080
O11   O     O_R   0.003820 0.266230 0.637690 -0.525883
O12   O     O_R   0.996180 0.733770 0.362310 -0.526074
O13   O     O_R   0.065870 0.936460 0.783500 -0.522575
O14   O     O_R   0.934130 0.063540 0.216500 -0.520796
O15   O     O_R   0.934130 0.436460 0.716500 -0.522638
O16   O     O_R   0.065870 0.563540 0.283500 -0.520832
C5    C     C_R   0.998460 0.596474 0.894505 0.798081
C6    C     C_R   0.001506 0.403522 0.105485 0.800912
C7    C     C_R   0.001540 0.096475 0.605495 0.797937
C8    C     C_R   0.998494 0.903521 0.394515 0.800819
O17   O     O_3   0.022790 0.603020 0.723980 -0.374014
O18   O     O_3   0.977210 0.396980 0.276020 -0.374966
O19   O     O_3   0.977210 0.103020 0.776020 -0.374119
O20   O     O_3   0.022790 0.896980 0.223980 -0.375023
V1    V     V_3+5 0.995770 0.877900 0.754830 1.630625
V2    V     V_3+5 0.004230 0.122100 0.245170 1.631095
V3    V     V_3+5 0.004230 0.377900 0.745170 1.630727
V4    V     V_3+5 0.995770 0.622100 0.254830 1.631156
C9    C     C_2   0.001768 0.082746 0.519561 -0.258193
C10   C     C_2   0.998344 0.917240 0.480475 -0.257903
C11   C     C_2   0.998232 0.582746 0.980438 -0.258164
C12   C     C_2   0.001656 0.417240 0.019525 -0.257893
H1    H     H_    0.004575 0.211772 0.487853 0.162346
H2    H     H_    0.995561 0.788209 0.512192 0.162287
H3    H     H_    0.995424 0.711771 0.012145 0.162302
H4    H     H_    0.004439 0.288210 0.987810 0.162235
C13   C     C_R   0.682416 0.834222 0.022566 0.677678
C14   C     C_R   0.321915 0.189339 0.924617 0.683352
C15   C     C_R   0.317592 0.334173 0.477396 0.677704
C16   C     C_R   0.678092 0.689246 0.575238 0.683329
O21   O     O_2   0.711066 0.723916 0.988332 -0.458734
O22   O     O_2   0.294348 0.298962 0.961280 -0.447300
O23   O     O_2   0.288946 0.223915 0.511659 -0.458708
O24   O     O_2   0.705658 0.798819 0.538554 -0.447308
N1    N     N_R   0.703699 0.938460 0.087058 -0.555415
N2    N     N_R   0.299054 0.073268 0.865433 -0.562262
N3    N     N_R   0.296301 0.438401 0.412903 -0.555407
N4    N     N_R   0.700953 0.573259 0.634457 -0.562253
C17   C     C_R   0.676803 0.054415 0.123983 0.609006
C18   C     C_R   0.325017 0.957947 0.826391 0.642765
C19   C     C_R   0.323192 0.554350 0.375965 0.608992
C20   C     C_R   0.674991 0.457976 0.673516 0.642671
C21   C     C_R   0.774232 0.809360 0.184275 0.073772
C22   C     C_R   0.222324 0.185000 0.778157 0.066314
C23   C     C_R   0.225763 0.309455 0.315653 0.073796
C24   C     C_R   0.777674 0.684747 0.721844 0.066246
C25   C     C_R   0.825071 0.805032 0.214783 0.317017
C26   C     C_R   0.170803 0.189117 0.759854 0.311019
C27   C     C_R   0.174924 0.305149 0.285155 0.316978
C28   C     C_R   0.829194 0.688843 0.740176 0.310952
C29   C     C_R   0.837457 0.020891 0.111207 0.320988
C30   C     C_R   0.168527 0.980656 0.870988 0.320864
C31   C     C_R   0.162541 0.520729 0.388829 0.320893
C32   C     C_R   0.831491 0.480938 0.628873 0.320731
C33   C     C_R   0.787248 0.027083 0.082305 -0.121265
C34   C     C_R   0.219377 0.975155 0.888147 -0.113169
C35   C     C_R   0.212752 0.526899 0.417726 -0.121230
C36   C     C_R   0.780641 0.475446 0.611683 -0.113044
C37   C     C_R   0.755420 0.923288 0.117956 0.251970
C38   C     C_R   0.246568 0.076511 0.842904 0.246643
C39   C     C_R   0.244578 0.423232 0.382020 0.251940
C40   C     C_R   0.753440 0.576532 0.656997 0.246582
C41   C     C_R   0.603374 0.967350 0.028812 -0.098988
C42   C     C_R   0.400459 0.063970 0.911242 -0.100758
C43   C     C_R   0.396630 0.467269 0.471110 -0.098984
C44   C     C_R   0.599549 0.563905 0.588633 -0.100787
C45   C     C_R   0.631136 0.841388 0.992982 -0.161197
C46   C     C_R   0.373584 0.193029 0.947195 -0.162104
C47   C     C_R   0.368874 0.341314 0.506955 -0.161192
C48   C     C_R   0.626423 0.692910 0.552651 -0.162094
C49   C     C_R   0.606251 0.720045 0.933115 0.416980
C50   C     C_R   0.399454 0.326663 0.000346 0.426037
C51   C     C_R   0.393767 0.219953 0.566809 0.416972
C52   C     C_R   0.600553 0.826474 0.499463 0.426035
C53   C     C_R   0.626433 0.070590 0.095932 -0.002628
C54   C     C_R   0.376033 0.951815 0.848224 0.008001
C55   C     C_R   0.373564 0.570510 0.403994 -0.002622
C56   C     C_R   0.623976 0.451812 0.651676 0.007953
C57   C     C_R   0.857096 0.910488 0.178176 -0.229701
C58   C     C_R   0.143544 0.088895 0.806978 -0.227468
C59   C     C_R   0.142901 0.410475 0.321816 -0.229700
C60   C     C_R   0.856461 0.588894 0.692984 -0.227461
H5    H     H_    0.772652 0.112992 0.031180 0.193999
H6    H     H_    0.238149 0.893440 0.938057 0.199064
H7    H     H_    0.227350 0.612698 0.468883 0.194013
H8    H     H_    0.761878 0.393942 0.561699 0.199041
C61   C     C_R   0.477984 0.912344 0.902192 0.074261
C62   C     C_R   0.526056 0.124636 0.033377 0.080109
C63   C     C_R   0.522027 0.412287 0.597705 0.074293
C64   C     C_R   0.473946 0.624530 0.466507 0.080111
C65   C     C_R   0.476487 0.164323 0.998775 -0.033706
C66   C     C_R   0.528234 0.875778 0.935330 -0.038607
C67   C     C_R   0.523519 0.664207 0.501090 -0.033712
C68   C     C_R   0.471778 0.375706 0.564574 -0.038597
C69   C     C_R   0.451750 0.045980 0.938047 0.042118
C70   C     C_R   0.552528 0.990683 0.998191 0.035302
C71   C     C_R   0.548258 0.545898 0.561830 0.042096
C72   C     C_R   0.447478 0.490596 0.501711 0.035304
C73   C     C_R   0.453491 0.830006 0.830579 -0.212082
C74   C     C_R   0.548947 0.202623 0.106789 -0.182535
C75   C     C_R   0.546520 0.329998 0.669329 -0.212082
C76   C     C_R   0.451046 0.702510 0.393098 -0.182529
C77   C     C_R   0.403241 0.841709 0.806271 -0.077574
C78   C     C_R   0.598455 0.181888 0.135964 -0.118710
C79   C     C_R   0.596769 0.341734 0.693643 -0.077629
C80   C     C_R   0.401536 0.681793 0.363945 -0.118735
O25   O     O_2   0.301474 0.848861 0.766884 -0.489998
O26   O     O_2   0.698872 0.154116 0.187800 -0.504529
O27   O     O_2   0.698534 0.348957 0.733048 -0.489984
O28   O     O_2   0.301114 0.654060 0.312154 -0.504540
C81   C     C_R   0.554843 0.722345 0.912117 0.063475
C82   C     C_R   0.450855 0.322634 0.019703 0.050412
C83   C     C_R   0.445176 0.222269 0.587797 0.063453
C84   C     C_R   0.549151 0.822479 0.480130 0.050424
H9    H     H_    0.385890 0.765810 0.753615 0.195485
H10   H     H_    0.614590 0.251980 0.190845 0.180732
H11   H     H_    0.614121 0.265879 0.746312 0.195497
H12   H     H_    0.385394 0.751883 0.309066 0.180720
H13   H     H_    0.472707 0.756816 0.791675 0.150553
H14   H     H_    0.528720 0.278278 0.143583 0.151958
H15   H     H_    0.527304 0.256824 0.708239 0.150551
H16   H     H_    0.471267 0.778146 0.356288 0.151956
Cl1   Cl    Cl    0.874546 0.148089 0.058839 -0.585307
Cl2   Cl    Cl    0.137552 0.856101 0.933881 -0.571340
Cl3   Cl    Cl    0.125451 0.647771 0.441247 -0.585317
Cl4   Cl    Cl    0.862486 0.356736 0.565906 -0.571374
Cl5   Cl    Cl    0.637415 0.551733 0.886355 -0.602548
Cl6   Cl    Cl    0.369428 0.512840 0.038762 -0.565317
Cl7   Cl    Cl    0.362612 0.051579 0.613554 -0.602472
Cl8   Cl    Cl    0.630576 0.012522 0.460953 -0.565207
Cl9   Cl    Cl    0.140617 0.314988 0.675342 -0.587356
Cl10  Cl    Cl    0.848156 0.672497 0.301219 -0.573864
Cl11  Cl    Cl    0.859375 0.814346 0.824797 -0.587513
Cl12  Cl    Cl    0.151831 0.172811 0.198667 -0.574033
C85   C     C_3   0.250657 0.298024 0.728792 -0.477107
H17   H     H_    0.240421 0.447060 0.730377 0.233383
H18   H     H_    0.290582 0.289085 0.750227 0.191354
H19   H     H_    0.242235 0.248274 0.666306 0.259590
C86   C     C_3   0.740805 0.691689 0.222706 -0.509203
H20   H     H_    0.751751 0.543260 0.222096 0.243249
H21   H     H_    0.743209 0.737172 0.285140 0.248313
H22   H     H_    0.702166 0.700465 0.191764 0.177752
C87   C     C_3   0.749333 0.797497 0.771288 -0.476970
H23   H     H_    0.759619 0.946520 0.769923 0.233329
H24   H     H_    0.709412 0.788829 0.749759 0.191355
H25   H     H_    0.757696 0.747280 0.833708 0.259718
C88   C     C_3   0.259188 0.191929 0.277160 -0.509255
H26   H     H_    0.248234 0.043498 0.277680 0.243243
H27   H     H_    0.256790 0.237630 0.214754 0.248315
H28   H     H_    0.297826 0.200603 0.308117 0.177744
C89   C     C_3   0.530349 0.542504 0.878745 -0.725792
H29   H     H_    0.549499 0.420998 0.910854 0.238731
H30   H     H_    0.492593 0.529582 0.887974 0.208627
H31   H     H_    0.531336 0.528946 0.814759 0.227030
C90   C     C_3   0.476719 0.502404 0.049830 -0.708552
H32   H     H_    0.459175 0.621838 0.014083 0.239526
H33   H     H_    0.474772 0.526267 0.112945 0.232710
H34   H     H_    0.515045 0.506102 0.042711 0.205724
C91   C     C_3   0.469679 0.042441 0.621168 -0.725760
H35   H     H_    0.450534 0.920928 0.589061 0.238730
H36   H     H_    0.507435 0.029547 0.611935 0.208622
H37   H     H_    0.468696 0.028878 0.685155 0.227016
C92   C     C_3   0.523291 0.002258 0.450003 -0.708541
H38   H     H_    0.540848 0.121691 0.485733 0.239500
H39   H     H_    0.525224 0.026088 0.386879 0.232712
H40   H     H_    0.484969 0.005994 0.457147 0.205721

loop_
_geom_bond_atom_site_label_1
_geom_bond_atom_site_label_2
_ccdc_geom_bond_type
C83   C91   S    
C47   C51   A    
N1    C17   A    
C22   C26   A    
C89   H29   S    
C50   C82   A    
O13   V1    S    
C90   H32   S    
O3    C7    A    
C11   C12   D    
C14   C46   A    
C44   C48   A    
O15   V3    S    
C51   C83   A    
C88   H26   S    
O4    V2    S    
C91   H35   S    
C42   C54   A    
O1    C5    A    
C66   C81   A    
C41   C53   A    
C32   C60   A    
C68   C72   A    
C43   C72   A    
C23   C88   S    
C63   C71   A    
C56   C79   A    
N3    C39   S    
C67   C84   A    
C18   C54   A    
C17   O26   S    
C85   H18   S    
O16   V4    S    
O4    C8    A    
C25   C57   A    
C31   C35   A    
O19   V1    S    
C61   C69   A    
C27   C59   A    
C15   C47   A    
O1    V3    S    
C61   C73   A    
C62   C65   A    
O2    V4    S    
C14   O22   S    
C21   C37   A    
C21   C25   A    
O3    V1    S    
C34   C38   A    
C19   C55   A    
C66   C70   A    
C64   C76   A    
C49   C81   A    
C1    O15   A    
C87   H23   S    
C81   C89   S    
C2    O16   A    
C92   H39   S    
C26   Cl9   S    
O2    C6    A    
C79   H11   S    
C33   C37   A    
C63   C68   A    
O14   V2    S    
C86   H21   S    
C31   Cl3   S    
C43   C55   A    
C22   C85   S    
C36   C40   A    
C30   C58   A    
C29   Cl1   S    
C16   N4    A    
O11   C7    A    
C89   H30   S    
C73   H13   S    
C31   C59   A    
C90   H33   S    
O10   V2    S    
C13   N1    A    
C88   H27   S    
O7    C3    A    
O5    V1    S    
C91   H36   S    
O7    V3    S    
N4    C20   A    
O8    V4    S    
C20   O27   S    
C12   H4    S    
C24   C87   S    
C28   C60   A    
C85   H19   S    
C49   Cl5   S    
C64   C72   A    
O18   V4    S    
C7    C9    S    
C46   C50   A    
C21   C86   S    
C24   C40   A    
C8    C10   S    
C76   C80   A    
C32   C36   A    
C10   H2    S    
C44   C56   A    
C11   H3    S    
C25   Cl10  S    
C54   C77   A    
O5    C1    A    
C63   C75   A    
C78   H10   S    
C42   C46   A    
C30   Cl2   S    
C41   C45   A    
O8    C4    A    
C92   H40   S    
C13   C45   A    
C9    C10   D    
C74   H14   S    
O9    C5    A    
N2    C18   A    
C86   H22   S    
C62   C74   A    
C1    C60   S    
C74   C78   A    
C14   N2    A    
C73   C77   A    
C65   C82   A    
C3    C58   S    
C89   H31   S    
O6    V2    S    
C18   O25   S    
C87   H25   S    
C75   C79   A    
C26   C58   A    
C28   Cl11  S    
C17   C53   A    
C90   H34   S    
N1    C37   S    
C4    C57   S    
C32   Cl4   S    
C23   C39   A    
C27   Cl12  S    
C88   H28   S    
C77   H9    S    
C22   C38   A    
C50   Cl6   S    
C36   H8    S    
C91   H37   S    
O9    V1    S    
C61   C66   A    
C65   C69   A    
C19   O28   S    
C3    O13   A    
C80   H12   S    
C67   C71   A    
O17   V3    S    
C48   C52   A    
C16   C48   A    
O6    C2    A    
C87   H24   S    
O11   V3    S    
C76   H16   S    
O12   V4    S    
C6    C12   S    
C23   C27   A    
N4    C40   S    
C24   C28   A    
O10   C6    A    
N2    C38   S    
C5    C11   S    
C52   C84   A    
C82   C90   S    
C85   H17   S    
C35   C39   A    
C15   N3    A    
C30   C34   A    
C75   H15   S    
C2    C59   S    
C29   C33   A    
C44   C71   A    
O20   V2    S    
C29   C57   A    
C42   C69   A    
N3    C19   A    
C68   C83   A    
C35   H7    S    
C41   C70   A    
C9    H1    S    
C62   C70   A    
C43   C47   A    
C16   O24   S    
C20   C56   A    
C53   C78   A    
O12   C8    A    
C92   H38   S    
C4    O14   A    
C13   O21   S    
C55   C80   A    
C84   C92   S    
C51   Cl7   S    
C86   H20   S    
C15   O23   S    
C52   Cl8   S    
C64   C67   A    
C45   C49   A    
C34   H6    S    
C33   H5    S    
