data_mof_unit_19993.cif
_audit_creation_date              2012-12-11T14:34:00-0500
_audit_creation_method            fapswitch 2.2
_symmetry_space_group_name_H-M    P1
_symmetry_Int_Tables_number       1
_space_group_crystal_system       triclinic
_cell_length_a                    13.846144
_cell_length_b                    13.980015
_cell_length_c                    27.325206
_cell_angle_alpha                 89.985482
_cell_angle_beta                  90.076232
_cell_angle_gamma                 119.625008
_cell_volume                      4597.89246831

loop_
_atom_site_label
_atom_site_type_symbol
_atom_type_description
_atom_site_fract_x
_atom_site_fract_y
_atom_site_fract_z
_atom_type_partial_charge
C1    C     C_R   0.233941 0.787093 0.568789 0.544491
C2    C     C_R   0.212749 0.446902 0.568875 0.547894
C3    C     C_R   0.552761 0.765248 0.569006 0.544839
C4    C     C_3   0.667336 0.738232 0.789452 -0.222415
C5    C     C_3   0.243900 0.949235 0.783545 -0.221880
C6    C     C_3   0.049618 0.303980 0.784688 -0.219731
C7    C     C_3   0.647566 0.726013 0.733444 -0.235806
C8    C     C_3   0.260737 0.932277 0.728974 -0.234938
C9    C     C_3   0.066586 0.337139 0.729921 -0.234877
C10   C     C_1   0.708617 0.863341 0.859965 -0.073004
C11   C     C_1   0.113082 0.879495 0.852742 -0.072330
C12   C     C_1   0.114680 0.231722 0.852366 -0.073002
C13   C     C_1   0.629368 0.815032 0.658832 -0.014432
C14   C     C_1   0.176065 0.817510 0.656373 -0.023646
C15   C     C_1   0.180070 0.360769 0.656710 -0.024881
C16   C     C_1   0.601285 0.796229 0.616636 0.030573
C17   C     C_1   0.198979 0.805607 0.615240 0.024640
C18   C     C_1   0.193792 0.394875 0.615498 0.024510
C19   C     C_R   0.064843 0.150360 0.095978 0.579156
C20   C     C_R   0.777530 0.884085 0.088389 0.547470
C21   C     C_R   0.116479 0.893683 0.088159 0.560465
C22   C     C_R   0.069396 0.160525 0.943222 0.539964
C23   C     C_R   0.779692 0.887128 0.950769 0.541701
C24   C     C_R   0.090741 0.929500 0.943354 0.536540
C25   C     C_R   0.618555 0.895623 0.361526 -0.130841
C26   C     C_R   0.097176 0.732474 0.362830 -0.131902
C27   C     C_R   0.264338 0.357630 0.363780 -0.132309
C28   C     C_R   0.644863 0.911228 0.311900 0.013957
C29   C     C_R   0.080572 0.744001 0.313179 0.014063
C30   C     C_R   0.241374 0.306787 0.317686 0.014365
C31   C     C_R   0.681234 0.929200 0.210416 0.017214
C32   C     C_R   0.060551 0.760076 0.211556 0.017034
C33   C     C_R   0.200764 0.225954 0.220981 0.017053
C34   C     C_R   0.232498 0.788300 0.431806 0.551446
C35   C     C_R   0.211695 0.444508 0.431371 0.552699
C36   C     C_R   0.555562 0.767174 0.431895 0.552306
C37   C     C_R   0.653850 0.000989 0.234582 -0.138070
C38   C     C_R   0.977351 0.671003 0.237605 -0.127831
C39   C     C_R   0.303103 0.256703 0.243589 -0.124017
C40   C     C_R   0.635475 0.991912 0.285064 -0.130665
C41   C     C_R   0.987930 0.662306 0.288079 -0.128389
C42   C     C_R   0.323403 0.297150 0.291557 -0.127888
C43   C     C_R   0.704251 0.939663 0.160167 -0.150281
C44   C     C_R   0.050640 0.771238 0.161194 -0.135409
C45   C     C_R   0.182951 0.195166 0.171520 -0.128766
C46   C     C_R   0.728839 0.864816 0.137101 -0.003194
C47   C     C_R   0.135339 0.861417 0.136274 -0.005083
C48   C     C_R   0.082843 0.172660 0.148626 -0.008842
C49   C     C_R   0.658559 0.744651 0.364047 -0.127802
C50   C     C_R   0.266087 0.910732 0.361926 -0.125381
C51   C     C_R   0.076207 0.328190 0.367978 -0.126151
C52   C     C_R   0.682645 0.757457 0.314505 0.013001
C53   C     C_R   0.254327 0.920417 0.312230 0.013360
C54   C     C_R   0.052739 0.279269 0.321910 0.012032
C55   C     C_R   0.673337 0.839373 0.288004 0.063714
C56   C     C_R   0.162339 0.835927 0.287434 0.063114
C57   C     C_R   0.136212 0.270555 0.296111 0.062665
C58   C     C_R   0.707590 0.684061 0.290453 -0.126250
C59   C     C_R   0.337624 0.009588 0.286498 -0.126808
C60   C     C_R   0.949290 0.245539 0.299993 -0.127965
C61   C     C_R   0.719506 0.689196 0.239983 -0.127209
C62   C     C_R   0.331757 0.013397 0.235915 -0.129583
C63   C     C_R   0.930352 0.208349 0.251809 -0.122431
C64   C     C_R   0.709804 0.769772 0.213483 0.011022
C65   C     C_R   0.240633 0.930111 0.210970 0.014325
C66   C     C_R   0.013468 0.201953 0.225354 0.016698
C67   C     C_3   0.561501 0.846860 0.737880 -0.230823
C68   C     C_3   0.135557 0.729155 0.738631 -0.231150
C69   C     C_3   0.269678 0.401076 0.738752 -0.230924
C70   C     C_R   0.688588 0.846546 0.237319 0.065476
C71   C     C_R   0.154278 0.842013 0.236653 0.064056
C72   C     C_R   0.116218 0.231001 0.247734 0.062320
C73   C     C_R   0.724386 0.776426 0.163496 -0.123051
C74   C     C_R   0.232700 0.936169 0.160811 -0.132690
C75   C     C_R   0.997284 0.172096 0.176167 -0.129275
C76   C     C_R   0.618599 0.807816 0.386703 0.000015
C77   C     C_R   0.193482 0.813040 0.386390 -0.000276
C78   C     C_R   0.183261 0.372582 0.388115 -0.001837
C79   C     C_3   0.769566 0.930596 0.722907 -0.062844
C80   C     C_3   0.055551 0.852146 0.714128 -0.063075
C81   C     C_3   0.135186 0.203617 0.713201 -0.061681
C82   C     C_3   0.788786 0.942816 0.779336 -0.233939
C83   C     C_3   0.037045 0.864499 0.769420 -0.233433
C84   C     C_3   0.115841 0.169337 0.768023 -0.235437
C85   C     C_1   0.735197 0.873436 0.902406 -0.028029
C86   C     C_1   0.102721 0.900763 0.894401 -0.022612
C87   C     C_1   0.096144 0.200281 0.894092 -0.026563
C88   C     C_3   0.652325 0.830812 0.711710 0.050884
C89   C     C_3   0.155716 0.831336 0.707984 0.047518
C90   C     C_3   0.164114 0.325956 0.708151 0.048215
C91   C     C_3   0.583744 0.862174 0.793782 -0.220290
C92   C     C_3   0.117893 0.745678 0.793480 -0.216943
C93   C     C_3   0.252708 0.363182 0.792966 -0.217501
C94   C     C_3   0.686924 0.851881 0.807030 0.063235
C95   C     C_3   0.127500 0.859834 0.801158 0.061716
C96   C     C_3   0.133119 0.266652 0.800894 0.061030
Cr1   Cr    Cr6+3 0.164410 0.584450 0.499910 1.034633
Cr2   Cr    Cr6+3 0.415550 0.579960 0.499910 1.036179
Cr3   Cr    Cr6+3 0.420040 0.835590 0.499910 1.033767
Cr4   Cr    Cr6+3 0.155170 0.075460 0.019960 1.015377
Cr5   Cr    Cr6+3 0.924540 0.079710 0.019960 1.005657
Cr6   Cr    Cr6+3 0.920290 0.844830 0.019960 1.007718
H1    H     H_    0.597174 0.944381 0.805032 0.111048
H2    H     H_    0.034617 0.679498 0.805441 0.113355
H3    H     H_    0.314105 0.336963 0.802946 0.112026
H4    H     H_    0.478222 0.773807 0.731329 0.108583
H5    H     H_    0.208271 0.715995 0.735187 0.109104
H6    H     H_    0.287360 0.487826 0.736883 0.109437
H7    H     H_    0.509655 0.799055 0.813874 0.115581
H8    H     H_    0.180999 0.738789 0.816164 0.118995
H9    H     H_    0.268323 0.433511 0.817117 0.119776
H10   H     H_    0.740499 0.728791 0.798724 0.111651
H11   H     H_    0.254248 0.032525 0.788801 0.105673
H12   H     H_    0.962894 0.236308 0.790476 0.111693
H13   H     H_    0.706637 0.007091 0.139576 0.104456
H14   H     H_    0.975540 0.713514 0.142034 0.114019
H15   H     H_    0.248183 0.192956 0.150507 0.121877
H16   H     H_    0.589001 0.945703 0.379235 0.129189
H17   H     H_    0.039740 0.657830 0.381972 0.125781
H18   H     H_    0.346817 0.390751 0.379329 0.126423
H19   H     H_    0.646647 0.063995 0.214475 0.098161
H20   H     H_    0.905144 0.607371 0.218847 0.098427
H21   H     H_    0.368718 0.252986 0.223633 0.100571
H22   H     H_    0.741483 0.716888 0.145813 0.129337
H23   H     H_    0.298751 0.005389 0.141483 0.123256
H24   H     H_    0.919110 0.152010 0.158702 0.117812
H25   H     H_    0.714370 0.620645 0.310441 0.102801
H26   H     H_    0.408959 0.074420 0.305306 0.098530
H27   H     H_    0.884672 0.252250 0.319395 0.105017
H28   H     H_    0.558429 0.919025 0.722606 0.107271
H29   H     H_    0.062333 0.653446 0.724514 0.106185
H30   H     H_    0.343724 0.400306 0.723552 0.108541
H31   H     H_    0.660678 0.678318 0.383737 0.131760
H32   H     H_    0.339055 0.974816 0.380189 0.134084
H33   H     H_    0.012510 0.337631 0.386790 0.133496
H34   H     H_    0.833146 0.913318 0.706618 0.179521
H35   H     H_    0.076910 0.931198 0.695665 0.191758
H36   H     H_    0.056269 0.151382 0.693055 0.197550
H37   H     H_    0.863267 0.935883 0.788531 0.095000
H38   H     H_    0.039710 0.943955 0.775361 0.093800
H39   H     H_    0.029319 0.101139 0.772552 0.099716
H40   H     H_    0.565170 0.652630 0.725780 0.113466
H41   H     H_    0.334143 0.920265 0.725239 0.112437
H42   H     H_    0.083715 0.423473 0.726236 0.110794
H43   H     H_    0.711492 0.711217 0.715905 0.147970
H44   H     H_    0.279437 0.007646 0.707992 0.151472
H45   H     H_    0.988661 0.284035 0.709351 0.158844
H46   H     H_    0.594097 0.671321 0.808555 0.119397
H47   H     H_    0.309431 0.945612 0.805799 0.120473
H48   H     H_    0.061271 0.375161 0.807287 0.121750
O1    O     O_R   0.137150 0.468200 0.553200 -0.505117
O2    O     O_R   0.531800 0.668950 0.553200 -0.503903
O3    O     O_R   0.331050 0.862850 0.553200 -0.501928
O4    O     O_R   0.179100 0.982980 0.967000 -0.505058
O5    O     O_R   0.017020 0.196120 0.967000 -0.484002
O6    O     O_R   0.803880 0.820900 0.967000 -0.511532
O7    O     O_R   0.173970 0.688730 0.549930 -0.499059
O8    O     O_R   0.311270 0.485240 0.549930 -0.497617
O9    O     O_R   0.514760 0.826030 0.549930 -0.496570
O10   O     O_R   0.140110 0.470540 0.446010 -0.519300
O11   O     O_R   0.529460 0.669570 0.446010 -0.519082
O12   O     O_R   0.330430 0.859890 0.446010 -0.521265
O13   O     O_R   0.176710 0.690910 0.450560 -0.501067
O14   O     O_R   0.309090 0.485800 0.450560 -0.499806
O15   O     O_R   0.514200 0.823290 0.450560 -0.502765
O16   O     O_3   0.333333 0.666667 0.499990 -0.275675
O17   O     O_R   0.176750 0.985260 0.074180 -0.529902
O18   O     O_R   0.014740 0.191490 0.074180 -0.494668
O19   O     O_R   0.808510 0.823250 0.074180 -0.517338
O20   O     O_R   0.146100 0.172630 0.068980 -0.479238
O21   O     O_R   0.827370 0.973470 0.068980 -0.517714
O22   O     O_R   0.026530 0.853900 0.068980 -0.488792
O23   O     O_3   1.000000 0.000000 0.020040 -0.285719
O24   O     O_R   0.148270 0.170520 0.969620 -0.490603
O25   O     O_R   0.829480 0.977750 0.969620 -0.519788
O26   O     O_R   0.022250 0.851730 0.969620 -0.482139
H49   H     H_    0.612728 0.047051 0.303004 0.100679
H50   H     H_    0.924331 0.591394 0.307372 0.102138
H51   H     H_    0.404319 0.323870 0.307686 0.103285
H52   H     H_    0.736480 0.630379 0.221659 0.098392
H53   H     H_    0.397851 0.081876 0.216350 0.094488
H54   H     H_    0.852327 0.188643 0.234616 0.110395
C97   C     C_2   0.785074 0.036268 0.700668 0.189384
H55   H     H_    0.740950 0.075874 0.715415 0.103286
O27   O     O_2   0.847225 0.077988 0.665889 -0.512607
C98   C     C_2   0.950262 0.763062 0.690850 0.190585
H56   H     H_    0.909895 0.679953 0.705318 0.101703
O28   O     O_2   0.909105 0.783973 0.655805 -0.498611
C99   C     C_2   0.223442 0.183120 0.691204 0.185347
H57   H     H_    0.304063 0.215740 0.708677 0.100227
O29   O     O_2   0.204795 0.129521 0.653638 -0.502612
H58   H     H_    0.805889 0.025269 0.792330 0.102016
H59   H     H_    0.953448 0.799333 0.781727 0.101465
H60   H     H_    0.172158 0.138869 0.780456 0.098491

loop_
_geom_bond_atom_site_label_1
_geom_bond_atom_site_label_2
_ccdc_geom_bond_type
C15   C18   T    
C10   C85   T    
C82   C94   S    
Cr3   O9    S    
C61   C64   A    
C33   C45   A    
Cr5   O23   S    
C48   C75   A    
C19   O20   A    
C27   C78   A    
C92   H8    S    
C25   H16   S    
Cr2   O11   S    
C6    C9    S    
C53   C59   A    
C39   H21   S    
C14   C89   S    
Cr2   O2    S    
C27   H18   S    
Cr6   O23   S    
C79   H34   S    
C67   C88   S    
C33   C39   A    
C31   C43   A    
C60   C63   A    
C45   H15   S    
C37   C40   A    
C69   C93   S    
C4    C7    S    
C34   C77   S    
C64   C70   A    
C45   C48   A    
C74   H23   S    
C2    C18   S    
C10   C94   S    
C11   C86   T    
Cr6   O26   S    
Cr1   O16   S    
C4    H46   S    
C30   C57   A    
C5    H47   S    
C84   C96   S    
C80   C89   S    
C99   O29   D    
C35   O10   A    
C6    H12   S    
C36   C76   S    
C33   C72   A    
C93   H3    S    
C51   H33   S    
C28   C55   A    
C31   C70   A    
C66   C72   A    
Cr2   O8    S    
C84   H60   S    
Cr1   O13   S    
C69   H6    S    
C64   C73   A    
C26   C29   A    
C68   H5    S    
C32   C38   A    
C39   C42   A    
C7    H43   S    
C12   C87   T    
C44   C47   A    
Cr3   O16   S    
C43   H13   S    
C73   H22   S    
Cr6   O19   S    
C20   O19   A    
C4    H10   S    
C63   C66   A    
C58   H25   S    
C63   H54   S    
C23   O6    A    
C27   C30   A    
C3    O9    A    
C14   C17   T    
C80   C83   S    
C79   C88   S    
C22   O24   A    
C9    H42   S    
C24   O4    A    
C32   C71   A    
C22   O5    A    
C32   C44   A    
C81   H36   S    
C26   C77   A    
Cr4   O20   S    
C50   C53   A    
Cr1   O10   S    
C41   H50   S    
C26   H17   S    
C38   C41   A    
C34   O13   A    
C50   H32   S    
C19   C48   S    
C54   C60   A    
C59   H26   S    
C65   C71   A    
C9    H45   S    
C92   C95   S    
C65   C74   A    
C31   C37   A    
C25   C28   A    
Cr1   O7    S    
C83   H59   S    
Cr5   O18   S    
C97   H55   S    
C28   C40   A    
C82   H37   S    
C79   C82   S    
Cr3   O12   S    
C5    H11   S    
C7    C88   S    
Cr1   O1    S    
C42   H51   S    
C2    O8    A    
C49   C52   A    
C83   C95   S    
C67   C91   S    
C68   C89   S    
C3    O2    A    
C49   C76   A    
Cr2   O16   S    
C22   C87   S    
C1    O3    A    
C81   C99   S    
C38   H20   S    
C52   C58   A    
C93   H9    S    
C37   H19   S    
C81   C90   S    
C11   C95   S    
C29   C56   A    
C93   C96   S    
C6    C96   S    
Cr4   O17   S    
Cr4   O24   S    
C36   O11   A    
C4    C94   S    
Cr5   O25   S    
C67   H28   S    
C19   O18   A    
C9    C90   S    
C98   O28   D    
C69   C90   S    
C24   O26   A    
C50   C77   A    
Cr6   O6    S    
C81   C84   S    
C53   C56   A    
Cr4   O4    S    
C2    O1    A    
C49   H31   S    
C59   C62   A    
C80   C98   S    
C62   C65   A    
C82   H58   S    
C8    H44   S    
C47   C74   A    
C91   H1    S    
C34   O12   A    
C60   H27   S    
C5    C8    S    
Cr2   O14   S    
C52   C55   A    
C67   H4    S    
C68   H29   S    
C21   O22   A    
C35   C78   S    
C1    C17   S    
C35   O14   A    
C21   O17   A    
C15   C90   S    
C51   C54   A    
C25   C76   A    
C75   H24   S    
C1    O7    A    
C51   C78   A    
C91   C94   S    
C91   H7    S    
C5    C95   S    
C84   H39   S    
C58   C61   A    
C69   H30   S    
C66   C75   A    
Cr3   O3    S    
C13   C88   S    
C36   O15   A    
C68   C92   S    
C79   C97   S    
Cr5   O21   S    
C8    H41   S    
C30   C42   A    
C46   C73   A    
C57   C72   A    
C99   H57   S    
C43   C46   A    
C55   C70   A    
C92   H2    S    
C83   H38   S    
C40   H49   S    
C6    H48   S    
C20   O21   A    
C23   O25   A    
C44   H14   S    
C61   H52   S    
C23   C85   S    
C13   C16   T    
Cr4   O23   S    
Cr5   O5    S    
C29   C41   A    
C12   C96   S    
C97   O27   D    
C8    C89   S    
C21   C47   S    
C98   H56   S    
Cr6   O22   S    
C24   C86   S    
C7    H40   S    
C20   C46   S    
C3    C16   S    
C80   H35   S    
C56   C71   A    
Cr3   O15   S    
C54   C57   A    
C62   H53   S    
