data_mof_unit_63856.cif
_audit_creation_date              2012-12-10T16:40:43-0500
_audit_creation_method            fapswitch 2.2
_symmetry_space_group_name_H-M    P1
_symmetry_Int_Tables_number       1
_space_group_crystal_system       triclinic
_cell_length_a                    10.818442
_cell_length_b                    10.820701
_cell_length_c                    19.546333
_cell_angle_alpha                 97.230622
_cell_angle_beta                  91.816957
_cell_angle_gamma                 98.429635
_cell_volume                      2242.50037669

loop_
_atom_site_label
_atom_site_type_symbol
_atom_type_description
_atom_site_fract_x
_atom_site_fract_y
_atom_site_fract_z
_atom_type_partial_charge
C1    C     C_R   0.475177 0.161880 0.484293 0.493747
C2    C     C_2   0.540382 0.483280 0.019100 -0.132610
C3    C     C_2   0.478744 0.553566 0.982158 -0.136778
C4    C     C_R   0.524403 0.838958 0.515586 0.506227
C5    C     C_R   0.483937 0.517197 0.763005 0.046148
C6    C     C_2   0.532983 0.975194 0.522111 -0.121049
C7    C     C_2   0.466190 0.027277 0.478236 -0.102614
C8    C     C_2   0.972078 0.536297 0.521710 -0.117553
C9    C     C_2   0.030448 0.462139 0.478259 -0.101530
C10   C     C_R   0.164193 0.472544 0.484206 0.495866
C11   C     C_R   0.836827 0.526526 0.515493 0.508129
C12   C     C_R   0.537409 0.489653 0.094764 0.044209
C13   C     C_R   0.487823 0.512306 0.688147 0.493060
C14   C     C_R   0.513949 0.487477 0.311856 0.504012
C15   C     C_R   0.523671 0.487863 0.237510 0.038590
C16   C     C_R   0.487289 0.587791 0.206676 -0.123978
C17   C     C_R   0.495322 0.589632 0.136102 -0.106120
C18   C     C_3   0.471117 0.277669 0.752908 -0.259673
C19   C     C_3   0.486449 0.168318 0.793492 -0.462821
C20   C     C_R   0.576722 0.391254 0.126017 -0.118590
C21   C     C_R   0.570335 0.390442 0.197032 -0.123972
C22   C     C_R   0.471921 0.419866 0.868005 -0.082911
C23   C     C_R   0.474893 0.406517 0.795667 0.008603
C24   C     C_R   0.490643 0.635922 0.802210 -0.132042
C25   C     C_R   0.487214 0.646778 0.873539 -0.122731
C26   C     C_R   0.479921 0.539364 0.906692 0.020749
H1    H     H_    0.453731 0.665529 0.237273 0.132215
H2    H     H_    0.469098 0.670185 0.115061 0.100222
H3    H     H_    0.594011 0.033448 0.562763 0.101594
H4    H     H_    0.574275 0.190146 0.826607 0.151051
H5    H     H_    0.404800 0.147918 0.825518 0.146248
H6    H     H_    0.491511 0.082257 0.756805 0.145568
H7    H     H_    0.380701 0.253134 0.722217 0.179359
H8    H     H_    0.547861 0.283881 0.716402 0.148679
H9    H     H_    0.497292 0.720534 0.777333 0.120770
H10   H     H_    0.427558 0.624504 0.006504 0.116818
H11   H     H_    0.492226 0.739301 0.903026 0.107838
H12   H     H_    0.405500 0.971319 0.436796 0.123829
H13   H     H_    0.024525 0.604348 0.561837 0.106387
H14   H     H_    0.980410 0.393927 0.437496 0.124596
H15   H     H_    0.610616 0.313875 0.095278 0.101000
H16   H     H_    0.461740 0.338012 0.894948 0.113008
H17   H     H_    0.599719 0.312807 0.220027 0.130317
H18   H     H_    0.592640 0.415007 0.992386 0.115678
O1    O     O_3   0.500000 0.500000 0.500000 -0.440624
O2    O     O_R   0.410860 0.431690 0.648970 -0.553785
O3    O     O_R   0.578570 0.421470 0.344370 -0.546423
O4    O     O_R   0.567340 0.590030 0.662290 -0.543427
O5    O     O_R   0.443230 0.556810 0.344370 -0.547116
O6    O     O_R   0.229880 0.548640 0.449830 -0.533150
O7    O     O_R   0.775840 0.445670 0.468570 -0.541264
O8    O     O_R   0.404020 0.217050 0.524780 -0.537951
O9    O     O_R   0.590260 0.788640 0.556820 -0.537726
O10   O     O_R   0.555650 0.222860 0.449830 -0.535187
O11   O     O_R   0.450070 0.771450 0.468560 -0.542147
O12   O     O_R   0.213590 0.407490 0.524780 -0.532173
O13   O     O_R   0.780700 0.598200 0.556830 -0.534796
Zn1   Zn    Zn3+2 0.407400 0.592620 0.441700 0.937524
Zn2   Zn    Zn3+2 0.384130 0.390950 0.548790 0.931083
Zn3   Zn    Zn3+2 0.607710 0.617180 0.567810 0.940762
Zn4   Zn    Zn3+2 0.600760 0.399250 0.441700 0.936851

loop_
_geom_bond_atom_site_label_1
_geom_bond_atom_site_label_2
_ccdc_geom_bond_type
C12   C17   A    
O3    Zn4   S    
C13   O4    A    
C2    H18   S    
C1    O10   A    
O1    Zn3   S    
C6    C7    D    
C8    H13   S    
C4    O9    A    
C10   O12   A    
C9    C10   S    
C5    C13   S    
C5    C23   A    
O12   Zn2   S    
C2    C12   S    
C12   C20   A    
C16   H1    S    
C14   C15   S    
C2    C3    D    
O6    Zn1   S    
C19   H5    S    
C19   H4    S    
C10   O6    A    
C21   H17   S    
C20   C21   A    
C18   H8    S    
C14   O3    A    
C5    C24   A    
C3    H10   S    
C8    C11   S    
C20   H15   S    
C19   H6    S    
O1    Zn4   S    
O8    Zn2   S    
O9    Zn3   S    
O4    Zn3   S    
C9    H14   S    
C4    O11   A    
C13   O2    A    
O2    Zn2   S    
C1    O8    A    
O1    Zn1   S    
C14   O5    A    
C11   O7    A    
C18   H7    S    
C18   C23   S    
C24   H9    S    
C15   C21   A    
C6    H3    S    
C24   C25   A    
C4    C6    S    
C18   C19   S    
C22   C26   A    
O11   Zn1   S    
C22   H16   S    
C22   C23   A    
O1    Zn2   S    
O13   Zn3   S    
C1    C7    S    
C25   C26   A    
C11   O13   A    
C17   H2    S    
C7    H12   S    
C3    C26   S    
O5    Zn1   S    
C15   C16   A    
C16   C17   A    
C25   H11   S    
C8    C9    D    
O10   Zn4   S    
O7    Zn4   S    
