data_mof_unit_12387.cif
_audit_creation_date              2012-10-26T18:44:08-0400
_audit_creation_method            fapswitch 2.2
_symmetry_space_group_name_H-M    P1
_symmetry_Int_Tables_number       1
_space_group_crystal_system       triclinic
_cell_length_a                    19.348966
_cell_length_b                    9.093067
_cell_length_c                    7.784285
_cell_angle_alpha                 90.000261
_cell_angle_beta                  89.590685
_cell_angle_gamma                 90.001382
_cell_volume                      1369.54339648

loop_
_atom_site_label
_atom_site_type_symbol
_atom_type_description
_atom_site_fract_x
_atom_site_fract_y
_atom_site_fract_z
_atom_type_partial_charge
C1    C     C_R   0.500000 0.220015 0.500000 0.550757
C2    C     C_R   0.256357 0.416027 0.377140 -0.139919
C3    C     C_R   0.182453 0.561728 0.637837 0.099966
C4    C     C_R   0.817549 0.561747 0.362182 0.099969
C5    C     C_R   0.815757 0.405224 0.617943 0.102549
C6    C     C_R   0.184238 0.405216 0.382064 0.102552
C7    C     C_R   0.146368 0.482390 0.510081 0.078400
C8    C     C_R   0.853631 0.482403 0.489934 0.078396
C9    C     C_R   0.291637 0.495276 0.502734 -0.033297
C10   C     C_R   0.708362 0.495284 0.497271 -0.033298
C11   C     C_R   0.929967 0.484852 0.494775 0.360576
C12   C     C_R   0.500000 0.779986 0.500000 0.550554
C13   C     C_R   0.070032 0.484844 0.505242 0.360577
C14   C     C_3   0.143394 0.571693 0.931912 -0.264250
C15   C     C_3   0.856629 0.571707 0.068116 -0.264234
C16   C     C_3   0.872104 0.173380 0.672920 -0.285668
C17   C     C_3   0.127882 0.173379 0.327057 -0.285666
C18   C     C_R   0.367223 0.499639 0.500648 0.540657
C19   C     C_R   0.632776 0.499643 0.499352 0.540656
C20   C     C_1   0.500000 0.065372 0.500000 -0.052741
C21   C     C_1   0.500000 0.934630 0.500000 -0.052889
C22   C     C_R   0.254721 0.566524 0.633260 -0.138890
C23   C     C_R   0.745282 0.566539 0.366752 -0.138886
C24   C     C_R   0.743639 0.416031 0.622861 -0.139918
Cu1   Cu    Cu3+1 0.500000 0.500000 0.669080 1.013096
Cu2   Cu    Cu3+1 0.500000 0.500000 0.330920 1.013097
H1    H     H_    0.282020 0.628473 0.730514 0.130495
H2    H     H_    0.804051 0.562866 0.012387 0.127838
H3    H     H_    0.879430 0.460112 0.080253 0.189035
H4    H     H_    0.889685 0.636997 0.979326 0.174553
H5    H     H_    0.822727 0.302234 0.854407 0.239382
H6    H     H_    0.900535 0.112576 0.773948 0.149991
H7    H     H_    0.907393 0.188470 0.561189 0.164262
H8    H     H_    0.826759 0.106798 0.633196 0.134469
H9    H     H_    0.177263 0.302245 0.145582 0.239375
H10   H     H_    0.099450 0.112585 0.226017 0.149990
H11   H     H_    0.092592 0.188467 0.438791 0.164264
H12   H     H_    0.717986 0.628489 0.269498 0.130494
H13   H     H_    0.173222 0.106790 0.366777 0.134471
H14   H     H_    0.714866 0.357616 0.721460 0.127054
H15   H     H_    0.285128 0.357618 0.278532 0.127050
H16   H     H_    0.163731 0.750375 0.776121 0.244955
H17   H     H_    0.195985 0.562752 0.987548 0.127833
H18   H     H_    0.120543 0.460142 0.919815 0.189080
H19   H     H_    0.110392 0.637045 0.020761 0.174498
H20   H     H_    0.836274 0.750394 0.223884 0.244952
N1    N     N_1   0.500000 0.500000 0.076820 -0.082862
N2    N     N_2   0.150458 0.313910 0.259817 -0.507666
N3    N     N_1   0.500000 0.500000 0.923180 -0.082862
N4    N     N_R   0.036554 0.485498 0.352687 -0.208775
N5    N     N_R   0.963445 0.485479 0.647329 -0.208778
N6    N     N_R   0.967888 0.485138 0.347621 -0.212076
N7    N     N_R   0.032111 0.485113 0.652396 -0.212081
N8    N     N_2   0.146458 0.643396 0.766107 -0.506336
N9    N     N_2   0.853547 0.643418 0.233915 -0.506346
N10   N     N_2   0.849533 0.313906 0.740178 -0.507664
O1    O     O_R   0.500000 0.288390 0.642760 -0.495423
O2    O     O_R   0.500000 0.711610 0.357240 -0.495343
O3    O     O_R   0.500000 0.711610 0.642760 -0.495343
O4    O     O_R   0.500000 0.288390 0.357240 -0.495422
O5    O     O_R   0.400140 0.500000 0.642830 -0.502232
O6    O     O_R   0.599860 0.500000 0.357170 -0.502229
O7    O     O_R   0.599860 0.500000 0.642830 -0.502377
O8    O     O_R   0.400140 0.500000 0.357170 -0.502376

loop_
_geom_bond_atom_site_label_1
_geom_bond_atom_site_label_2
_ccdc_geom_bond_type
H20   N9    S    
C2    C9    A    
C5    C8    A    
N4    N6    A    
C16   N10   S    
C18   O5    A    
C6    C7    A    
C17   H10   S    
C1    O1    A    
C10   C23   A    
C16   H6    S    
C23   H12   S    
Cu1   O3    S    
C5    N10   S    
C13   N7    A    
C17   N2    S    
C10   C19   S    
C4    C8    A    
C12   O2    A    
Cu2   O6    S    
N1    N3    T    
Cu1   O5    S    
H16   N8    S    
Cu2   O2    S    
C18   O8    A    
C15   H2    S    
C2    C6    A    
C5    C24   A    
C6    N2    S    
Cu2   N1    S    
C8    C11   S    
H9    N2    S    
C14   N8    S    
C15   H3    S    
C14   H19   S    
C3    C7    A    
C22   H1    S    
C16   H8    S    
C4    N9    S    
C17   H13   S    
C16   H7    S    
C3    N8    S    
Cu1   N3    S    
C9    C22   A    
C11   N5    A    
C19   O6    A    
C13   N4    A    
Cu1   O1    S    
C9    C18   S    
C7    C13   S    
C20   C21   T    
C15   H4    S    
C14   H18   S    
Cu1   O7    S    
C1    O4    A    
C4    C23   A    
Cu2   O8    S    
C24   H14   S    
C3    C22   A    
C17   H11   S    
C11   N6    A    
C2    H15   S    
C10   C24   A    
Cu1   Cu2   S    
C12   O3    A    
Cu2   O4    S    
C12   C21   S    
H5    N10   S    
N5    N7    A    
C19   O7    A    
C14   H17   S    
C1    C20   S    
C15   N9    S    
