data_mof_unit_20807.cif
_audit_creation_date              2012-12-11T16:28:24-0500
_audit_creation_method            fapswitch 2.2
_symmetry_space_group_name_H-M    P1
_symmetry_Int_Tables_number       1
_space_group_crystal_system       triclinic
_cell_length_a                    16.564935
_cell_length_b                    7.256444
_cell_length_c                    15.211363
_cell_angle_alpha                 89.970921
_cell_angle_beta                  94.800214
_cell_angle_gamma                 89.976227
_cell_volume                      1822.0306045

loop_
_atom_site_label
_atom_site_type_symbol
_atom_type_description
_atom_site_fract_x
_atom_site_fract_y
_atom_site_fract_z
_atom_type_partial_charge
O1    O     O_R   0.663460 0.361760 0.165970 -0.528219
O2    O     O_R   0.336540 0.638240 0.834030 -0.528219
O3    O     O_R   0.836540 0.861760 0.334030 -0.528412
O4    O     O_R   0.163460 0.138240 0.665970 -0.528413
O5    O     O_R   0.827100 0.689870 0.163730 -0.521546
O6    O     O_R   0.172900 0.310130 0.836270 -0.521546
O7    O     O_R   0.672900 0.189870 0.336270 -0.520691
O8    O     O_R   0.327100 0.810130 0.663730 -0.520691
H1    H     H_    0.212842 0.969335 0.501959 0.088306
H2    H     H_    0.787158 0.030665 0.498041 0.088306
H3    H     H_    0.287862 0.450547 0.998309 0.089842
H4    H     H_    0.712138 0.549453 0.001691 0.089842
C1    C     C_R   0.853318 0.522945 0.143631 0.711207
C2    C     C_R   0.146682 0.477055 0.856368 0.711207
C3    C     C_R   0.646673 0.022944 0.356355 0.711123
C4    C     C_R   0.353327 0.977056 0.643645 0.711122
O9    O     O_R   0.663490 0.691370 0.155500 -0.533022
O10   O     O_R   0.336510 0.308630 0.844500 -0.533022
O11   O     O_R   0.836510 0.191370 0.344500 -0.532675
O12   O     O_R   0.163490 0.808630 0.655500 -0.532675
O13   O     O_R   0.671770 0.863320 0.325740 -0.514473
O14   O     O_R   0.328230 0.136680 0.674260 -0.514473
O15   O     O_R   0.828230 0.363320 0.174260 -0.513739
O16   O     O_R   0.171770 0.636680 0.825740 -0.513739
C5    C     C_R   0.635303 0.523170 0.134779 0.772076
C6    C     C_R   0.364697 0.476830 0.865220 0.772076
C7    C     C_R   0.864728 0.023025 0.365161 0.772714
C8    C     C_R   0.135272 0.976975 0.634839 0.772714
H5    H     H_    0.133421 0.005064 0.231483 0.157799
H6    H     H_    0.866579 0.994936 0.768517 0.157798
H7    H     H_    0.367443 0.480015 0.268904 0.157999
H8    H     H_    0.632557 0.519985 0.731096 0.157999
O17   O     O_3   0.752910 0.528800 0.305860 -0.367283
O18   O     O_3   0.247090 0.471200 0.694140 -0.367283
O19   O     O_3   0.747090 0.028800 0.194140 -0.367399
O20   O     O_3   0.252910 0.971200 0.805860 -0.367399
V1    V     V_3+5 0.749460 0.803010 0.239640 1.565506
V2    V     V_3+5 0.250540 0.196990 0.760360 1.565506
V3    V     V_3+5 0.750540 0.303010 0.260360 1.566604
V4    V     V_3+5 0.249460 0.696990 0.739640 1.566604
C9    C     C_1   0.468837 0.994765 0.530138 0.046322
C10   C     C_1   0.531163 0.005235 0.469861 0.046322
C11   C     C_1   0.031167 0.494761 0.969867 0.046595
C12   C     C_1   0.968833 0.505239 0.030133 0.046595
H9    H     H_    0.758066 0.022322 0.650313 0.141476
H10   H     H_    0.241934 0.977678 0.349687 0.141476
H11   H     H_    0.740798 0.552808 0.849240 0.141313
H12   H     H_    0.259201 0.447192 0.150760 0.141313
C13   C     C_R   0.037027 0.011060 0.318367 0.339646
C14   C     C_R   0.962973 0.988939 0.681633 0.339646
C15   C     C_R   0.463338 0.499392 0.181795 0.339747
C16   C     C_R   0.536662 0.500608 0.818205 0.339747
C17   C     C_R   0.117897 0.000612 0.299247 -0.123537
C18   C     C_R   0.882103 0.999388 0.700753 -0.123537
C19   C     C_R   0.382832 0.479839 0.201062 -0.123490
C20   C     C_R   0.617167 0.520161 0.798938 -0.123490
C21   C     C_R   0.179580 0.985350 0.365831 -0.187129
C22   C     C_R   0.820419 0.014650 0.634169 -0.187128
C23   C     C_R   0.321294 0.461689 0.134510 -0.187072
C24   C     C_R   0.678706 0.538311 0.865490 -0.187072
C25   C     C_R   0.161767 0.980747 0.453132 -0.133860
C26   C     C_R   0.838233 0.019253 0.546868 -0.133860
C27   C     C_R   0.338857 0.463847 0.047102 -0.135180
C28   C     C_R   0.661143 0.536153 0.952898 -0.135180
C29   C     C_R   0.080856 0.990467 0.476637 0.018956
C30   C     C_R   0.919144 0.009533 0.523363 0.018956
C31   C     C_R   0.419434 0.482327 0.023464 0.018940
C32   C     C_R   0.580566 0.517673 0.976536 0.018940
C33   C     C_R   0.016165 0.005046 0.408357 -0.001763
C34   C     C_R   0.983835 0.994954 0.591642 -0.001763
C35   C     C_R   0.484048 0.498577 0.091717 -0.001368
C36   C     C_R   0.515952 0.501422 0.908282 -0.001368
C37   C     C_R   0.065195 0.986318 0.567191 -0.152163
C38   C     C_R   0.934805 0.013682 0.432809 -0.152163
C39   C     C_R   0.434836 0.485489 0.932824 -0.152117
C40   C     C_R   0.565164 0.514511 0.067175 -0.152117
C41   C     C_1   0.416034 0.986188 0.581515 -0.108118
C42   C     C_1   0.583966 0.013812 0.418484 -0.108118
C43   C     C_1   0.083974 0.486179 0.918496 -0.107858
C44   C     C_1   0.916026 0.513821 0.081504 -0.107858
Cl1   Cl    Cl    0.968766 0.034459 0.223383 -0.672681
Cl2   Cl    Cl    0.031234 0.965541 0.776617 -0.672681
Cl3   Cl    Cl    0.531181 0.529642 0.276629 -0.672377
Cl4   Cl    Cl    0.468819 0.470358 0.723371 -0.672377

loop_
_geom_bond_atom_site_label_1
_geom_bond_atom_site_label_2
_ccdc_geom_bond_type
C22   C26   A    
O5    V1    S    
C9    C10   S    
O10   C6    A    
H6    C18   S    
O17   V3    S    
H1    C25   S    
C28   C32   A    
O19   V1    S    
C19   C23   A    
C9    C41   T    
C35   C40   A    
O12   V4    S    
C29   C33   A    
C3    C42   S    
C2    O16   A    
C30   C38   A    
C29   C37   A    
C1    O15   A    
C4    C41   S    
C13   Cl1   S    
C16   Cl4   S    
H11   C24   S    
O6    V2    S    
C7    C38   S    
O11   C7    A    
O5    C1    A    
O7    C3    A    
C1    C44   S    
O8    C4    A    
C13   C33   A    
O1    C5    A    
H2    C26   S    
C15   C35   A    
C36   C39   A    
C8    C37   S    
O4    C8    A    
C27   C31   A    
H9    C22   S    
C26   C30   A    
C12   C44   T    
C17   C21   A    
O9    V1    S    
O12   C8    A    
C15   C19   A    
C20   C24   A    
C11   C12   S    
C16   C36   A    
C25   C29   A    
O6    C2    A    
C32   C36   A    
C34   C37   A    
C6    C39   S    
C33   C38   A    
O2    C6    A    
C14   C18   A    
C2    C43   S    
O11   V3    S    
O4    V2    S    
C10   C42   T    
H10   C21   S    
O18   V4    S    
C31   C39   A    
C15   Cl3   S    
C14   Cl2   S    
H12   C23   S    
C18   C22   A    
H4    C28   S    
C4    O14   A    
C23   C27   A    
C21   C25   A    
C32   C40   A    
H3    C27   S    
C24   C28   A    
C5    C40   S    
O9    C5    A    
O3    C7    A    
C14   C34   A    
C30   C34   A    
H5    C17   S    
C13   C17   A    
O20   V2    S    
O16   V4    S    
H8    C20   S    
C31   C35   A    
O10   V2    S    
O1    V3    S    
O2    V4    S    
C3    O13   A    
O13   V1    S    
O3    V1    S    
O7    V3    S    
O8    V4    S    
H7    C19   S    
C11   C43   T    
O15   V3    S    
C16   C20   A    
O14   V2    S    
