data_mof_unit_52792.cif
_audit_creation_date              2012-12-11T16:29:36-0500
_audit_creation_method            fapswitch 2.2
_symmetry_space_group_name_H-M    P1
_symmetry_Int_Tables_number       1
_space_group_crystal_system       triclinic
_cell_length_a                    6.952035
_cell_length_b                    17.236454
_cell_length_c                    18.867412
_cell_angle_alpha                 106.125098
_cell_angle_beta                  90.101983
_cell_angle_gamma                 90.932036
_cell_volume                      2171.57096305

loop_
_atom_site_label
_atom_site_type_symbol
_atom_type_description
_atom_site_fract_x
_atom_site_fract_y
_atom_site_fract_z
_atom_type_partial_charge
O1    O     O_R   0.494360 0.415680 0.413760 -0.518075
O2    O     O_R   0.818810 0.432910 0.557230 -0.520486
O3    O     O_R   0.994290 0.584320 0.586240 -0.528031
C1    C     C_R   0.650180 0.416735 0.581272 0.765515
O4    O     O_R   0.823740 0.406440 0.412520 -0.540733
O5    O     O_R   0.999250 0.557660 0.440500 -0.529345
C2    C     C_R   0.652355 0.380969 0.387024 0.857193
O6    O     O_R   0.489400 0.442340 0.559500 -0.509808
O7    O     O_3   0.662500 0.549650 0.509350 -0.361301
V1    V     V_3+5 0.935340 0.490790 0.498270 1.468242
O8    O     O_R   0.329270 0.567090 0.442770 -0.519252
C3    C     C_R   0.161222 0.584132 0.419442 0.702959
O9    O     O_R   0.324340 0.593560 0.587480 -0.533052
C4    C     C_R   0.156600 0.614579 0.616492 0.744389
V2    V     V_3+5 0.435970 0.509210 0.501730 1.482642
O10   O     O_3   0.158940 0.450350 0.490650 -0.356558
C5    C     C_R   0.223982 0.593725 0.768015 0.047406
C6    C     C_R   0.287088 0.591884 0.838717 0.177259
C7    C     C_R   0.235693 0.654496 0.900234 0.170386
C8    C     C_R   0.131560 0.718794 0.889461 0.042883
C9    C     C_R   0.137983 0.735472 0.820206 -0.013047
C10   C     C_R   0.169765 0.669558 0.756411 -0.024934
C11   C     C_R   0.112717 0.815619 0.814748 -0.103076
C12   C     C_R   0.102989 0.829706 0.743256 -0.041039
C13   C     C_R   0.112844 0.761689 0.679214 0.009995
C14   C     C_R   0.146747 0.682455 0.685366 -0.102920
C15   C     C_R   0.083066 0.908592 0.731636 0.133131
C16   C     C_R   0.064767 0.917375 0.660170 0.268902
C17   C     C_R   0.067866 0.850130 0.598579 0.144763
C18   C     C_R   0.093398 0.773825 0.608346 -0.219901
H1    H     H_    0.098584 0.723831 0.558937 0.108995
C19   C     C_1   0.111857 0.864936 0.133517 -0.099615
C20   C     C_1   0.119276 0.822498 0.177195 0.093768
C21   C     C_1   0.128654 0.772182 0.228977 0.050387
C22   C     C_1   0.136691 0.729690 0.272609 0.025848
C23   C     C_1   0.146117 0.679203 0.324257 -0.009501
C24   C     C_1   0.153570 0.636378 0.367612 -0.239396
C25   C     C_1   0.641985 0.364591 0.633150 -0.153324
C26   C     C_1   0.637832 0.321613 0.676391 0.065137
C27   C     C_1   0.634264 0.270850 0.727819 0.052221
C28   C     C_1   0.631511 0.228058 0.771244 0.041098
C29   C     C_1   0.627825 0.177275 0.822665 0.055605
C30   C     C_1   0.623410 0.134304 0.865918 -0.151877
C31   C     C_R   0.718749 0.413397 0.245657 0.095478
C32   C     C_R   0.787966 0.428460 0.180862 0.094809
C33   C     C_R   0.796106 0.366076 0.116384 0.259692
C34   C     C_R   0.733748 0.288218 0.114795 0.131779
C35   C     C_R   0.681440 0.267395 0.181404 -0.076829
C36   C     C_R   0.680558 0.331881 0.248760 0.001633
C37   C     C_R   0.626358 0.186524 0.183033 -0.101638
C38   C     C_R   0.569368 0.171066 0.250938 -0.066544
C39   C     C_R   0.561429 0.236445 0.317120 -0.030121
C40   C     C_R   0.633552 0.314871 0.316809 -0.109024
C41   C     C_R   0.515681 0.091496 0.255366 0.109325
C42   C     C_R   0.409096 0.081444 0.315060 0.151347
C43   C     C_R   0.390055 0.146082 0.378060 0.134191
C44   C     C_R   0.479267 0.220590 0.381745 0.156959
O11   O     O_R   0.775690 0.057750 0.940570 -0.534163
O12   O     O_R   0.441200 0.093570 0.087490 -0.532571
O13   O     O_R   0.265840 0.942320 0.059480 -0.509110
C45   C     C_R   0.611902 0.118563 0.113853 0.739429
O14   O     O_R   0.446270 0.067110 0.942790 -0.534672
O15   O     O_R   0.270950 0.915660 0.913750 -0.537827
C46   C     C_R   0.614795 0.082157 0.917793 0.677283
O16   O     O_R   0.770580 0.084400 0.086300 -0.533860
O17   O     O_3   0.602640 0.950400 0.990690 -0.332726
V3    V     V_3+5 0.329740 0.009200 0.001730 1.473579
O18   O     O_R   0.940900 0.906360 0.912450 -0.529601
C47   C     C_R   0.108334 0.883412 0.884510 0.713151
O19   O     O_R   0.935830 0.932820 0.057160 -0.502282
C48   C     C_R   0.103962 0.916553 0.081138 0.777936
V4    V     V_3+5 0.829130 0.990680 0.998180 1.498278
O20   O     O_3   0.106100 0.049590 0.009310 -0.373285
N1    N     N_3   0.049157 0.860393 0.525803 -0.673226
H2    H     H_    0.906384 0.875339 0.519176 0.228619
H3    H     H_    0.073652 0.806101 0.485510 0.235395
N2    N     N_3   0.672332 0.482071 0.305902 -0.660376
H4    H     H_    0.794179 0.519206 0.321133 0.233608
H5    H     H_    0.564196 0.514619 0.289043 0.226810
N3    N     N_3   0.844712 0.508366 0.178903 -0.654744
H6    H     H_    0.727979 0.546881 0.193480 0.251314
H7    H     H_    0.956653 0.529147 0.216815 0.238446
N4    N     N_3   0.859894 0.381937 0.049291 -0.581039
H8    H     H_    0.771225 0.425512 0.037915 0.277325
H9    H     H_    0.000292 0.405553 0.057448 0.258796
N5    N     N_3   0.719362 0.234048 0.042582 -0.634456
H10   H     H_    0.827654 0.191600 0.034899 0.254501
H11   H     H_    0.579204 0.211013 0.032649 0.217005
I1    I     I_    0.627170 0.979165 0.189320 -0.350019
N6    N     N_3   0.327780 0.003495 0.312303 -0.640154
H12   H     H_    0.179011 0.008680 0.319394 0.234843
H13   H     H_    0.386367 0.983507 0.355031 0.241857
N7    N     N_3   0.483994 0.279205 0.452320 -0.671129
H14   H     H_    0.342807 0.291961 0.470368 0.269709
H15   H     H_    0.555029 0.254371 0.489561 0.226070
I2    I     I_    0.171255 0.476764 0.692437 -0.328962
I3    I     I_    0.446989 0.492303 0.853793 -0.268239
I4    I     I_    0.294016 0.650351 0.010238 -0.275772
I5    I     I_    0.877023 0.746231 0.953942 -0.288435
N8    N     N_3   0.083470 0.982519 0.789814 -0.633748
H16   H     H_    0.212630 0.990020 0.819365 0.230857
H17   H     H_    0.962099 0.984784 0.822540 0.236872
N9    N     N_3   0.044364 0.996788 0.651022 -0.614836
H18   H     H_    0.156054 0.007216 0.617589 0.247585
H19   H     H_    0.913775 0.998745 0.624065 0.227503
N10   N     N_3   0.289392 0.136011 0.441444 -0.678267
H20   H     H_    0.356079 0.091238 0.459901 0.235593
H21   H     H_    0.147556 0.117814 0.426182 0.236627

loop_
_geom_bond_atom_site_label_1
_geom_bond_atom_site_label_2
_ccdc_geom_bond_type
C31   C36   A    
C42   C43   A    
N7    H14   S    
C28   C29   S    
C11   C47   S    
C7    C8    A    
C12   C15   A    
C1    O6    A    
N2    H4    S    
C31   C32   A    
N1    H3    S    
O14   V3    S    
C16   C17   A    
C6    C7    A    
C42   N6    S    
O5    C3    A    
C25   C26   T    
N5    H11   S    
N10   H20   S    
V2    O10   S    
C43   C44   A    
C21   C22   T    
C3    C24   S    
O14   C46   A    
O12   V3    S    
C41   C42   A    
O8    V2    S    
O17   V4    S    
C34   C35   A    
O13   V3    S    
O18   C47   A    
C11   C12   A    
O19   C48   A    
V3    O20   S    
C6    I3    S    
O7    V1    S    
C35   C37   A    
O17   V3    S    
N7    H15   S    
C44   N7    S    
O9    C4    A    
C7    I4    S    
C30   C46   S    
C20   C21   S    
C19   C48   S    
N2    H5    S    
O11   C46   A    
O15   V3    S    
C15   N8    S    
O12   C45   A    
N1    H2    S    
C38   C39   A    
C34   N5    S    
O15   C47   A    
C12   C13   A    
C41   I1    S    
N3    H7    S    
C26   C27   S    
O4    C2    A    
N5    H10   S    
V4    O20   S    
C17   N1    S    
O13   C48   A    
C37   C38   A    
C13   C14   A    
C32   C33   A    
C22   C23   S    
O2    C1    A    
C17   C18   A    
N6    H13   S    
N4    H8    S    
O18   V4    S    
N8    H17   S    
C5    C6    A    
N9    H19   S    
C5    I2    S    
C4    C14   S    
C43   N10   S    
O3    C4    A    
O1    V2    S    
C35   C36   A    
N4    H9    S    
C1    C25   S    
O6    V2    S    
C9    C11   A    
C29   C30   T    
C2    C40   S    
O2    V1    S    
C15   C16   A    
C39   C40   A    
C13   C18   A    
C33   C34   A    
C27   C28   T    
O1    C2    A    
N3    H6    S    
O5    V1    S    
O8    C3    A    
O16   V4    S    
C31   N2    S    
C5    C10   A    
C38   C41   A    
C19   C20   T    
O9    V2    S    
O7    V2    S    
O4    V1    S    
O3    V1    S    
V1    O10   S    
C16   N9    S    
O11   V4    S    
N6    H12   S    
C18   H1    S    
C8    I5    S    
N10   H21   S    
C36   C40   A    
N8    H16   S    
C32   N3    S    
C39   C44   A    
C33   N4    S    
C45   O16   A    
C8    C9    A    
C23   C24   T    
C10   C14   A    
N9    H18   S    
C37   C45   S    
O19   V4    S    
C9    C10   A    
