data_mof_unit_50690.cif
_audit_creation_date              2012-12-10T17:43:54-0500
_audit_creation_method            fapswitch 2.2
_symmetry_space_group_name_H-M    P1
_symmetry_Int_Tables_number       1
_space_group_crystal_system       triclinic
_cell_length_a                    15.870114
_cell_length_b                    15.03838
_cell_length_c                    13.704309
_cell_angle_alpha                 90.455517
_cell_angle_beta                  89.677791
_cell_angle_gamma                 88.707013
_cell_volume                      3269.69020928

loop_
_atom_site_label
_atom_site_type_symbol
_atom_type_description
_atom_site_fract_x
_atom_site_fract_y
_atom_site_fract_z
_atom_type_partial_charge
C1    C     C_R   0.502994 0.328840 0.499454 0.889338
C2    C     C_R   0.497371 0.671136 0.500589 0.899772
C3    C     C_R   0.494576 0.767654 0.502823 -0.172743
C4    C     C_R   0.506093 0.232252 0.497477 -0.183574
C5    C     C_R   0.567944 0.810389 0.529097 -0.199691
C6    C     C_R   0.433070 0.189367 0.470203 -0.208272
C7    C     C_R   0.570221 0.903129 0.533867 0.015157
C8    C     C_R   0.430580 0.096621 0.466496 0.027544
C9    C     C_R   0.498901 0.953110 0.501960 -0.011643
C10   C     C_R   0.501726 0.046739 0.499102 0.006029
C11   C     C_R   0.424573 0.909487 0.473257 -0.051165
C12   C     C_R   0.575793 0.090395 0.528750 -0.045916
C13   C     C_R   0.641619 0.947178 0.569563 0.408517
C14   C     C_R   0.359007 0.052445 0.431353 0.313815
C15   C     C_R   0.642276 0.039874 0.568919 -0.167294
C16   C     C_R   0.357877 0.959801 0.433399 -0.163368
C17   C     C_R   0.548745 0.439331 0.792565 0.078209
C18   C     C_R   0.451403 0.560832 0.207424 0.078428
C19   C     C_R   0.451078 0.560931 0.793644 0.115728
C20   C     C_R   0.548797 0.438959 0.206311 0.119332
C21   C     C_R   0.449794 0.563720 0.897202 -0.108493
C22   C     C_R   0.550368 0.436447 0.102742 -0.106712
C23   C     C_R   0.339744 0.498911 0.500167 0.880582
C24   C     C_R   0.660205 0.501555 0.499828 0.889531
C25   C     C_R   0.499842 0.500508 0.948167 0.043238
C26   C     C_R   0.500377 0.499739 0.051798 0.040803
C27   C     C_R   0.549512 0.437913 0.895370 -0.052963
C28   C     C_R   0.450677 0.562323 0.104591 -0.050593
C29   C     C_R   0.400516 0.627054 0.951326 0.406313
C30   C     C_R   0.599771 0.373233 0.048549 0.418060
C31   C     C_R   0.401398 0.625235 0.054114 -0.221784
C32   C     C_R   0.598819 0.375049 0.945786 -0.220837
C33   C     C_3   0.971196 0.476526 0.588319 -0.228111
C34   C     C_3   0.028538 0.526408 0.411531 -0.240412
C35   C     C_3   0.029394 0.418745 0.520181 -0.219497
C36   C     C_3   0.970277 0.584156 0.479641 -0.258502
C37   C     C_1   0.250073 0.499279 0.500542 -0.088578
C38   C     C_1   0.749800 0.502055 0.499388 -0.038194
C39   C     C_3   0.025711 0.557805 0.567256 0.397443
C40   C     C_3   0.973985 0.445151 0.432600 0.410676
C41   C     C_3   0.082927 0.500995 0.500289 0.002779
C42   C     C_3   0.916832 0.501950 0.499571 -0.003171
C43   C     C_1   0.174558 0.500094 0.500587 0.078548
C44   C     C_1   0.825265 0.502143 0.499300 0.083757
C45   C     C_R   0.419867 0.816321 0.483438 0.368012
C46   C     C_R   0.580451 0.183693 0.519187 0.313546
Cu1   Cu    Cu3+1 0.500010 0.499990 0.597420 1.029820
Cu2   Cu    Cu3+1 0.499990 0.500010 0.402580 1.025484
H1    H     H_    0.054254 0.350727 0.535552 0.215665
H2    H     H_    0.945348 0.652149 0.464263 0.195997
H3    H     H_    0.363561 0.673314 0.095362 0.200901
H4    H     H_    0.636585 0.326957 0.904472 0.202562
H5    H     H_    0.946999 0.457165 0.661096 0.210030
H6    H     H_    0.052711 0.545788 0.338748 0.197487
H7    H     H_    0.622540 0.769596 0.547118 0.205633
H8    H     H_    0.378728 0.230075 0.451047 0.213208
H9    H     H_    0.694180 0.072252 0.603569 0.242730
H10   H     H_    0.305468 0.927138 0.400009 0.243207
H11   H     H_    0.587008 0.391822 0.751132 0.169195
H12   H     H_    0.413176 0.608384 0.248867 0.166499
H13   H     H_    0.413325 0.606989 0.751529 0.210644
H14   H     H_    0.586134 0.392489 0.248369 0.194239
N1    N     N_R   0.499960 0.499930 0.743810 -0.217857
N2    N     N_R   0.500040 0.500070 0.256190 -0.216710
O1    O     O_R   0.500020 0.370250 0.582280 -0.577605
O2    O     O_R   0.499980 0.629750 0.417720 -0.585598
O3    O     O_R   0.500010 0.370270 0.417740 -0.576495
O4    O     O_R   0.499990 0.629730 0.582260 -0.558608
O5    O     O_R   0.379080 0.499980 0.582260 -0.566243
O6    O     O_R   0.620920 0.500020 0.417740 -0.561467
O7    O     O_R   0.379070 0.500000 0.417710 -0.569436
O8    O     O_R   0.620930 0.500000 0.582290 -0.577753
S1    S     S_3+6 0.337651 0.709758 0.893234 0.057810
O9    O     O_2   0.270865 0.665219 0.834210 -0.227373
O10   O     O_2   0.296194 0.771208 0.967033 -0.211634
O11   O     O_3   0.398855 0.769246 0.818638 -0.513554
H15   H     H_    0.359161 0.800592 0.774435 0.402333
S2    S     S_3+6 0.662869 0.290594 0.106378 0.036864
O12   O     O_2   0.607496 0.233511 0.168027 -0.288917
O13   O     O_2   0.708653 0.233043 0.032169 -0.214887
O14   O     O_3   0.733658 0.340306 0.178121 -0.487515
H16   H     H_    0.764414 0.290872 0.210670 0.419308
S3    S     S_3+6 0.938916 0.369625 0.341573 0.087125
O15   O     O_2   0.880359 0.304561 0.387202 -0.166656
O16   O     O_2   0.893125 0.420204 0.263201 -0.237654
O17   O     O_3   0.022145 0.313994 0.292652 -0.426305
H17   H     H_    0.060438 0.360761 0.269969 0.350361
S4    S     S_3+6 0.059701 0.634129 0.658041 0.081350
O18   O     O_2   0.122692 0.588289 0.723013 -0.200539
O19   O     O_2   0.099885 0.712228 0.610225 -0.217768
O20   O     O_3   0.976543 0.669667 0.725368 -0.438543
H18   H     H_    0.936108 0.694930 0.677650 0.344078
S5    S     S_3+6 0.321446 0.761056 0.488930 0.015523
O21   O     O_2   0.248788 0.824566 0.509146 -0.231139
O22   O     O_2   0.307078 0.712789 0.394274 -0.298288
O23   O     O_3   0.325270 0.687403 0.580504 -0.546079
H19   H     H_    0.265832 0.673615 0.594942 0.410259
S6    S     S_3+6 0.678784 0.239564 0.518889 0.035409
O24   O     O_2   0.689563 0.286304 0.615145 -0.276465
O25   O     O_2   0.752972 0.177573 0.500931 -0.207609
O26   O     O_3   0.678521 0.315092 0.429324 -0.518760
H20   H     H_    0.669165 0.280450 0.368744 0.371487
S7    S     S_3+6 0.730426 0.889067 0.618257 0.047547
O27   O     O_2   0.794522 0.952683 0.656080 -0.201399
O28   O     O_2   0.701960 0.830955 0.700327 -0.265159
O29   O     O_3   0.775106 0.825082 0.530079 -0.526057
H21   H     H_    0.817789 0.787656 0.563943 0.369685
S8    S     S_3+6 0.270194 0.110264 0.382220 0.067744
O30   O     O_2   0.298542 0.167147 0.299103 -0.215629
O31   O     O_2   0.205615 0.046766 0.345292 -0.193220
O32   O     O_3   0.225694 0.176195 0.468750 -0.508960
H22   H     H_    0.212972 0.135797 0.523366 0.364052

loop_
_geom_bond_atom_site_label_1
_geom_bond_atom_site_label_2
_ccdc_geom_bond_type
C20   N2    A    
S5    O21   D    
S1    O10   D    
S1    O9    D    
C23   O5    A    
C36   C42   S    
O32   H22   S    
C45   S5    S    
O14   H16   S    
C24   O6    A    
C39   C41   S    
C4    C46   A    
C6    H8    S    
O26   H20   S    
C34   C40   S    
C33   C42   S    
C19   C21   A    
C2    O4    A    
Cu1   N1    S    
S2    O13   D    
Cu2   N2    S    
C29   S1    S    
O29   H21   S    
S8    O30   D    
C32   H4    S    
C33   C35   S    
C33   C39   S    
Cu1   O5    S    
S3    O15   D    
C19   N1    A    
C35   H1    S    
C1    O1    A    
C12   C15   A    
C13   S7    S    
C9    C10   A    
C40   C42   S    
C46   S6    S    
S5    O22   D    
C41   C43   S    
C40   S3    S    
C34   C41   S    
C42   C44   S    
C39   S4    S    
C36   C39   S    
C33   H5    S    
C17   C27   A    
C23   O7    A    
C18   C28   A    
O11   H15   S    
C12   C46   A    
Cu2   O6    S    
O20   H18   S    
C5    C7    A    
S2    O12   D    
C6    C8    A    
C2    O2    A    
C25   C26   A    
C23   C37   S    
C21   C29   A    
C3    C45   A    
C37   C43   T    
C38   C44   T    
C11   C16   A    
C24   C38   S    
Cu1   Cu2   S    
S4    O20   S    
O23   H19   S    
S7    O28   D    
C16   H10   S    
C9    C11   A    
C10   C12   A    
C17   H11   S    
C4    C6    A    
S3    O16   D    
S4    O19   D    
C34   H6    S    
S5    O23   S    
S6    O25   D    
C13   C15   A    
S1    O11   S    
C14   C16   A    
C11   C45   A    
C20   C22   A    
Cu2   O7    S    
Cu1   O4    S    
C36   H2    S    
C24   O8    A    
C18   H12   S    
C7    C9    A    
C21   C25   A    
C8    C14   A    
C22   C30   A    
C27   C32   A    
O17   H17   S    
C5    H7    S    
C28   C31   A    
C31   H3    S    
C3    C5    A    
C25   C27   A    
S6    O26   S    
C26   C28   A    
S8    O32   S    
C1    C4    S    
C2    C3    S    
C29   C31   A    
C17   N1    A    
C30   C32   A    
S2    O14   S    
C18   N2    A    
C19   H13   S    
C15   H9    S    
C14   S8    S    
C1    O3    A    
S8    O31   D    
C35   C40   S    
S7    O29   S    
C34   C36   S    
Cu2   O3    S    
C20   H14   S    
C35   C41   S    
Cu1   O8    S    
C30   S2    S    
C7    C13   A    
S3    O17   S    
S4    O18   D    
C8    C10   A    
S6    O24   D    
C22   C26   A    
S7    O27   D    
Cu2   O2    S    
Cu1   O1    S    
