data_mof_unit_15890.cif
_audit_creation_date              2012-10-26T19:45:12-0400
_audit_creation_method            fapswitch 2.2
_symmetry_space_group_name_H-M    P1
_symmetry_Int_Tables_number       1
_space_group_crystal_system       triclinic
_cell_length_a                    9.504043
_cell_length_b                    10.860609
_cell_length_c                    13.909382
_cell_angle_alpha                 90.547952
_cell_angle_beta                  85.145504
_cell_angle_gamma                 90.898877
_cell_volume                      1430.34705256

loop_
_atom_site_label
_atom_site_type_symbol
_atom_type_description
_atom_site_fract_x
_atom_site_fract_y
_atom_site_fract_z
_atom_type_partial_charge
C1    C     C_R   0.501374 0.737927 0.498707 0.557617
C2    C     C_R   0.931142 0.423253 0.440100 -0.058224
C3    C     C_1   0.535518 0.506348 0.214578 -0.047910
C4    C     C_1   0.464326 0.494033 0.785529 -0.036720
C5    C     C_2   0.554178 0.520535 0.024700 0.026262
C6    C     C_2   0.445098 0.480263 0.975523 0.027623
C7    C     C_1   0.454212 0.488018 0.871924 -0.042563
C8    C     C_1   0.545309 0.512577 0.128232 -0.045719
C9    C     C_R   0.631210 0.939705 0.486921 0.238968
C10   C     C_R   0.369195 0.059823 0.502351 0.231987
C11   C     C_R   0.626454 0.067412 0.491337 -0.185461
C12   C     C_R   0.498800 0.262019 0.499248 0.556618
C13   C     C_R   0.373913 0.932378 0.501302 -0.178500
C14   C     C_3   0.898942 0.757675 0.659429 0.015732
C15   C     C_3   0.945864 0.732086 0.760076 -0.290640
C16   C     C_3   0.032184 0.839487 0.796768 -0.487984
C17   C     C_3   0.123919 0.328123 0.287223 0.007016
C18   C     C_3   0.063533 0.198418 0.272333 -0.264040
C19   C     C_3   0.018623 0.181185 0.170293 -0.493865
C20   C     C_3   0.312865 0.423660 0.025697 -0.399429
C21   C     C_3   0.686031 0.577804 0.974645 -0.394202
C22   C     C_3   0.835185 0.900582 0.389859 -0.006093
C23   C     C_R   0.496983 0.128144 0.497777 -0.022809
C24   C     C_3   0.827563 0.783200 0.328643 -0.228554
C25   C     C_3   0.912866 0.796717 0.231295 -0.498668
C26   C     C_3   0.168191 0.122575 0.590455 0.027376
C27   C     C_3   0.009535 0.130912 0.580130 -0.257557
C28   C     C_3   0.929958 0.182447 0.671181 -0.477098
C29   C     C_R   0.503329 0.871713 0.496228 -0.018813
C30   C     C_R   0.477513 0.499359 0.682909 0.541305
C31   C     C_R   0.522470 0.500742 0.317122 0.535871
C32   C     C_R   0.918235 0.578747 0.560267 0.381757
C33   C     C_R   0.081640 0.424169 0.438114 0.373693
C34   C     C_R   0.069113 0.576130 0.560471 -0.051333
Cu1   Cu    Cu3+1 0.359340 0.499980 0.500000 0.985948
Cu2   Cu    Cu3+1 0.640660 0.500020 0.500000 0.983819
H1    H     H_    0.125098 0.633258 0.608817 0.116981
H2    H     H_    0.064471 0.817950 0.869545 0.150281
H3    H     H_    0.968050 0.924140 0.802087 0.141767
H4    H     H_    0.221184 0.339372 0.237752 0.153880
H5    H     H_    0.050081 0.399839 0.265785 0.090348
H6    H     H_    0.144959 0.129439 0.285174 0.193508
H7    H     H_    0.970887 0.181142 0.324845 0.140382
H8    H     H_    0.934747 0.247406 0.156750 0.151224
H9    H     H_    0.976436 0.086231 0.161598 0.141930
H10   H     H_    0.110386 0.195451 0.116404 0.144141
H11   H     H_    0.234964 0.398729 0.973250 0.124671
H12   H     H_    0.876837 0.360206 0.394932 0.115817
H13   H     H_    0.339689 0.338692 0.063543 0.122650
H14   H     H_    0.262619 0.489976 0.078826 0.126010
H15   H     H_    0.764137 0.602352 0.027064 0.121482
H16   H     H_    0.736232 0.512180 0.920941 0.135295
H17   H     H_    0.658537 0.663111 0.937528 0.128954
H18   H     H_    0.947493 0.920398 0.401743 0.143938
H19   H     H_    0.798191 0.980156 0.348954 0.111296
H20   H     H_    0.869488 0.704943 0.367830 0.190820
H21   H     H_    0.715682 0.762299 0.316195 0.170645
H22   H     H_    0.869365 0.871457 0.189202 0.142499
H23   H     H_    0.725440 0.118637 0.488182 0.131999
H24   H     H_    0.906959 0.709223 0.189742 0.144286
H25   H     H_    0.025361 0.817865 0.241636 0.148083
H26   H     H_    0.205550 0.206447 0.627784 0.162958
H27   H     H_    0.185340 0.041031 0.636074 0.091702
H28   H     H_    0.990695 0.191156 0.518720 0.192570
H29   H     H_    0.966915 0.037699 0.564487 0.160566
H30   H     H_    0.949563 0.126097 0.734650 0.134093
H31   H     H_    0.814865 0.181229 0.662465 0.159177
H32   H     H_    0.964239 0.279107 0.683859 0.155232
H33   H     H_    0.274741 0.881325 0.504102 0.140985
H34   H     H_    0.819231 0.831623 0.667339 0.184200
H35   H     H_    0.985663 0.795825 0.608937 0.110847
H36   H     H_    0.850876 0.716701 0.810941 0.163203
H37   H     H_    0.009746 0.647355 0.759267 0.157462
H38   H     H_    0.128684 0.855711 0.747424 0.142746
N1    N     N_R   0.147930 0.499970 0.499980 -0.242374
N2    N     N_R   0.852070 0.500030 0.500020 -0.246827
O1    O     O_R   0.381260 0.680340 0.500000 -0.538625
O2    O     O_3   0.163611 0.340739 0.382692 -0.498155
O3    O     O_3   0.760683 0.881895 0.481402 -0.561037
O4    O     O_3   0.240067 0.115333 0.497338 -0.527895
O5    O     O_R   0.618740 0.319660 0.500000 -0.537791
O6    O     O_R   0.618830 0.680370 0.500010 -0.413053
O7    O     O_R   0.381170 0.319630 0.499990 -0.411384
O8    O     O_R   0.364420 0.499960 0.637840 -0.522828
O9    O     O_R   0.635580 0.500040 0.362160 -0.524481
O10   O     O_R   0.601990 0.499990 0.637850 -0.445412
O11   O     O_R   0.398010 0.500010 0.362150 -0.463470
O12   O     O_3   0.831990 0.651866 0.622978 -0.510706

loop_
_geom_bond_atom_site_label_1
_geom_bond_atom_site_label_2
_ccdc_geom_bond_type
C31   O9    A    
C34   H1    S    
C1    O1    A    
C14   H35   S    
Cu1   Cu2   S    
C19   H10   S    
C22   H18   S    
C15   H36   S    
C12   C23   S    
Cu1   N1    S    
C26   C27   S    
C16   H38   S    
C13   C29   A    
C28   H32   S    
C22   O3    S    
C18   H6    S    
C5    C6    D    
C33   O2    S    
C15   C16   S    
C32   O12   S    
C18   C19   S    
C9    O3    S    
C20   H14   S    
Cu2   N2    S    
Cu1   O11   S    
C33   N1    A    
Cu2   O6    S    
C24   H21   S    
C25   H24   S    
C30   O10   A    
C9    C29   A    
C34   N1    A    
C14   H34   S    
C4    C7    T    
C11   H23   S    
C31   O11   A    
C28   H31   S    
C24   C25   S    
C3    C8    T    
C10   O4    S    
C2    H12   S    
C1    O6    A    
Cu1   O1    S    
C26   O4    S    
C12   O7    A    
C17   H4    S    
C32   C34   A    
C28   H30   S    
C26   H27   S    
C20   H13   S    
C27   H29   S    
Cu2   O5    S    
C1    C29   S    
C17   C18   S    
C25   H25   S    
C3    C31   S    
C9    C11   A    
C6    C7    S    
C2    C33   A    
C15   H37   S    
Cu2   O9    S    
C22   C24   S    
C25   H22   S    
C21   H15   S    
C2    N2    A    
C19   H8    S    
Cu1   O7    S    
C10   C13   A    
C32   N2    A    
C5    C8    S    
Cu1   O8    S    
C19   H9    S    
C22   H19   S    
C10   C23   A    
C24   H20   S    
C6    C20   S    
Cu2   O10   S    
C26   H26   S    
C14   O12   S    
C18   H7    S    
C21   H17   S    
C13   H33   S    
C11   C23   A    
C17   O2    S    
C12   O5    A    
C30   O8    A    
C17   H5    S    
C20   H11   S    
C27   H28   S    
C16   H3    S    
C5    C21   S    
C27   C28   S    
C14   C15   S    
C21   H16   S    
C4    C30   S    
C16   H2    S    
