data_mof_unit_55340.cif
_audit_creation_date              2012-12-10T17:49:40-0500
_audit_creation_method            fapswitch 2.2
_symmetry_space_group_name_H-M    P1
_symmetry_Int_Tables_number       1
_space_group_crystal_system       triclinic
_cell_length_a                    10.558517
_cell_length_b                    10.676776
_cell_length_c                    10.004
_cell_angle_alpha                 90.902621
_cell_angle_beta                  89.07161
_cell_angle_gamma                 92.219612
_cell_volume                      1126.63693432

loop_
_atom_site_label
_atom_site_type_symbol
_atom_type_description
_atom_site_fract_x
_atom_site_fract_y
_atom_site_fract_z
_atom_type_partial_charge
C1    C     C_R   0.505341 0.261091 0.497094 0.878893
C2    C     C_R   0.600880 0.068948 0.566557 0.087434
C3    C     C_R   0.516620 0.129090 0.485982 -0.036481
C4    C     C_R   0.258013 0.504651 0.500630 0.912432
C5    C     C_R   0.430689 0.061248 0.405644 -0.151847
C6    C     C_R   0.425092 0.932576 0.412208 -0.173608
C7    C     C_R   0.492484 0.874232 0.511269 -0.082049
C8    C     C_R   0.316487 0.358472 0.143283 -0.209868
C9    C     C_R   0.215302 0.300340 0.076393 -0.000562
C10   C     C_R   0.220040 0.296688 0.936490 0.432838
C11   C     C_R   0.336938 0.327258 0.873230 0.320429
C12   C     C_3   0.961529 0.630159 0.503512 -0.313752
C13   C     C_R   0.409481 0.427940 0.930510 0.016298
C14   C     C_R   0.407871 0.432195 0.074039 0.140961
C15   C     C_R   0.593188 0.559045 0.071275 -0.132526
C16   C     C_R   0.497548 0.740171 0.502761 0.865390
C17   C     C_R   0.596267 0.555693 0.928247 0.177844
C18   C     C_R   0.742197 0.503872 0.498914 0.855603
C19   C     C_3   0.038106 0.391483 0.491721 -0.220974
C20   C     C_3   0.961397 0.456464 0.386885 0.144418
C21   C     C_3   0.877306 0.509736 0.496496 -0.117658
C22   C     C_3   0.953336 0.447012 0.604392 -0.155333
C23   C     C_3   0.047746 0.574996 0.391485 -0.173207
C24   C     C_3   0.039441 0.566580 0.610259 0.482868
C25   C     C_3   0.123104 0.511246 0.500209 -0.120858
C26   C     C_R   0.709734 0.129530 0.619032 -0.180630
C27   C     C_R   0.772076 0.074835 0.723026 -0.054023
C28   C     C_R   0.715103 0.972712 0.788922 0.120553
C29   C     C_R   0.607778 0.909145 0.731295 0.084930
C30   C     C_R   0.569044 0.946283 0.602434 0.062499
H1    H     H_    0.364527 0.878898 0.344071 0.165654
H2    H     H_    0.855867 0.120641 0.762394 0.239281
H3    H     H_    0.850282 0.325434 0.289639 0.191677
H4    H     H_    0.869612 0.462856 0.209625 0.222572
H5    H     H_    0.777919 0.847809 0.920922 0.194273
H6    H     H_    0.693614 0.965405 0.990382 0.218201
H7    H     H_    0.436278 0.875556 0.819284 0.273949
H8    H     H_    0.554192 0.822922 0.909055 0.159737
H9    H     H_    0.136930 0.136334 0.139315 0.220883
H10   H     H_    0.123853 0.252592 0.251089 0.181347
H11   H     H_    0.927050 0.237587 0.970572 0.381220
H12   H     H_    0.669794 0.605880 0.125328 0.137072
H13   H     H_    0.330279 0.041469 0.977218 0.381368
H14   H     H_    0.689359 0.671292 0.797860 0.208733
H15   H     H_    0.778589 0.628765 0.926524 0.205391
H16   H     H_    0.975064 0.807795 0.750214 0.363030
H17   H     H_    0.324924 0.338292 0.246437 0.216500
H18   H     H_    0.070480 0.294444 0.479660 0.188869
H19   H     H_    0.908758 0.396770 0.689867 0.239064
H20   H     H_    0.926137 0.726709 0.508891 0.155156
H21   H     H_    0.089046 0.625402 0.303845 0.184288
H22   H     H_    0.368211 0.107673 0.338985 0.156382
H23   H     H_    0.744262 0.219655 0.582290 0.131163
N1    N     N_R   0.498800 0.498800 0.142780 -0.108285
N2    N     N_R   0.498760 0.498720 0.857170 -0.090490
N3    N     N_3   0.916713 0.396385 0.263701 -0.414070
N4    N     N_3   0.761877 0.943346 0.917847 -0.422087
N5    N     N_3   0.522830 0.831530 0.811531 -0.396992
N6    N     N_3   0.117884 0.231391 0.149103 -0.401747
N7    N     N_3   0.709661 0.597009 0.858966 -0.383402
O1    O     O_R   0.500000 0.316780 0.614690 -0.536392
O2    O     O_2   0.090012 0.080602 0.889040 -0.306688
O3    O     O_3   0.961810 0.284521 0.892729 -0.573020
O4    O     O_2   0.375034 0.112281 0.740209 -0.291867
O5    O     O_2   0.561636 0.219351 0.843350 -0.278948
O6    O     O_3   0.401622 0.101588 0.996702 -0.594787
O7    O     O_2   0.122857 0.554368 0.862508 -0.269758
O8    O     O_2   0.210337 0.726544 0.726112 -0.297645
O9    O     O_3   0.979704 0.740354 0.816630 -0.555886
O10   O     O_R   0.499990 0.316750 0.385360 -0.657875
O11   O     O_R   0.313960 0.499980 0.614650 -0.568749
O12   O     O_R   0.313940 0.499960 0.385310 -0.654582
O13   O     O_R   0.500010 0.683250 0.614640 -0.589493
O14   O     O_R   0.500000 0.683220 0.385310 -0.622371
O15   O     O_R   0.686060 0.500040 0.614690 -0.606885
O16   O     O_R   0.686040 0.500020 0.385350 -0.635017
O17   O     O_2   0.121589 0.223467 0.702385 -0.314209
S1    S     S_3+6 0.097975 0.216183 0.850127 0.023444
S2    S     S_3+6 0.422396 0.188089 0.858062 0.030196
S3    S     S_3+6 0.093157 0.647403 0.757668 0.046176
Zn1   Zn    Zn3+2 0.500010 0.500020 0.653130 1.051522
Zn2   Zn    Zn3+2 0.499990 0.499980 0.346870 0.944087

loop_
_geom_bond_atom_site_label_1
_geom_bond_atom_site_label_2
_ccdc_geom_bond_type
O8    S3    D    
H15   N7    S    
H4    N3    S    
C18   O15   A    
O5    S2    D    
C18   C21   S    
C19   C20   S    
N1    Zn2   S    
C20   N3    S    
C4    C25   S    
C10   S1    S    
O17   S1    D    
O6    S2    S    
C12   C23   S    
C26   C27   A    
C16   O14   A    
C28   C29   A    
C5    C6    A    
H16   O9    S    
H8    N5    S    
C24   S3    S    
C8    C9    A    
C18   O16   A    
C5    H22   S    
N2    Zn1   S    
C9    C10   A    
C17   N2    A    
H7    N5    S    
H3    N3    S    
C6    H1    S    
H10   N6    S    
C13   C14   A    
O14   Zn2   S    
O10   Zn2   S    
O13   Zn1   S    
C16   O13   A    
C15   N1    A    
C19   C22   S    
C24   C25   S    
H6    N4    S    
O16   Zn2   S    
C19   H18   S    
O15   Zn1   S    
C28   N4    S    
C12   C21   S    
C1    C3    S    
C29   C30   A    
C23   H21   S    
C20   C23   S    
H9    N6    S    
C2    C26   A    
C29   N5    S    
C11   S2    S    
C22   H19   S    
C7    C16   S    
C14   N1    A    
O4    S2    D    
C22   C24   S    
H11   O3    S    
C26   H23   S    
C4    O12   A    
C15   C17   A    
C8    C14   A    
C27   H2    S    
O2    S1    D    
O7    S3    D    
C15   H12   S    
C3    C5    A    
C1    O1    A    
C12   H20   S    
C6    C7    A    
O11   Zn1   S    
C12   C24   S    
C1    O10   A    
C2    C30   A    
H5    N4    S    
C2    C3    A    
C8    H17   S    
O1    Zn1   S    
C11   C13   A    
H14   N7    S    
H13   O6    S    
C23   C25   S    
C19   C25   S    
C10   C11   A    
C17   N7    S    
C20   C21   S    
C27   C28   A    
C7    C30   A    
O9    S3    S    
C9    N6    S    
C21   C22   S    
C4    O11   A    
O12   Zn2   S    
C13   N2    A    
O3    S1    S    
