data_mof_unit_46828.cif
_audit_creation_date              2013-03-05T16:43:18-0500
_audit_creation_method            fapswitch 2.2
_symmetry_space_group_name_H-M    P1
_symmetry_Int_Tables_number       1
_space_group_crystal_system       triclinic
_cell_length_a                    15.74258
_cell_length_b                    10.659827
_cell_length_c                    9.858913
_cell_angle_alpha                 90.056003
_cell_angle_beta                  89.93474
_cell_angle_gamma                 90.092666
_cell_volume                      1654.45151096

loop_
_atom_site_label
_atom_site_type_symbol
_atom_site_description
_atom_site_fract_x
_atom_site_fract_y
_atom_site_fract_z
_atom_type_partial_charge
O1    O     O_R   0.500010 0.316790 0.614690 -0.618130
O2    O     O_R   0.500000 0.316760 0.385350 -0.622259
C1    C     C_R   0.496792 0.259910 0.500011 0.876141
O3    O     O_R   0.377150 0.500020 0.614720 -0.619471
O4    O     O_R   0.377140 0.499990 0.385380 -0.614190
C2    C     C_R   0.338320 0.499657 0.500120 0.899474
Zn1   Zn    Zn3+2 0.500010 0.500020 0.653130 0.948117
Zn2   Zn    Zn3+2 0.499990 0.499980 0.346870 0.961048
O5    O     O_R   0.500000 0.683240 0.614650 -0.622681
O6    O     O_R   0.499990 0.683210 0.385310 -0.628028
O7    O     O_R   0.622860 0.500010 0.614620 -0.615091
O8    O     O_R   0.622850 0.499980 0.385280 -0.591125
C3    C     C_R   0.496864 0.740111 0.500057 0.878846
C4    C     C_R   0.661721 0.500334 0.499862 0.905644
C5    C     C_3   0.048330 0.550588 0.637030 -0.414157
C6    C     C_3   0.049180 0.367216 0.480496 -0.481959
C7    C     C_3   0.951008 0.368485 0.478184 -0.371254
H1    H     H_    0.924827 0.496408 0.719257 0.218555
H2    H     H_    0.068969 0.485490 0.718874 0.203293
H3    H     H_    0.073558 0.324844 0.384821 0.183761
H4    H     H_    0.071579 0.306486 0.565040 0.200686
H5    H     H_    0.926788 0.308033 0.561830 0.181085
H6    H     H_    0.927521 0.326067 0.382457 0.225491
C8    C     C_1   0.750568 0.502011 0.499473 -0.146346
C9    C     C_3   0.083059 0.503092 0.498323 0.176352
C10   C     C_3   0.950360 0.554446 0.634582 -0.451226
C11   C     C_3   0.917305 0.504648 0.496602 0.157535
C12   C     C_3   0.951059 0.594182 0.382947 0.099314
C13   C     C_3   0.049339 0.581403 0.374538 0.273615
C14   C     C_1   0.825843 0.503521 0.498447 -0.023855
C15   C     C_1   0.174341 0.500901 0.499638 -0.052968
C16   C     C_1   0.249564 0.499940 0.500166 -0.184073
H7    H     H_    0.062970 0.521679 0.284506 0.165420
H8    H     H_    0.934301 0.691591 0.412857 0.107534
H9    H     H_    0.074175 0.643205 0.666624 0.160149
H10   H     H_    0.928330 0.652358 0.651906 0.175874
C17   C     C_R   0.479781 0.064130 0.623238 0.120222
C18   C     C_R   0.481568 0.128690 0.500578 -0.100122
C19   C     C_R   0.465859 0.064686 0.378763 -0.223050
H11   H     H_    0.460173 0.113590 0.282948 0.166933
C20   C     C_R   0.465888 0.934962 0.378820 -0.221468
H12   H     H_    0.460161 0.885799 0.283024 0.171362
C21   C     C_R   0.481654 0.871308 0.500687 -0.100270
C22   C     C_R   0.479807 0.936177 0.623310 0.134995
C23   C     C_3   0.538080 0.929463 0.742765 -0.486942
C24   C     C_3   0.538101 0.071665 0.742601 -0.464238
H13   H     H_    0.506292 0.888652 0.833333 0.201381
H14   H     H_    0.600955 0.888136 0.717328 0.205171
H15   H     H_    0.506451 0.112831 0.833106 0.200273
H16   H     H_    0.600974 0.113108 0.716905 0.209184
C25   C     C_R   0.465966 0.401417 0.071170 0.219280
N1    N     N_R   0.499430 0.499140 0.142800 -0.109771
C26   C     C_R   0.540637 0.591356 0.072016 -0.107095
H17   H     H_    0.572107 0.666352 0.126346 0.157856
C27   C     C_R   0.540725 0.591277 0.927998 -0.119930
H18   H     H_    0.572450 0.665989 0.873713 0.149510
N2    N     N_R   0.499430 0.499180 0.857150 -0.107554
C28   C     C_R   0.465966 0.401455 0.928624 0.216754
C29   C     C_3   0.376256 0.356908 0.922828 -0.509586
C30   C     C_3   0.376206 0.356914 0.076933 -0.512600
H19   H     H_    0.332589 0.427645 0.878360 0.225329
H20   H     H_    0.371132 0.261367 0.878274 0.198487
H21   H     H_    0.332512 0.427661 0.121633 0.228708
H22   H     H_    0.370965 0.261358 0.121184 0.194510
N3    N     N_R   0.910962 0.570582 0.250595 0.214712
O9    O     O_R   0.864543 0.657322 0.195026 -0.381786
O10   O     O_R   0.922607 0.465604 0.185744 -0.425024
O11   O     O_3   0.092008 0.695720 0.341976 -0.637955
C31   C     C_3   0.098674 0.782612 0.449695 0.099720
H23   H     H_    0.152151 0.755445 0.516837 0.151602
H24   H     H_    0.039086 0.790764 0.509220 0.123104
C32   C     C_3   0.119130 0.911700 0.390581 -0.297961
H25   H     H_    0.178591 0.906035 0.329909 0.230444
H26   H     H_    0.066719 0.941334 0.322316 0.233740
C33   C     C_3   0.130536 0.009948 0.501877 -0.991309
H27   H     H_    0.071027 0.020090 0.561525 0.267850
H28   H     H_    0.146269 0.101896 0.455288 0.265593
H29   H     H_    0.183187 0.982798 0.570749 0.268819

loop_
_geom_bond_atom_site_label_1
_geom_bond_atom_site_label_2
_geom_bond_distance
_ccdc_geom_bond_type
C9    C15   1.437325 S    
C2    C16   1.397248 S    
C27   H18   1.081230 S    
C6    H4    1.113843 S    
C32   H26   1.111769 S    
C20   H12   1.083430 S    
H1    C10   1.113846 S    
C21   C22   1.392431 A    
C19   C20   1.382834 A    
C26   H17   1.081634 S    
N1    C26   1.368344 A    
Zn1   O7    1.970466 S    
C24   H15   1.111714 S    
C10   C11   1.549961 S    
C7    H6    1.109636 S    
C30   H21   1.111945 S    
C12   C13   1.555494 S    
O3    Zn1   1.971279 S    
O4    C2    1.285130 A    
O7    C4    1.285588 A    
C5    C9    1.556645 S    
C13   H7    1.112719 S    
C4    C8    1.398769 S    
C31   H24   1.109426 S    
O5    C3    1.283696 A    
C1    C18   1.418796 S    
C6    C7    1.545751 S    
N3    O10   1.301404 A    
Zn2   N1    2.011949 S    
C6    H3    1.113516 S    
C23   H13   1.111754 S    
C12   H8    1.111250 S    
C29   C30   1.519306 S    
C11   C14   1.439962 S    
C20   C21   1.402996 A    
C32   C33   1.526647 S    
C5    H9    1.106261 S    
C26   C27   1.419867 A    
C9    C13   1.572540 S    
C29   H19   1.111918 S    
C25   N1    1.363460 A    
C7    C11   1.556612 S    
O3    C2    1.285208 A    
C19   H11   1.083246 S    
O11   C31   1.412373 S    
C5    C10   1.543126 S    
C28   C29   1.490379 S    
C23   C24   1.515843 S    
O1    C1    1.283424 A    
C31   C32   1.528590 S    
C5    H2    1.113822 S    
C33   H27   1.110898 S    
C17   C18   1.392222 A    
C13   O11   1.427199 S    
C15   C16   1.184281 T    
Zn2   O8    1.971279 S    
C25   C28   1.405349 A    
C33   H28   1.110336 S    
C10   H10   1.113331 S    
O8    C4    1.285366 A    
C27   N2    1.368189 A    
C3    C21   1.419271 S    
C22   C23   1.495492 S    
C23   H14   1.112359 S    
C6    C9    1.552565 S    
Zn1   O5    1.989962 S    
C29   H20   1.111596 S    
O1    Zn1   1.989263 S    
O2    Zn2   1.989962 S    
C32   H25   1.111976 S    
O6    C3    1.284042 A    
O4    Zn2   1.970465 S    
C24   H16   1.112326 S    
C7    H5    1.113657 S    
C30   H22   1.111408 S    
C17   C22   1.363958 A    
O2    C1    1.284051 A    
N2    C28   1.363120 A    
C18   C19   1.402676 A    
C12   N3    1.471431 S    
C31   H23   1.110504 S    
C33   H29   1.110980 S    
C8    C14   1.185138 T    
Zn2   O6    1.989263 S    
N3    O9    1.301218 A    
C11   C12   1.564582 S    
C25   C30   1.490869 S    
C17   C24   1.495401 S    
Zn1   N2    2.011454 S    
