data_mof_unit_52762.cif
_audit_creation_date              2012-12-11T15:48:03-0500
_audit_creation_method            fapswitch 2.2
_symmetry_space_group_name_H-M    P1
_symmetry_Int_Tables_number       1
_space_group_crystal_system       triclinic
_cell_length_a                    6.944367
_cell_length_b                    17.720056
_cell_length_c                    19.338255
_cell_angle_alpha                 108.312439
_cell_angle_beta                  89.009256
_cell_angle_gamma                 90.528894
_cell_volume                      2258.79240011

loop_
_atom_site_label
_atom_site_type_symbol
_atom_type_description
_atom_site_fract_x
_atom_site_fract_y
_atom_site_fract_z
_atom_type_partial_charge
O1    O     O_R   0.494330 0.415710 0.413720 -0.505949
O2    O     O_R   0.819360 0.430070 0.560210 -0.563509
O3    O     O_R   0.994320 0.584290 0.586280 -0.552792
C1    C     C_R   0.648865 0.412878 0.579770 0.704024
O4    O     O_R   0.823740 0.406290 0.412670 -0.520897
O5    O     O_R   0.998730 0.560340 0.437690 -0.510812
C2    C     C_R   0.655546 0.382683 0.384818 0.825171
O6    O     O_R   0.489920 0.439660 0.562310 -0.550960
O7    O     O_3   0.662330 0.550570 0.508380 -0.363803
V1    V     V_3+5 0.935370 0.490620 0.498440 1.504005
O8    O     O_R   0.328720 0.569930 0.439790 -0.515044
C3    C     C_R   0.160749 0.586472 0.419358 0.829887
O9    O     O_R   0.324340 0.593710 0.587330 -0.548181
C4    C     C_R   0.154665 0.615545 0.616020 0.685183
V2    V     V_3+5 0.435940 0.509380 0.501560 1.541203
O10   O     O_3   0.159110 0.449430 0.491620 -0.371792
C5    C     C_R   0.310738 0.724606 0.714741 -0.215943
H1    H     H_    0.448735 0.706887 0.687998 0.130412
C6    C     C_R   0.303218 0.790724 0.777901 0.432155
C7    C     C_R   0.125796 0.813567 0.816223 -0.133355
C8    C     C_R   0.960884 0.767910 0.788936 -0.215404
H2    H     H_    0.824179 0.781871 0.817558 0.192636
C9    C     C_R   0.969276 0.703705 0.724291 -0.179928
H3    H     H_    0.838414 0.670786 0.704687 0.130625
C10   C     C_R   0.143964 0.682327 0.685628 -0.087880
C11   C     C_R   0.018621 0.619290 0.314026 0.470432
C12   C     C_R   0.152413 0.637101 0.370892 -0.307102
C13   C     C_R   0.274372 0.703870 0.381584 0.547462
C14   C     C_R   0.262782 0.752000 0.335750 -0.086895
C15   C     C_R   0.137823 0.729886 0.275803 -0.085721
C16   C     C_R   0.017050 0.662773 0.264609 0.031216
C17   C     C_R   0.369741 0.822877 0.349656 -0.142714
C18   C     C_R   0.355748 0.870947 0.304329 0.380610
C19   C     C_R   0.238745 0.846677 0.242079 0.005118
C20   C     C_R   0.130709 0.775634 0.227604 0.008602
C21   C     C_R   0.013956 0.750421 0.165222 0.030603
C22   C     C_R   0.896857 0.682894 0.154483 -0.221034
C23   C     C_R   0.895532 0.640491 0.204263 -0.127427
C24   C     C_R   0.224252 0.892781 0.194870 -0.281213
C25   C     C_R   0.112142 0.867127 0.131952 -0.189116
C26   C     C_R   0.016749 0.793214 0.114635 0.378220
H4    H     H_    0.459319 0.842932 0.397351 0.203231
H5    H     H_    0.300622 0.948890 0.206510 0.184305
H6    H     H_    0.803943 0.663494 0.107865 0.158378
H7    H     H_    0.801251 0.589356 0.194733 0.176324
C27   C     C_R   0.719131 0.207918 0.888753 -0.166069
C28   C     C_R   0.625292 0.133994 0.869066 -0.085770
C29   C     C_R   0.533030 0.106747 0.801924 -0.142257
C30   C     C_R   0.542786 0.150000 0.752391 -0.070508
C31   C     C_R   0.634856 0.224905 0.772401 -0.056283
C32   C     C_R   0.718094 0.255323 0.842076 -0.002859
C33   C     C_R   0.462136 0.119451 0.683154 0.509032
C34   C     C_R   0.471210 0.162605 0.633981 0.562674
C35   C     C_R   0.550655 0.240070 0.654376 -0.176785
C36   C     C_R   0.638187 0.270172 0.723586 -0.140303
C37   C     C_R   0.725658 0.346033 0.744651 -0.011848
C38   C     C_R   0.801846 0.377632 0.815427 0.343801
C39   C     C_R   0.792721 0.333495 0.864520 0.316947
C40   C     C_R   0.543887 0.288365 0.607854 0.401829
C41   C     C_R   0.637358 0.363088 0.628541 -0.169173
C42   C     C_R   0.725085 0.391207 0.696434 -0.249590
H8    H     H_    0.787519 0.229063 0.941314 0.128909
H9    H     H_    0.455584 0.051109 0.787935 0.141395
H10   H     H_    0.789415 0.449906 0.711803 0.143438
C43   C     C_R   0.808913 0.287347 0.270246 0.408316
C44   C     C_R   0.795188 0.221653 0.207089 -0.298112
H11   H     H_    0.923739 0.201999 0.174110 0.226074
C45   C     C_R   0.618811 0.183028 0.185284 -0.340790
C46   C     C_R   0.456321 0.208532 0.230827 0.530247
C47   C     C_R   0.470289 0.272141 0.295630 0.500982
C48   C     C_R   0.645728 0.313230 0.316373 -0.390184
O11   O     O_R   0.774940 0.060470 0.937800 -0.541846
O12   O     O_R   0.440880 0.093730 0.087350 -0.507835
O13   O     O_R   0.266130 0.939630 0.062280 -0.545053
C49   C     C_R   0.608731 0.115807 0.116014 0.790344
O14   O     O_R   0.445480 0.069960 0.939820 -0.545105
O15   O     O_R   0.270770 0.915690 0.913690 -0.523139
C50   C     C_R   0.615410 0.085964 0.919194 0.656128
O16   O     O_R   0.770300 0.084410 0.086380 -0.548602
O17   O     O_3   0.602600 0.949510 0.991670 -0.363264
V3    V     V_3+5 0.329470 0.009370 0.001550 1.488429
O18   O     O_R   0.940760 0.906160 0.912560 -0.539405
C51   C     C_R   0.111149 0.883480 0.884158 0.684306
O19   O     O_R   0.936150 0.929930 0.060100 -0.526141
C52   C     C_R   0.103802 0.916138 0.082603 0.760898
V4    V     V_3+5 0.828930 0.990450 0.998310 1.470865
O20   O     O_3   0.105670 0.050490 0.008320 -0.370039
O21   O     O_3   0.933351 0.762197 0.046836 -0.572558
C53   C     C_3   0.055899 0.703202 0.000458 0.023779
H12   H     H_    0.973120 0.672067 0.950885 0.161567
H13   H     H_    0.096366 0.657082 0.025530 0.115949
C54   C     C_3   0.238332 0.739669 0.977393 -0.308348
H14   H     H_    0.195783 0.788570 0.957166 0.197945
H15   H     H_    0.333887 0.764021 0.024784 0.192450
C55   C     C_3   0.353129 0.679508 0.917810 -0.804961
H16   H     H_    0.411803 0.633552 0.939435 0.242008
H17   H     H_    0.475773 0.709922 0.899938 0.250800
H18   H     H_    0.261036 0.651666 0.870051 0.228196
F1    F     F_    0.374764 0.047037 0.662474 -0.660028
F2    F     F_    0.403564 0.127075 0.566104 -0.633337
O22   O     O_3   0.462965 0.259957 0.539477 -0.550471
C56   C     C_3   0.260947 0.271178 0.545516 0.144000
H19   H     H_    0.226952 0.333818 0.550685 0.126145
H20   H     H_    0.196588 0.257557 0.593566 0.107174
C57   C     C_3   0.167769 0.216053 0.476701 -0.232449
H21   H     H_    0.235321 0.225998 0.428008 0.258663
H22   H     H_    0.192641 0.153085 0.472928 0.257926
C58   C     C_3   0.951597 0.229749 0.476155 -0.750206
H23   H     H_    0.881210 0.219870 0.524562 0.239038
H24   H     H_    0.888928 0.187666 0.426342 0.235740
H25   H     H_    0.923003 0.291034 0.475877 0.245523
O23   O     O_3   0.858101 0.456519 0.841213 -0.570551
C59   C     C_3   0.046980 0.465088 0.816656 0.085158
H26   H     H_    0.052099 0.520226 0.800867 0.123074
H27   H     H_    0.093587 0.415607 0.767312 0.098736
C60   C     C_3   0.187470 0.474201 0.878367 -0.322320
H28   H     H_    0.158245 0.530344 0.922848 0.193633
H29   H     H_    0.170786 0.423966 0.900744 0.233463
C61   C     C_3   0.392099 0.473866 0.850005 -0.833785
H30   H     H_    0.420433 0.414420 0.810912 0.240162
H31   H     H_    0.492989 0.485723 0.895696 0.256045
H32   H     H_    0.413578 0.519207 0.821916 0.241017
O24   O     O_3   0.474108 0.828501 0.804323 -0.579177
C62   C     C_3   0.514083 0.888799 0.772415 0.084003
H33   H     H_    0.609867 0.932431 0.810469 0.144265
H34   H     H_    0.382028 0.921678 0.766957 0.103681
C63   C     C_3   0.617078 0.855681 0.697988 -0.357254
H35   H     H_    0.703428 0.803029 0.696394 0.209280
H36   H     H_    0.508138 0.836613 0.654409 0.218085
C64   C     C_3   0.751775 0.916739 0.681744 -0.680974
H37   H     H_    0.670236 0.969893 0.681091 0.267745
H38   H     H_    0.821723 0.890290 0.627521 0.248773
H39   H     H_    0.865857 0.934801 0.723416 0.211938
O25   O     O_3   0.855414 0.368540 0.935121 -0.573575
C65   C     C_3   0.695422 0.394311 0.983163 0.101315
H40   H     H_    0.698726 0.362993 0.024711 0.121868
H41   H     H_    0.552054 0.381013 0.956354 0.107961
C66   C     C_3   0.711342 0.483781 0.022212 -0.295972
H42   H     H_    0.842004 0.496380 0.056287 0.188958
H43   H     H_    0.726940 0.516262 0.981846 0.220774
C67   C     C_3   0.533601 0.514249 0.070196 -0.880614
H44   H     H_    0.400466 0.499391 0.037526 0.240024
H45   H     H_    0.540611 0.579738 0.094566 0.235229
H46   H     H_    0.526267 0.487346 0.114845 0.241409
O26   O     O_3   0.985526 0.324332 0.286968 -0.501178
C68   C     C_3   0.001205 0.387468 0.257055 0.217899
H47   H     H_    0.088082 0.434933 0.295251 0.166894
H48   H     H_    0.859420 0.414157 0.251605 0.123199
C69   C     C_3   0.106739 0.360871 0.183205 -0.346746
H49   H     H_    0.247716 0.334391 0.188776 0.212671
H50   H     H_    0.019749 0.315492 0.142966 0.183760
C70   C     C_3   0.140377 0.430802 0.154409 -0.824270
H51   H     H_    0.001112 0.458741 0.149544 0.243866
H52   H     H_    0.210271 0.409387 0.099705 0.236012
H53   H     H_    0.234804 0.475935 0.191704 0.235122
F3    F     F_    0.284275 0.170783 0.213954 -0.665073
F4    F     F_    0.311360 0.292660 0.338771 -0.632534
F5    F     F_    0.889613 0.559403 0.306481 -0.726491
F6    F     F_    0.398176 0.723727 0.438237 -0.671632
O27   O     O_3   0.434403 0.946537 0.326980 -0.556915
C71   C     C_3   0.623220 0.944822 0.298435 0.083553
H54   H     H_    0.628976 0.913477 0.238557 0.110676
H55   H     H_    0.721375 0.914618 0.326248 0.138897
C72   C     C_3   0.690372 0.030758 0.312384 -0.295412
H56   H     H_    0.588802 0.061689 0.286624 0.205129
H57   H     H_    0.689278 0.062113 0.372011 0.230926
C73   C     C_3   0.892262 0.035252 0.281726 -0.778566
H58   H     H_    0.997163 0.005911 0.307549 0.255376
H59   H     H_    0.935339 0.098450 0.293122 0.264947
H60   H     H_    0.894621 0.006239 0.221839 0.226985

loop_
_geom_bond_atom_site_label_1
_geom_bond_atom_site_label_2
_ccdc_geom_bond_type
C65   C66   S    
C44   C45   A    
C36   C37   A    
O22   C56   S    
C58   H23   S    
O2    C1    A    
C55   H16   S    
C69   H49   S    
C1    O6    A    
O26   C68   S    
C55   H18   S    
O18   V4    S    
O24   C62   S    
C73   H59   S    
C34   C35   A    
C39   O25   S    
C45   C49   S    
C57   H22   S    
C6    O24   S    
C11   C12   A    
C14   C15   A    
C15   C20   A    
C27   H8    S    
C58   H25   S    
C72   H56   S    
O19   V4    S    
C59   H26   S    
C14   C17   A    
C69   H50   S    
C2    C48   S    
C15   C16   A    
C38   O23   S    
O15   C51   A    
V2    O10   S    
C60   H28   S    
C56   C57   S    
C5    H1    S    
C19   C20   A    
C23   H7    S    
O17   V4    S    
C35   C36   A    
O8    V2    S    
C20   C21   A    
C58   H24   S    
C45   C46   A    
O11   C50   A    
C9    H3    S    
C47   C48   A    
O1    V2    S    
C53   H13   S    
O7    V1    S    
C18   O27   S    
C59   C60   S    
C44   H11   S    
C11   C16   A    
C4    C10   S    
O9    C4    A    
O12   C49   A    
C21   C26   A    
C46   C47   A    
O12   V3    S    
O23   C59   S    
C71   H55   S    
C31   C32   A    
C73   H60   S    
C68   H48   S    
C35   C40   A    
C61   H31   S    
C34   F2    S    
C57   C58   S    
C46   F3    S    
C3    C12   S    
C19   C24   A    
C40   O22   S    
C65   H40   S    
O19   C52   A    
C69   C70   S    
C73   H58   S    
O4    C2    A    
V4    O20   S    
C29   H9    S    
C24   H5    S    
C43   C48   A    
C27   C32   A    
O18   C51   A    
C13   F6    S    
C41   C42   A    
C25   C52   S    
C42   H10   S    
C64   H38   S    
C63   H36   S    
C22   C23   A    
C68   C69   S    
C28   C29   A    
C70   H53   S    
O15   V3    S    
C61   H30   S    
C30   C33   A    
C1    C41   S    
C54   H15   S    
C18   C19   A    
C32   C39   A    
O21   C53   S    
C53   C54   S    
C56   H20   S    
V3    O20   S    
O3    C4    A    
C66   H43   S    
C62   C63   S    
C25   C26   A    
C70   H52   S    
C43   C44   A    
O6    V2    S    
C8    C9    A    
O9    V2    S    
C67   H46   S    
C64   H39   S    
C37   C38   A    
C54   C55   S    
O13   V3    S    
C43   O26   S    
C63   H35   S    
O2    V1    S    
C24   C25   A    
C71   C72   S    
C33   C34   A    
C62   H34   S    
C68   H47   S    
C61   H32   S    
C65   H41   S    
C26   O21   S    
C27   C28   A    
C13   C14   A    
O1    C2    A    
C72   C73   S    
O14   C50   A    
O17   V3    S    
C66   C67   S    
O14   V3    S    
O5    V1    S    
O11   V4    S    
O8    C3    A    
C55   H17   S    
C16   C23   A    
O25   C65   S    
C57   H21   S    
C33   F1    S    
C31   C36   A    
C60   C61   S    
C47   F4    S    
C5    C10   A    
C17   C18   A    
C6    C7    A    
C67   H45   S    
C64   H37   S    
O7    V2    S    
C63   C64   S    
O4    V1    S    
O3    V1    S    
V1    O10   S    
C67   H44   S    
O27   C71   S    
O5    C3    A    
C38   C39   A    
C71   H54   S    
C22   H6    S    
C29   C30   A    
C72   H57   S    
C54   H14   S    
C5    C6    A    
C60   H29   S    
C11   F5    S    
C9    C10   A    
O13   C52   A    
C56   H19   S    
C66   H42   S    
C40   C41   A    
C7    C8    A    
C21   C22   A    
C30   C31   A    
C7    C51   S    
C12   C13   A    
C17   H4    S    
C37   C42   A    
C70   H51   S    
C28   C50   S    
C53   H12   S    
C8    H2    S    
C49   O16   A    
O16   V4    S    
C62   H33   S    
C59   H27   S    
