data_mof_unit_38289.cif
_audit_creation_date              2012-12-10T17:22:51-0500
_audit_creation_method            fapswitch 2.2
_symmetry_space_group_name_H-M    P1
_symmetry_Int_Tables_number       1
_space_group_crystal_system       triclinic
_cell_length_a                    10.292348
_cell_length_b                    10.493698
_cell_length_c                    10.796076
_cell_angle_alpha                 91.203573
_cell_angle_beta                  95.240025
_cell_angle_gamma                 81.164949
_cell_volume                      1147.34851736

loop_
_atom_site_label
_atom_site_type_symbol
_atom_type_description
_atom_site_fract_x
_atom_site_fract_y
_atom_site_fract_z
_atom_type_partial_charge
C1    C     C_R   0.444583 0.511845 0.267926 0.957498
C2    C     C_3   0.501136 0.122736 0.500738 -0.132807
C3    C     C_3   0.567078 0.950504 0.603767 0.468573
C4    C     C_3   0.432589 0.049719 0.397404 0.458526
C5    C     C_2   0.413686 0.530326 0.136189 -0.298579
C6    C     C_2   0.586557 0.505046 0.864519 -0.287227
C7    C     C_2   0.512245 0.540553 0.067081 -0.168877
C8    C     C_2   0.488019 0.543949 0.934800 -0.126714
C9    C     C_2   0.070768 0.496781 0.482965 0.460080
C10   C     C_2   0.925735 0.517226 0.503955 0.461303
C11   C     C_3   0.835002 0.299170 0.299595 0.239137
C12   C     C_R   0.555464 0.495526 0.732210 0.936795
C13   C     C_3   0.905198 0.171651 0.252261 -0.765339
C14   C     C_3   0.164088 0.707482 0.693707 0.235616
C15   C     C_3   0.110317 0.759561 0.814549 -0.769999
C16   C     C_R   0.500305 0.257892 0.500312 0.936331
C17   C     C_R   0.499735 0.742150 0.500130 0.932512
C18   C     C_3   0.626218 0.021849 0.504779 -0.212525
C19   C     C_3   0.373597 0.978289 0.496362 -0.230337
C20   C     C_3   0.556641 0.946918 0.399969 -0.267619
C21   C     C_3   0.443089 0.053340 0.601022 -0.267952
C22   C     C_3   0.498716 0.877393 0.500327 -0.122213
Cl1   Cl    Cl    0.653386 0.881849 0.742972 -0.574003
Cl2   Cl    Cl    0.343971 0.120218 0.259992 -0.575606
Cl3   Cl    Cl    0.862921 0.653967 0.589180 -0.552661
Cl4   Cl    Cl    0.120668 0.414383 0.347379 -0.554286
H1    H     H_    0.601624 0.899746 0.317788 0.187255
H2    H     H_    0.730496 0.288727 0.304752 0.179290
H3    H     H_    0.898897 0.093106 0.317847 0.246449
H4    H     H_    0.857899 0.148390 0.159674 0.211284
H5    H     H_    0.010640 0.177913 0.243361 0.313737
H6    H     H_    0.123837 0.777243 0.618174 0.141178
H7    H     H_    0.272560 0.701305 0.706231 0.170668
H8    H     H_    0.148692 0.691975 0.891797 0.243527
H9    H     H_    0.141696 0.854619 0.837127 0.212933
H10   H     H_    0.000833 0.771820 0.805377 0.313239
H11   H     H_    0.398088 0.100570 0.683166 0.192726
H12   H     H_    0.729047 0.042851 0.509191 0.198048
H13   H     H_    0.270784 0.957243 0.491935 0.183842
H14   H     H_    0.386456 0.569394 0.895456 0.191223
H15   H     H_    0.613722 0.536930 0.107057 0.185940
H16   H     H_    0.687832 0.479140 0.904552 0.165713
H17   H     H_    0.312542 0.533782 0.095560 0.178285
H18   H     H_    0.841129 0.375789 0.231320 0.137048
N1    N     N_2   0.157310 0.552180 0.551120 0.012165
N2    N     N_2   0.842690 0.447820 0.448880 0.010213
O1    O     O_R   0.568940 0.489500 0.307530 -0.672932
O2    O     O_3   0.126551 0.585433 0.667434 -0.530927
O3    O     O_R   0.431060 0.510500 0.692470 -0.629933
O4    O     O_R   0.348880 0.522990 0.340350 -0.557879
O5    O     O_R   0.651120 0.477010 0.659650 -0.562488
O6    O     O_R   0.610000 0.297210 0.483560 -0.633540
O7    O     O_R   0.390000 0.702790 0.516440 -0.676446
O8    O     O_R   0.389940 0.330700 0.516390 -0.558934
O9    O     O_R   0.610060 0.669300 0.483610 -0.559355
O10   O     O_3   0.895683 0.327248 0.417167 -0.533609
Zn1   Zn    Zn3+2 0.646930 0.477640 0.478080 1.029571
Zn2   Zn    Zn3+2 0.353070 0.522360 0.521920 1.032083

loop_
_geom_bond_atom_site_label_1
_geom_bond_atom_site_label_2
_ccdc_geom_bond_type
C10   N2    D    
C2    C4    S    
O7    Zn2   S    
C9    N1    D    
O5    Zn1   S    
C20   H1    S    
O1    Zn1   S    
C2    C16   S    
C9    C10   S    
C17   O9    A    
C15   H8    S    
C3    Cl1   S    
C17   C22   S    
C19   C22   S    
C2    C21   S    
C7    H15   S    
C12   O3    A    
C18   H12   S    
C11   H18   S    
C6    C12   S    
C1    O4    A    
C11   C13   S    
C19   H13   S    
C11   H2    S    
C14   H7    S    
C1    C5    S    
C6    C8    D    
C10   Cl3   S    
C13   H3    S    
C19   C21   S    
C20   C22   S    
C9    Cl4   S    
C18   C20   S    
O9    Zn1   S    
N2    Zn1   S    
C5    H17   S    
C4    Cl2   S    
C16   O8    A    
N1    Zn2   S    
C3    C21   S    
C2    C18   S    
O6    Zn1   S    
C11   O10   S    
N2    O10   S    
C4    C20   S    
C17   O7    A    
C15   H10   S    
C7    C8    S    
C12   O5    A    
C21   H11   S    
C13   H4    S    
C3    C18   S    
O8    Zn2   S    
N1    O2    S    
C15   H9    S    
C5    C7    D    
C14   C15   S    
C1    O1    A    
C3    C22   S    
C14   O2    S    
C8    H14   S    
C4    C19   S    
C6    H16   S    
C13   H5    S    
O3    Zn2   S    
C16   O6    A    
C14   H6    S    
O4    Zn2   S    
