data_mof_unit_50488.cif
_audit_creation_date              2012-12-11T14:56:23-0500
_audit_creation_method            fapswitch 2.2
_symmetry_space_group_name_H-M    P1
_symmetry_Int_Tables_number       1
_space_group_crystal_system       triclinic
_cell_length_a                    10.636034
_cell_length_b                    10.735801
_cell_length_c                    17.135777
_cell_angle_alpha                 80.575725
_cell_angle_beta                  90.396641
_cell_angle_gamma                 119.195375
_cell_volume                      1678.98803426

loop_
_atom_site_label
_atom_site_type_symbol
_atom_type_description
_atom_site_fract_x
_atom_site_fract_y
_atom_site_fract_z
_atom_type_partial_charge
C1    C     C_R   0.274733 0.886339 0.133245 0.563919
C2    C     C_1   0.638756 0.316650 0.705244 -0.061941
C3    C     C_R   0.558875 0.713623 0.794815 0.197243
C4    C     C_R   0.633793 0.270789 0.089938 0.553029
C5    C     C_R   0.552565 0.722449 0.714739 -0.130224
C6    C     C_R   0.670540 0.826437 0.663534 -0.056218
C7    C     C_R   0.794624 0.927343 0.693211 -0.134283
C8    C     C_R   0.794440 0.934770 0.773044 0.206650
C9    C     C_R   0.673378 0.832298 0.824405 0.036540
C10   C     C_R   0.262267 0.000724 0.751889 0.260617
C11   C     C_R   0.225971 0.975614 0.675049 -0.126178
C12   C     C_R   0.722370 0.264958 0.298960 0.254396
C13   C     C_R   0.193138 0.844469 0.652243 -0.010760
C14   C     C_R   0.227611 0.750644 0.700454 -0.166864
C15   C     C_R   0.256152 0.768017 0.778584 -0.174727
C16   C     C_R   0.639975 0.859106 0.125485 0.549927
C17   C     C_R   0.267782 0.889778 0.805614 0.028903
C18   C     C_R   0.686284 0.809054 0.357398 0.576590
C19   C     C_R   0.682883 0.385844 0.398948 0.571015
C20   C     C_R   0.106136 0.811409 0.359676 0.552845
C21   C     C_R   0.678726 0.800565 0.584957 0.567552
C22   C     C_R   0.677912 0.379395 0.623679 0.541584
C23   C     C_R   0.716958 0.249458 0.220495 -0.121800
C24   C     C_R   0.106694 0.806632 0.583662 0.552272
C25   C     C_R   0.289112 0.904260 0.888948 0.580475
C26   C     C_R   0.615229 0.226715 0.858357 0.534837
C27   C     C_R   0.644143 0.863285 0.899887 0.558585
C28   C     C_R   0.552555 0.345660 0.199283 -0.156964
C29   C     C_R   0.553322 0.357976 0.278525 -0.182467
C30   C     C_R   0.642605 0.323700 0.327818 0.038964
C31   C     C_3   0.955281 0.311796 0.320957 0.016839
C32   C     C_3   0.018361 0.216619 0.304586 -0.258034
C33   C     C_3   0.174989 0.308039 0.269280 -0.485420
C34   C     C_R   0.639806 0.297592 0.169673 -0.008860
C35   C     C_3   0.456000 0.490347 0.875627 0.035959
C36   C     C_3   0.320531 0.378473 0.930165 -0.234040
C37   C     C_3   0.301899 0.435113 0.002896 -0.374116
C38   C     C_3   0.891630 0.168054 0.789305 0.028075
C39   C     C_3   0.936708 0.255737 0.705856 -0.309271
C40   C     C_3   0.007208 0.414921 0.708985 -0.437083
C41   C     C_3   0.232611 0.207799 0.734815 0.000487
C42   C     C_3   0.338262 0.319326 0.666277 -0.273496
C43   C     C_3   0.271934 0.377583 0.601328 -0.462046
C44   C     C_1   0.668270 0.849619 0.205686 -0.046826
C45   C     C_1   0.678933 0.838699 0.275198 -0.038477
C46   C     C_1   0.222317 0.851116 0.215506 -0.042886
C47   C     C_1   0.174549 0.832058 0.282845 -0.045059
C48   C     C_1   0.623399 0.274236 0.775357 -0.040873
Cr1   Cr    Cr6+3 0.402240 0.783890 0.019450 0.990612
Cr2   Cr    Cr6+3 0.382360 0.097900 0.991800 1.002210
Cr3   Cr    Cr6+3 0.715380 0.118170 0.988700 0.996869
Cr4   Cr    Cr6+3 0.936650 0.882420 0.465510 1.007926
Cr5   Cr    Cr6+3 0.605770 0.565620 0.493360 0.980683
Cr6   Cr    Cr6+3 0.921340 0.550490 0.496380 1.000731
H1    H     H_    0.214514 0.054477 0.632986 0.123488
H2    H     H_    0.181812 0.375263 0.211102 0.152585
H3    H     H_    0.218146 0.235481 0.259993 0.166643
H4    H     H_    0.242332 0.380059 0.310233 0.144823
H5    H     H_    0.774986 0.200229 0.199479 0.142345
H6    H     H_    0.552268 0.527841 0.910823 0.149999
H7    H     H_    0.470841 0.437270 0.828701 0.146356
H8    H     H_    0.223100 0.348225 0.896619 0.142037
H9    H     H_    0.326947 0.278761 0.950795 0.185302
H10   H     H_    0.277727 0.524780 0.984840 0.209851
H11   H     H_    0.401061 0.473986 0.035326 0.147031
H12   H     H_    0.231158 0.665109 0.677801 0.116148
H13   H     H_    0.210013 0.346354 0.043601 0.103406
H14   H     H_    0.456286 0.641215 0.693322 0.149717
H15   H     H_    0.891406 0.001385 0.654514 0.141384
H16   H     H_    0.952705 0.233686 0.834290 0.181303
H17   H     H_    0.777405 0.138702 0.798879 0.155087
H18   H     H_    0.011182 0.236216 0.673767 0.150712
H19   H     H_    0.840809 0.221090 0.671197 0.172529
H20   H     H_    0.931712 0.442272 0.736282 0.185211
H21   H     H_    0.042570 0.474824 0.647522 0.193764
H22   H     H_    0.102194 0.444226 0.744503 0.126318
H23   H     H_    0.492694 0.404591 0.299477 0.145304
H24   H     H_    0.209767 0.265912 0.775486 0.167991
H25   H     H_    0.128288 0.133038 0.714462 0.174248
H26   H     H_    0.425677 0.410521 0.690174 0.180845
H27   H     H_    0.384632 0.264597 0.637916 0.190505
H28   H     H_    0.179588 0.287495 0.579218 0.113604
H29   H     H_    0.353187 0.442266 0.549989 0.195942
H30   H     H_    0.239970 0.450196 0.623103 0.134380
H31   H     H_    0.486597 0.375934 0.161043 0.130312
H32   H     H_    0.263374 0.683842 0.818530 0.203827
H33   H     H_    0.012566 0.369696 0.369259 0.164159
H34   H     H_    0.979236 0.397660 0.267554 0.125307
H35   H     H_    0.014454 0.147125 0.361202 0.200409
H36   H     H_    0.953302 0.145632 0.262656 0.174819
O1    O     O_R   0.521780 0.757110 0.108900 -0.528583
O2    O     O_R   0.805020 0.410040 0.421340 -0.483027
O3    O     O_R   0.049240 0.685450 0.403290 -0.507113
O4    O     O_R   0.275160 0.783810 0.101120 -0.489811
O5    O     O_R   0.077520 0.903010 0.551800 -0.534305
O6    O     O_R   0.802980 0.872780 0.546830 -0.499911
O7    O     O_R   0.578090 0.681300 0.569920 -0.538699
O8    O     O_R   0.608530 0.436370 0.586530 -0.520029
O9    O     O_R   0.798770 0.401880 0.597100 -0.531219
O10   O     O_R   0.043450 0.677890 0.566230 -0.513389
O11   O     O_3   0.821250 0.666180 0.485090 -0.246363
O12   O     O_R   0.513330 0.228330 0.898660 -0.510512
O13   O     O_R   0.237900 0.972600 0.090980 -0.503648
O14   O     O_R   0.511190 0.220540 0.061620 -0.526328
O15   O     O_R   0.736920 0.257720 0.063840 -0.514254
O16   O     O_R   0.710450 0.984050 0.081720 -0.499176
O17   O     O_R   0.524090 0.765520 0.933110 -0.492946
O18   O     O_R   0.277300 0.791600 0.938160 -0.512728
O19   O     O_R   0.240210 0.981010 0.915190 -0.447260
O20   O     O_3   0.806002 0.223456 0.347397 -0.553546
O21   O     O_3   0.435086 0.605993 0.840518 -0.580667
O22   O     O_3   0.910928 0.045553 0.799628 -0.576723
O23   O     O_R   0.739230 0.266130 0.888050 -0.538556
O24   O     O_3   0.295510 0.130533 0.777080 -0.558194
O25   O     O_R   0.712580 0.991850 0.918770 -0.510490
O26   O     O_3   0.499990 0.999980 0.999980 -0.314635
O27   O     O_R   0.083770 0.911170 0.376030 -0.520178
O28   O     O_R   0.808770 0.880340 0.383890 -0.498288
O29   O     O_R   0.584340 0.689460 0.394160 -0.521972
O30   O     O_R   0.614320 0.443940 0.423590 -0.522565

loop_
_geom_bond_atom_site_label_1
_geom_bond_atom_site_label_2
_ccdc_geom_bond_type
C20   O3    A    
C38   H16   S    
Cr2   O14   S    
C33   H4    S    
C22   O8    A    
C43   H29   S    
C41   C42   S    
Cr6   O11   S    
C35   C36   S    
C41   O24   S    
C12   O20   S    
Cr5   O30   S    
C35   O21   S    
C7    C8    A    
Cr1   O17   S    
C42   H26   S    
C16   O16   A    
C12   C23   A    
Cr3   O23   S    
C36   C37   S    
C8    O22   S    
C38   C39   S    
C1    C46   S    
C10   C17   A    
C4    O14   A    
C1    O13   A    
Cr4   O5    S    
Cr6   O3    S    
C19   O2    A    
C38   H17   S    
C32   H36   S    
C31   C32   S    
Cr5   O11   S    
C1    O4    A    
C37   H11   S    
C2    C22   S    
C39   H18   S    
C22   O9    A    
Cr1   O4    S    
C36   H9    S    
C16   C44   S    
C10   O24   S    
C25   O19   A    
Cr4   O27   S    
C33   H2    S    
C28   C34   A    
Cr2   O13   S    
C13   C14   A    
C43   H30   S    
Cr6   O10   S    
C42   H27   S    
Cr1   O1    S    
C5    H14   S    
C36   H8    S    
C20   O27   A    
Cr1   O18   S    
C4    C34   S    
Cr4   O11   S    
C31   H33   S    
C24   O5    A    
C3    O21   S    
C39   C40   S    
C8    C9    A    
Cr5   O7    S    
C6    C21   S    
Cr2   O19   S    
Cr3   O25   S    
C40   H22   S    
C13   C24   S    
C35   H6    S    
C23   H5    S    
Cr6   O2    S    
C29   C30   A    
C3    C9    A    
C21   O7    A    
C32   H35   S    
C27   O17   A    
Cr3   O15   S    
C23   C34   A    
C14   H12   S    
C35   H7    S    
C15   H32   S    
C19   O30   A    
Cr2   O12   S    
Cr6   O9    S    
C42   C43   S    
C38   O22   S    
C18   C45   S    
C41   H24   S    
C37   H10   S    
C11   H1    S    
C44   C45   T    
C9    C27   S    
C15   C17   A    
C18   O28   A    
C46   C47   T    
C28   C29   A    
C33   H3    S    
C31   H34   S    
C12   C30   A    
C24   O10   A    
C3    C5    A    
C41   H25   S    
Cr5   O29   S    
C6    C7    A    
C21   O6    A    
C26   C48   S    
Cr5   O8    S    
C4    O15   A    
Cr3   O26   S    
C40   H21   S    
C2    C48   T    
C32   C33   S    
C7    H15   S    
C26   O23   A    
C17   C25   S    
C26   O12   A    
C11   C13   A    
C5    C6    A    
Cr3   O16   S    
C37   H13   S    
C31   O20   S    
C40   H20   S    
Cr4   O6    S    
Cr2   O26   S    
C39   H19   S    
C20   C47   S    
C10   C11   A    
Cr1   O26   S    
C29   H23   S    
C16   O1    A    
C28   H31   S    
C43   H28   S    
C14   C15   A    
C19   C30   S    
C18   O29   A    
C25   O18   A    
C27   O25   A    
Cr4   O28   S    
