data_mof_unit_9142.cif
_audit_creation_date              2013-03-05T15:51:07-0500
_audit_creation_method            fapswitch 2.2
_symmetry_space_group_name_H-M    P1
_symmetry_Int_Tables_number       1
_space_group_crystal_system       triclinic
_cell_length_a                    10.495973
_cell_length_b                    12.076579
_cell_length_c                    12.82261
_cell_angle_alpha                 92.5781
_cell_angle_beta                  90.539807
_cell_angle_gamma                 84.258228
_cell_volume                      1615.52453191

loop_
_atom_site_label
_atom_site_type_symbol
_atom_site_description
_atom_site_fract_x
_atom_site_fract_y
_atom_site_fract_z
_atom_type_partial_charge
O1    O     O_R   0.506270 0.421700 0.658830 -0.595575
O2    O     O_R   0.493730 0.578300 0.341170 -0.595186
O3    O     O_R   0.491200 0.609310 0.646410 -0.607008
O4    O     O_R   0.508800 0.390690 0.353590 -0.606959
C1    C     C_R   0.493824 0.521725 0.699977 0.926812
C2    C     C_R   0.506179 0.478280 0.300029 0.928573
O5    O     O_R   0.693580 0.406210 0.506230 -0.513842
O6    O     O_R   0.306420 0.593790 0.493770 -0.514809
O7    O     O_R   0.678510 0.593830 0.493810 -0.677924
O8    O     O_R   0.321490 0.406170 0.506190 -0.675654
C3    C     C_R   0.742592 0.498386 0.500710 0.956430
C4    C     C_R   0.257319 0.501744 0.500147 0.955922
Zn1   Zn    Zn3+2 0.510060 0.374730 0.508290 1.035229
Zn2   Zn    Zn3+2 0.489940 0.625270 0.491710 1.032291
C5    C     C_3   0.976952 0.395273 0.508253 0.607457
C6    C     C_3   0.022547 0.605034 0.494095 0.632165
C7    C     C_3   0.050171 0.460031 0.591388 -0.319682
C8    C     C_3   0.949704 0.540523 0.410969 -0.295350
H1    H     H_    0.095834 0.428481 0.664167 0.179326
H2    H     H_    0.904370 0.573415 0.338597 0.181210
C9    C     C_3   0.122201 0.504856 0.501003 -0.116106
C10   C     C_3   0.877543 0.495526 0.501093 -0.114993
C11   C     C_3   0.050690 0.438348 0.418242 -0.294945
C12   C     C_3   0.948875 0.561918 0.584155 -0.309488
H3    H     H_    0.096365 0.387212 0.352042 0.180651
H4    H     H_    0.903103 0.612838 0.650449 0.176734
C13   C     C_R   0.518916 0.465090 0.189213 -0.187656
C14   C     C_R   0.481105 0.534931 0.810802 -0.187277
C15   C     C_R   0.372284 0.610977 0.966531 -0.204739
C16   C     C_R   0.627784 0.389071 0.033501 -0.204022
C17   C     C_R   0.384836 0.610012 0.858578 0.285461
C18   C     C_R   0.615246 0.390070 0.141457 0.284681
C19   C     C_R   0.563987 0.465034 0.869328 -0.227904
C20   C     C_R   0.436013 0.534960 0.130687 -0.227931
C21   C     C_R   0.548363 0.463358 0.975603 0.105328
C22   C     C_R   0.451668 0.536658 0.024418 0.105504
H5    H     H_    0.359821 0.588928 0.168537 0.220925
H6    H     H_    0.640145 0.411027 0.831476 0.221216
H7    H     H_    0.298027 0.666900 0.004779 0.202987
H8    H     H_    0.702070 0.333169 0.995266 0.203315
N1    N     N_R   0.523490 0.207800 0.519350 -0.152872
N2    N     N_R   0.476510 0.792200 0.480650 -0.153212
C23   C     C_R   0.413825 0.957060 0.382750 -0.336321
C24   C     C_R   0.588646 0.042588 0.616066 -0.342502
C25   C     C_R   0.416406 0.841495 0.395671 0.467543
C26   C     C_R   0.584319 0.158410 0.603969 0.471853
C27   C     C_R   0.534032 0.857728 0.553229 -0.082583
C28   C     C_R   0.467686 0.142020 0.445943 -0.079558
C29   C     C_R   0.531782 0.974691 0.542471 0.018647
C30   C     C_R   0.471203 0.024881 0.456107 0.009526
H9    H     H_    0.418927 0.180707 0.380123 0.155185
H10   H     H_    0.582752 0.819010 0.619050 0.152856
H11   H     H_    0.365566 0.993645 0.315572 0.194608
H12   H     H_    0.636953 0.006024 0.683237 0.191677
O9    O     O_3   0.946359 0.284255 0.511444 -0.568068
C31   C     C_3   0.051701 0.217831 0.552681 0.120837
H13   H     H_    0.055477 0.233046 0.638863 0.165082
H14   H     H_    0.144054 0.236037 0.517840 0.127221
C32   C     C_3   0.036215 0.094932 0.529052 -0.353925
H15   H     H_    0.942480 0.074959 0.558913 0.243679
H16   H     H_    0.038478 0.078176 0.443136 0.234850
C33   C     C_3   0.143685 0.020798 0.579865 -0.875558
H17   H     H_    0.238316 0.047266 0.560092 0.262616
H18   H     H_    0.141104 0.932964 0.551457 0.295726
H19   H     H_    0.132716 0.025841 0.666067 0.288970
O10   O     O_3   0.052183 0.715952 0.488117 -0.573450
C34   C     C_3   0.938408 0.789024 0.479888 0.052950
H20   H     H_    0.940253 0.855883 0.541987 0.169689
H21   H     H_    0.848128 0.749766 0.491809 0.137327
C35   C     C_3   0.933186 0.841290 0.373344 -0.329515
H22   H     H_    0.017750 0.888519 0.364669 0.252044
H23   H     H_    0.936688 0.774478 0.310685 0.239609
C36   C     C_3   0.810878 0.919408 0.360530 -0.873942
H24   H     H_    0.725549 0.872181 0.363805 0.265072
H25   H     H_    0.811609 0.958300 0.283742 0.299838
H26   H     H_    0.803874 0.986433 0.422997 0.262947
N3    N     N_R   0.704095 0.319234 0.200792 0.214234
O11   O     O_R   0.743680 0.219682 0.163967 -0.367794
O12   O     O_R   0.761531 0.359729 0.282112 -0.397985
N4    N     N_R   0.296087 0.680987 0.799284 0.213886
O13   O     O_R   0.256514 0.780491 0.836240 -0.364816
O14   O     O_R   0.238682 0.640661 0.717875 -0.401880
N5    N     N_R   0.642904 0.222856 0.683625 0.201300
O15   O     O_R   0.621191 0.205390 0.780985 -0.421214
O16   O     O_R   0.742043 0.273385 0.661260 -0.378206
N6    N     N_R   0.356743 0.777204 0.316501 0.200949
O17   O     O_R   0.377516 0.794502 0.218948 -0.424432
O18   O     O_R   0.257722 0.726898 0.339629 -0.378057

loop_
_geom_bond_atom_site_label_1
_geom_bond_atom_site_label_2
_geom_bond_distance
_ccdc_geom_bond_type
C24   C29   1.391682 A    
O9    C31   1.412531 S    
C6    C9    1.523222 S    
C20   H5    1.083719 S    
C36   H24   1.110960 S    
C21   C22   1.409893 A    
Zn1   N1    2.018042 S    
C17   N4    1.437351 S    
C27   C29   1.423225 A    
N3    O11   1.301407 A    
O5    C3    1.277167 A    
C15   C22   1.396202 A    
C16   C21   1.396254 A    
O1    C1    1.291126 A    
C5    C10   1.522612 S    
C12   H4    1.110459 S    
N6    O18   1.298297 A    
C31   H13   1.113058 S    
O4    Zn1   2.001402 S    
C33   H18   1.108777 S    
C19   C21   1.375382 A    
C18   N3    1.437318 S    
C23   H11   1.083977 S    
C28   H9    1.082589 S    
C2    C13   1.428733 S    
N1    C26   1.381910 A    
C35   H22   1.111019 S    
C20   C22   1.375357 A    
Zn2   N2    2.018042 S    
C28   C30   1.423233 A    
O10   C34   1.418119 S    
C32   H15   1.111589 S    
C6    C12   1.534303 S    
C36   H25   1.110223 S    
O2    C2    1.291045 A    
C24   C26   1.410415 A    
N3    O12   1.300438 A    
C13   C20   1.389273 A    
C32   H16   1.111148 S    
C7    C12   1.549081 S    
C34   H20   1.109663 S    
N4    O14   1.300394 A    
N6    O17   1.301400 A    
C4    C9    1.415058 S    
C7    C9    1.537096 S    
C8    C11   1.549686 S    
C34   H21   1.115876 S    
N2    C25   1.382015 A    
C5    O9    1.411967 S    
O7    Zn2   1.977820 S    
C33   H17   1.108400 S    
C1    C14   1.428844 S    
C23   C25   1.410366 A    
N5    O15   1.301391 A    
O6    C4    1.277318 A    
C15   H7    1.084524 S    
C35   C36   1.527293 S    
C16   H8    1.084519 S    
O7    C3    1.281298 A    
O3    Zn2   2.001404 S    
O8    C4    1.281940 A    
O4    C2    1.284728 A    
N5    O16   1.298381 A    
C14   C19   1.389335 A    
C9    C11   1.537402 S    
C36   H26   1.110438 S    
C10   C12   1.538212 S    
O1    Zn1   1.986931 S    
C5    C7    1.538960 S    
C32   C33   1.528070 S    
O6    Zn2   2.000987 S    
C33   H19   1.110709 S    
C13   C18   1.412993 A    
C8    C10   1.536150 S    
C14   C17   1.413084 A    
N4    O13   1.301407 A    
O3    C1    1.284717 A    
O8    Zn1   1.977820 S    
C23   C30   1.391763 A    
C27   H10   1.082589 S    
C3    C10   1.413364 S    
C19   H6    1.083713 S    
C31   C32   1.525761 S    
C34   C35   1.528756 S    
C25   N6    1.428269 S    
C15   C17   1.391151 A    
C16   C18   1.391152 A    
C5    C11   1.533996 S    
C7    H1    1.110308 S    
N1    C28   1.369506 A    
C31   H14   1.116769 S    
C8    H2    1.110133 S    
N2    C27   1.369538 A    
C11   H3    1.110415 S    
O2    Zn2   1.986928 S    
C26   N5    1.428111 S    
C24   H12   1.084017 S    
O5    Zn1   2.000984 S    
C6    O10   1.410667 S    
C6    C8    1.535165 S    
C29   C30   1.402869 A    
C35   H23   1.110954 S    
