data_mof_unit_42728.cif
_audit_creation_date              2012-12-10T17:21:42-0500
_audit_creation_method            fapswitch 2.2
_symmetry_space_group_name_H-M    P1
_symmetry_Int_Tables_number       1
_space_group_crystal_system       triclinic
_cell_length_a                    10.753286
_cell_length_b                    10.883332
_cell_length_c                    9.604228
_cell_angle_alpha                 90.042882
_cell_angle_beta                  89.481409
_cell_angle_gamma                 93.168604
_cell_volume                      1122.23362329

loop_
_atom_site_label
_atom_site_type_symbol
_atom_type_description
_atom_site_fract_x
_atom_site_fract_y
_atom_site_fract_z
_atom_type_partial_charge
C1    C     C_R   0.491850 0.262467 0.499000 0.817526
C2    C     C_R   0.400238 0.059875 0.588582 0.061310
C3    C     C_R   0.478942 0.127960 0.493936 -0.223685
C4    C     C_R   0.260050 0.496987 0.500417 0.736847
C5    C     C_R   0.546416 0.065723 0.391618 0.182579
C6    C     C_R   0.562121 0.940736 0.406961 0.234495
C7    C     C_R   0.487549 0.871061 0.501851 -0.197686
C8    C     C_R   0.674716 0.655172 0.141017 -0.143600
C9    C     C_R   0.763399 0.727317 0.067295 -0.224842
C10   C     C_R   0.760532 0.730378 0.924089 -0.218035
C11   C     C_R   0.670972 0.658946 0.853559 -0.139207
C12   C     C_3   0.878049 0.490979 0.500619 0.090043
C13   C     C_R   0.584528 0.577667 0.924052 0.215288
C14   C     C_R   0.585351 0.576761 0.073449 0.199025
C15   C     C_R   0.419090 0.426259 0.074720 -0.074445
C16   C     C_R   0.495920 0.737225 0.500579 0.834736
C17   C     C_R   0.419276 0.426136 0.926828 -0.061142
C18   C     C_R   0.739826 0.496217 0.499726 0.728099
C19   C     C_3   0.067763 0.391591 0.600493 -0.355904
C20   C     C_3   0.923298 0.396531 0.610269 -0.090328
C21   C     C_3   0.077752 0.619128 0.550616 -0.382066
C22   C     C_3   0.071292 0.466470 0.352552 -0.361804
C23   C     C_3   0.935111 0.620258 0.539651 -0.413303
C24   C     C_3   0.122157 0.493611 0.501129 0.119948
C25   C     C_3   0.712300 0.182910 0.260727 -0.657056
C26   C     C_3   0.774308 0.887397 0.412968 -0.717507
C27   C     C_2   0.855429 0.270783 0.601039 0.280551
C28   C     C_3   0.928617 0.457423 0.354218 -0.383332
C29   C     C_R   0.312932 0.117761 0.674219 -0.150341
C30   C     C_R   0.230526 0.048864 0.759945 -0.113772
C31   C     C_R   0.231206 0.921287 0.760202 -0.134630
C32   C     C_R   0.314752 0.861814 0.675306 -0.158224
C33   C     C_R   0.401609 0.929539 0.589493 0.046428
Cu1   Cu    Cu3+1 0.499990 0.499990 0.640660 0.912926
Cu2   Cu    Cu3+1 0.500010 0.500010 0.359340 0.922113
H1    H     H_    0.107156 0.403902 0.706704 0.144413
H2    H     H_    0.097694 0.301595 0.561481 0.195814
H3    H     H_    0.678822 0.665536 0.250509 0.230057
H4    H     H_    0.833152 0.783872 0.121418 0.151613
H5    H     H_    0.827200 0.789730 0.867060 0.150719
H6    H     H_    0.673769 0.671677 0.744090 0.197250
H7    H     H_    0.353022 0.365626 0.872343 0.125744
H8    H     H_    0.900635 0.432080 0.715765 0.124177
H9    H     H_    0.105596 0.635967 0.660620 0.166040
H10   H     H_    0.895535 0.652728 0.639680 0.158603
H11   H     H_    0.104332 0.541178 0.279747 0.179347
H12   H     H_    0.894661 0.520255 0.273233 0.179697
H13   H     H_    0.106331 0.378717 0.312254 0.162373
H14   H     H_    0.895878 0.362379 0.326300 0.172580
H15   H     H_    0.522558 0.162131 0.204781 0.268392
H16   H     H_    0.706121 0.281567 0.234005 0.239808
H17   H     H_    0.768351 0.139018 0.178964 0.222452
H18   H     H_    0.759921 0.175625 0.361666 0.234940
H19   H     H_    0.675177 0.918909 0.233623 0.287015
H20   H     H_    0.803641 0.982127 0.446079 0.275256
H21   H     H_    0.850147 0.852562 0.347843 0.205222
H22   H     H_    0.760233 0.828670 0.506936 0.219708
H23   H     H_    0.121932 0.695002 0.486401 0.160867
H24   H     H_    0.754768 0.263350 0.610501 0.098975
H25   H     H_    0.912538 0.686059 0.457329 0.171715
H26   H     H_    0.303142 0.215930 0.671882 0.129401
H27   H     H_    0.163807 0.094633 0.823987 0.134602
H28   H     H_    0.165239 0.867917 0.824785 0.126039
H29   H     H_    0.307567 0.762617 0.675934 0.152975
H30   H     H_    0.352807 0.365756 0.130502 0.128250
N1    N     N_R   0.501200 0.501210 0.147910 -0.201874
N2    N     N_R   0.501250 0.501290 0.852040 -0.200878
N3    N     N_2   0.588873 0.123471 0.265211 -0.428230
N4    N     N_2   0.660599 0.886760 0.333641 -0.429488
O1    O     O_R   0.499990 0.319640 0.618810 -0.586192
O2    O     O_R   0.500000 0.319660 0.381240 -0.572092
O3    O     O_R   0.317680 0.499970 0.618790 -0.599427
O4    O     O_R   0.317700 0.499990 0.381210 -0.587202
O5    O     O_R   0.500000 0.680340 0.618760 -0.608463
O6    O     O_R   0.500010 0.680360 0.381190 -0.566993
O7    O     O_R   0.682300 0.500010 0.618790 -0.610713
O8    O     O_R   0.682320 0.500030 0.381210 -0.605334
O9    O     O_2   0.910837 0.176563 0.586755 -0.578163

loop_
_geom_bond_atom_site_label_1
_geom_bond_atom_site_label_2
_ccdc_geom_bond_type
C6    N4    S    
C22   H13   S    
C28   H12   S    
C23   H10   S    
C16   O6    A    
C19   C20   S    
C27   O9    D    
C26   H20   S    
C12   C23   S    
Cu2   O6    S    
C1    O2    A    
C12   C28   S    
C2    C29   A    
C16   O5    A    
C25   H18   S    
C19   H1    S    
C5    C6    A    
C4    C24   S    
C15   H30   S    
C9    H4    S    
C10   H5    S    
Cu1   Cu2   S    
C17   H7    S    
C19   H2    S    
C8    C9    A    
C18   O7    A    
C11   H6    S    
C9    C10   A    
Cu1   O1    S    
Cu2   O2    S    
C22   C28   S    
C13   C14   A    
C7    C33   A    
C25   N3    S    
C8    H3    S    
C5    N3    S    
C23   H25   S    
C29   H26   S    
C17   N2    A    
C31   H28   S    
C32   H29   S    
Cu2   N1    S    
C15   N1    A    
Cu2   O8    S    
C1    C3    S    
C25   H16   S    
C29   C30   A    
C21   H9    S    
C28   H14   S    
C31   C32   A    
C12   C20   S    
C14   N1    A    
C4    O4    A    
Cu1   O5    S    
C2    C33   A    
C7    C16   S    
C22   H11   S    
C30   H27   S    
C22   C24   S    
Cu1   O3    S    
C4    O3    A    
C20   H8    S    
C13   N2    A    
C15   C17   A    
Cu2   O4    S    
C8    C14   A    
C3    C5    A    
C26   H21   S    
Cu1   N2    S    
C6    C7    A    
C20   C27   S    
C1    O1    A    
C32   C33   A    
C21   C23   S    
C2    C3    A    
C25   H17   S    
C21   H23   S    
C27   H24   S    
C11   C13   A    
C30   C31   A    
H19   N4    S    
C18   O8    A    
C19   C24   S    
C26   H22   S    
C10   C11   A    
C21   C24   S    
C12   C18   S    
C26   N4    S    
H15   N3    S    
Cu1   O7    S    
