data_mof_unit_56531.cif
_audit_creation_date              2012-12-10T17:35:40-0500
_audit_creation_method            fapswitch 2.2
_symmetry_space_group_name_H-M    P1
_symmetry_Int_Tables_number       1
_space_group_crystal_system       triclinic
_cell_length_a                    10.728071
_cell_length_b                    12.316725
_cell_length_c                    13.181005
_cell_angle_alpha                 116.643456
_cell_angle_beta                  77.574987
_cell_angle_gamma                 101.228808
_cell_volume                      1510.60765738

loop_
_atom_site_label
_atom_site_type_symbol
_atom_type_description
_atom_site_fract_x
_atom_site_fract_y
_atom_site_fract_z
_atom_type_partial_charge
C1    C     C_R   0.512007 0.854893 0.286545 0.768664
C2    C     C_3   0.122895 0.999976 0.498809 0.099105
C3    C     C_3   0.050253 0.032860 0.621903 -0.385637
C4    C     C_3   0.066494 0.871357 0.417709 -0.374332
C5    C     C_R   0.322429 0.277641 0.019642 -0.196506
C6    C     C_R   0.453577 0.228042 0.834477 -0.048980
C7    C     C_R   0.603073 0.814385 0.086199 -0.190235
C8    C     C_R   0.630757 0.734985 0.971629 -0.148094
C9    C     C_R   0.583287 0.612075 0.933467 -0.184269
C10   C     C_R   0.502206 0.566478 0.009348 0.079622
C11   C     C_R   0.462229 0.650793 0.123097 0.084429
C12   C     C_R   0.739696 0.000556 0.501417 0.773018
C13   C     C_R   0.458401 0.440241 0.975828 0.073503
C14   C     C_R   0.366555 0.401971 0.051946 0.169374
C15   C     C_R   0.317369 0.488329 0.158253 -0.244266
C16   C     C_R   0.362999 0.611029 0.192763 -0.204869
C17   C     C_R   0.503774 0.350450 0.868964 -0.256148
C18   C     C_R   0.365069 0.190983 0.910897 -0.201982
C19   C     C_R   0.521716 0.773083 0.163485 -0.104836
C20   C     C_R   0.706646 0.347785 0.330069 -0.305398
C21   C     C_R   0.325235 0.759198 0.644926 0.072423
C22   C     C_R   0.287418 0.662454 0.676355 -0.259280
C23   C     C_R   0.480891 0.145090 0.713406 0.790345
C24   C     C_R   0.353128 0.559144 0.621792 -0.194309
C25   C     C_R   0.458289 0.551363 0.534575 -0.005425
C26   C     C_R   0.493651 0.653118 0.505480 0.290516
C27   C     C_R   0.529744 0.447157 0.475394 -0.037915
C28   C     C_R   0.634692 0.447520 0.389216 0.179971
C29   C     C_R   0.667540 0.547380 0.362423 -0.291557
C30   C     C_R   0.598658 0.647563 0.419148 -0.188783
C31   C     C_R   0.502313 0.341774 0.497477 0.015767
C32   C     C_R   0.674877 0.247477 0.356107 0.067065
C33   C     C_R   0.260508 0.999765 0.498905 0.765677
C34   C     C_3   0.960471 0.095980 0.460602 -0.422504
C35   C     C_3   0.103616 0.094495 0.457394 -0.387852
C36   C     C_3   0.905703 0.036478 0.625392 -0.034094
C37   C     C_3   0.921903 0.869774 0.416941 0.029391
C38   C     C_3   0.878007 0.999090 0.500670 0.151959
Cu1   Cu    Cu3+1 0.529690 0.098270 0.475420 0.921269
Cu2   Cu    Cu3+1 0.470310 0.901730 0.524580 0.909408
H1    H     H_    0.933677 0.189114 0.520607 0.167562
H2    H     H_    0.077524 0.801994 0.446621 0.152819
H3    H     H_    0.064048 0.965045 0.651712 0.179324
H4    H     H_    0.324831 0.096285 0.884940 0.144363
H5    H     H_    0.243195 0.460956 0.215179 0.141532
H6    H     H_    0.252074 0.247972 0.077258 0.128576
H7    H     H_    0.577294 0.373065 0.809448 0.144600
H8    H     H_    0.648223 0.907834 0.114892 0.149206
H9    H     H_    0.609698 0.556064 0.843520 0.128251
H10   H     H_    0.692800 0.768124 0.912528 0.138924
H11   H     H_    0.942505 0.079670 0.374648 0.182076
H12   H     H_    0.316832 0.674234 0.273679 0.169077
H13   H     H_    0.730019 0.170164 0.310851 0.116930
H14   H     H_    0.747762 0.548320 0.296648 0.153366
H15   H     H_    0.787033 0.347499 0.264137 0.132454
H16   H     H_    0.424222 0.333409 0.561226 0.121335
H17   H     H_    0.273734 0.839020 0.687801 0.119067
H18   H     H_    0.319760 0.487101 0.649639 0.131738
H19   H     H_    0.206888 0.667567 0.743282 0.140561
H20   H     H_    0.631679 0.718923 0.392237 0.212400
H21   H     H_    0.154099 0.071166 0.368274 0.177501
H22   H     H_    0.145035 0.187701 0.513157 0.173668
H23   H     H_    0.884804 0.132926 0.678759 0.149129
H24   H     H_    0.092070 0.123714 0.681709 0.136590
H25   H     H_    0.867195 0.801570 0.448213 0.162692
H26   H     H_    0.122379 0.844976 0.330045 0.162237
N1    N     N_R   0.574690 0.246280 0.438200 -0.177909
N2    N     N_R   0.426100 0.754320 0.561190 -0.205232
O1    O     O_R   0.537340 0.972510 0.318130 -0.576815
O2    O     O_R   0.487200 0.806530 0.359650 -0.600211
O3    O     O_R   0.707380 0.082980 0.479220 -0.591564
O4    O     O_R   0.657240 0.917000 0.520740 -0.599753
O5    O     O_R   0.512800 0.193470 0.640350 -0.584889
O6    O     O_R   0.462660 0.027490 0.681870 -0.588955
O7    O     O_R   0.342760 0.083000 0.479260 -0.587555
O8    O     O_R   0.292620 0.917020 0.520780 -0.599273
C39   C     C_3   0.822060 0.962439 0.688996 -0.885176
H27   H     H_    0.720397 0.980882 0.709050 0.257454
H28   H     H_    0.828150 0.862923 0.639190 0.240835
H29   H     H_    0.854871 0.991260 0.772712 0.227418
C40   C     C_3   0.894467 0.823572 0.293059 -0.927342
H30   H     H_    0.916671 0.727548 0.242484 0.235667
H31   H     H_    0.791890 0.824923 0.291356 0.227145
H32   H     H_    0.954546 0.879187 0.249756 0.245934

loop_
_geom_bond_atom_site_label_1
_geom_bond_atom_site_label_2
_ccdc_geom_bond_type
C2    C35   S    
C40   H30   S    
C7    C8    A    
C39   H27   S    
C31   N1    A    
C11   C19   A    
C34   H11   S    
C37   C38   S    
Cu2   O2    S    
C28   C29   A    
C36   C39   S    
C29   H14   S    
C15   C16   A    
C34   C35   S    
C33   O7    A    
C8    C9    A    
C30   H20   S    
Cu1   O7    S    
C31   H16   S    
C36   H23   S    
C9    C10   A    
C12   O4    A    
C21   C22   A    
C37   C40   S    
C34   H1    S    
C23   O5    A    
C20   H15   S    
C40   H31   S    
C39   H28   S    
C6    C18   A    
C1    C19   S    
C27   C31   A    
C17   H7    S    
C9    H9    S    
C24   C25   A    
Cu1   Cu2   S    
C5    C18   A    
C20   C28   A    
C25   C26   A    
C3    H24   S    
C1    O1    A    
Cu2   O8    S    
C37   H25   S    
C2    C4    S    
C21   H17   S    
C29   C30   A    
C18   H4    S    
C11   C16   A    
C33   O8    A    
C3    H3    S    
Cu1   O1    S    
C35   H21   S    
C5    C14   A    
C32   N1    A    
C2    C33   S    
C12   O3    A    
C26   C30   A    
C7    C19   A    
C21   N2    A    
C22   C24   A    
C15   H5    S    
C23   O6    A    
C8    H10   S    
C32   H13   S    
C22   H19   S    
C40   H32   S    
C20   C32   A    
C39   H29   S    
C6    C17   A    
Cu2   O4    S    
C34   C38   S    
Cu1   N1    S    
C16   H12   S    
C10   C13   A    
C25   C27   A    
C5    H6    S    
C1    O2    A    
C13   C17   A    
C26   N2    A    
C7    H8    S    
C36   C38   S    
C2    C3    S    
C4    H26   S    
C4    H2    S    
C3    C36   S    
C6    C23   S    
Cu2   O6    S    
C35   H22   S    
Cu1   O5    S    
C12   C38   S    
C10   C11   A    
C4    C37   S    
C24   H18   S    
Cu2   N2    S    
C27   C28   A    
Cu1   O3    S    
C14   C15   A    
C13   C14   A    
