data_mof_unit_37260.cif
_audit_creation_date              2012-12-10T17:43:37-0500
_audit_creation_method            fapswitch 2.2
_symmetry_space_group_name_H-M    P1
_symmetry_Int_Tables_number       1
_space_group_crystal_system       triclinic
_cell_length_a                    14.964296
_cell_length_b                    10.714606
_cell_length_c                    9.875359
_cell_angle_alpha                 88.944948
_cell_angle_beta                  89.886585
_cell_angle_gamma                 91.839968
_cell_volume                      1582.29093313

loop_
_atom_site_label
_atom_site_type_symbol
_atom_type_description
_atom_site_fract_x
_atom_site_fract_y
_atom_site_fract_z
_atom_type_partial_charge
C1    C     C_R   0.504877 0.259657 0.502320 0.873549
C2    C     C_R   0.908357 0.554037 0.382071 0.004729
C3    C     C_R   0.949537 0.394908 0.716604 -0.168728
C4    C     C_R   0.042283 0.397328 0.719504 -0.209250
C5    C     C_R   0.090761 0.447960 0.609338 0.127992
C6    C     C_R   0.046154 0.496641 0.494888 0.077282
C7    C     C_R   0.094796 0.543997 0.382183 0.078521
C8    C     C_R   0.050723 0.586919 0.267000 -0.261200
C9    C     C_R   0.957903 0.589396 0.264195 0.201323
C10   C     C_R   0.183328 0.450520 0.611253 -0.251317
C11   C     C_R   0.230927 0.498528 0.499252 -0.068122
C12   C     C_R   0.326719 0.499390 0.500057 0.871004
C13   C     C_R   0.187160 0.543884 0.384678 -0.242062
C14   C     C_R   0.506362 0.104551 0.763475 -0.153242
C15   C     C_R   0.474023 0.039453 0.878026 -0.107581
C16   C     C_R   0.427632 0.926178 0.863759 -0.124837
C17   C     C_R   0.421876 0.872255 0.736740 -0.146031
C18   C     C_R   0.462517 0.932250 0.622097 0.097829
C19   C     C_R   0.492430 0.056580 0.631707 0.111177
C20   C     C_R   0.507237 0.125444 0.508439 -0.119799
C21   C     C_R   0.510507 0.064807 0.384416 -0.207717
C22   C     C_R   0.499334 0.937847 0.380572 -0.194829
C23   C     C_R   0.490508 0.738691 0.499300 0.901796
C24   C     C_R   0.478245 0.870856 0.499285 -0.133682
C25   C     C_R   0.381926 0.336747 0.143216 -0.227925
C26   C     C_R   0.324258 0.255591 0.074689 -0.348039
C27   C     C_R   0.322309 0.256641 0.932581 0.508594
C28   C     C_R   0.381839 0.337531 0.862833 -0.242639
C29   C     C_R   0.441558 0.419921 0.929365 0.077058
C30   C     C_R   0.441585 0.419819 0.073902 0.171105
C31   C     C_R   0.555191 0.577570 0.069804 -0.098310
C32   C     C_R   0.555315 0.577397 0.926478 -0.091359
C33   C     C_R   0.673234 0.503710 0.499772 0.937870
C34   C     C_R   0.816403 0.571960 0.394908 0.144148
C35   C     C_R   0.769117 0.507199 0.498765 -0.133765
C36   C     C_R   0.812936 0.445031 0.602991 -0.270417
C37   C     C_R   0.905043 0.446268 0.605185 0.138766
C38   C     C_R   0.953113 0.498578 0.493621 -0.006289
H1    H     H_    0.545095 0.189145 0.781701 0.167460
H2    H     H_    0.483477 0.078292 0.977639 0.133475
H3    H     H_    0.398928 0.877983 0.951630 0.124946
H4    H     H_    0.385910 0.783421 0.729156 0.154613
H5    H     H_    0.509320 0.892193 0.284921 0.175578
H6    H     H_    0.599923 0.641152 0.122264 0.180630
H7    H     H_    0.378074 0.330526 0.250645 0.230715
H8    H     H_    0.282493 0.191490 0.134517 0.162116
H9    H     H_    0.380216 0.331507 0.755560 0.227861
H10   H     H_    0.775192 0.398525 0.684353 0.169999
H11   H     H_    0.600419 0.640595 0.870957 0.167047
H12   H     H_    0.912601 0.354757 0.802226 0.161781
H13   H     H_    0.076027 0.359382 0.807330 0.142238
H14   H     H_    0.218195 0.413613 0.698666 0.167698
H15   H     H_    0.225029 0.580379 0.298028 0.162107
H16   H     H_    0.088548 0.614833 0.177091 0.165016
H17   H     H_    0.523319 0.115134 0.289776 0.175177
N1    N     N_R   0.499150 0.498800 0.142780 -0.119627
N2    N     N_R   0.499120 0.498720 0.857170 -0.120006
O1    O     O_R   0.500000 0.316780 0.614690 -0.654724
O2    O     O_R   0.499990 0.316750 0.385360 -0.638741
O3    O     O_R   0.367850 0.499980 0.614680 -0.648690
O4    O     O_R   0.367840 0.499960 0.385350 -0.645999
O5    O     O_R   0.500010 0.683250 0.614640 -0.624015
O6    O     O_R   0.500000 0.683220 0.385310 -0.615343
O7    O     O_R   0.632160 0.500040 0.614650 -0.619108
O8    O     O_R   0.632150 0.500020 0.385320 -0.591021
Zn1   Zn    Zn3+2 0.500010 0.500020 0.653130 0.934327
Zn2   Zn    Zn3+2 0.499990 0.499980 0.346870 0.952794
I1    I     I_    0.755865 0.733277 0.306523 -0.339976
O9    O     O_3   0.271133 0.173617 0.855076 -0.647820
C39   C     C_3   0.189087 0.133551 0.915629 0.085889
H18   H     H_    0.137794 0.131752 0.834439 0.165572
H19   H     H_    0.163754 0.198728 0.992405 0.122725
C40   C     C_3   0.196278 0.000202 0.972645 -0.364523
H20   H     H_    0.212151 0.936641 0.888798 0.235363
H21   H     H_    0.251337 0.995833 0.047574 0.213940
C41   C     C_3   0.109228 0.954490 0.040424 -0.897473
H22   H     H_    0.093113 0.015084 0.126632 0.265568
H23   H     H_    0.116420 0.857475 0.079503 0.267718
H24   H     H_    0.053421 0.955168 0.966422 0.276945
I2    I     I_    0.903248 0.613001 0.066503 -0.377833

loop_
_geom_bond_atom_site_label_1
_geom_bond_atom_site_label_2
_ccdc_geom_bond_type
C28   H9    S    
C40   H20   S    
C19   C20   A    
C41   H24   S    
N2    Zn1   S    
C10   H14   S    
C33   O8    A    
C7    C8    A    
C26   C27   A    
C29   C30   A    
C18   C24   A    
C28   C29   A    
C41   H23   S    
C34   C35   A    
C1    O2    A    
C5    C6    A    
C15   C16   A    
C18   C19   A    
C2    C38   A    
C17   H4    S    
O2    Zn2   S    
C14   H1    S    
O1    Zn1   S    
C23   O5    A    
C31   C32   A    
C16   C17   A    
O8    Zn2   S    
C23   C24   S    
C6    C38   A    
C39   H18   S    
C31   N1    A    
C27   O9    S    
C2    C34   A    
C23   O6    A    
O3    Zn1   S    
C21   C22   A    
C40   H21   S    
C32   N2    A    
C3    H12   S    
C13   H15   S    
C15   H2    S    
O6    Zn2   S    
C31   H6    S    
O5    Zn1   S    
C4    H13   S    
C41   H22   S    
C8    H16   S    
C21   H17   S    
C8    C9    A    
C25   C26   A    
C30   N1    A    
C35   C36   A    
O7    Zn1   S    
C37   C38   A    
O4    Zn2   S    
C22   H5    S    
C39   C40   S    
C17   C18   A    
C29   N2    A    
C40   C41   S    
C22   C24   A    
C34   I1    S    
C3    C4    A    
C25   H7    S    
C25   C30   A    
C36   C37   A    
C1    C20   S    
C14   C19   A    
C4    C5    A    
C11   C12   S    
C6    C7    A    
N1    Zn2   S    
C5    C10   A    
C1    O1    A    
C12   O4    A    
C11   C13   A    
C33   O7    A    
C33   C35   S    
C36   H10   S    
O9    C39   S    
C32   H11   S    
C10   C11   A    
C26   H8    S    
C12   O3    A    
C7    C13   A    
C20   C21   A    
C3    C37   A    
C27   C28   A    
C14   C15   A    
C39   H19   S    
C2    C9    A    
C16   H3    S    
C9    I2    S    
