data_mof_unit_42031.cif
_audit_creation_date              2012-10-26T19:06:53-0400
_audit_creation_method            fapswitch 2.2
_symmetry_space_group_name_H-M    P1
_symmetry_Int_Tables_number       1
_space_group_crystal_system       triclinic
_cell_length_a                    12.397789
_cell_length_b                    13.14285
_cell_length_c                    27.768951
_cell_angle_alpha                 75.805391
_cell_angle_beta                  101.426102
_cell_angle_gamma                 117.027518
_cell_volume                      3887.79264474

loop_
_atom_site_label
_atom_site_type_symbol
_atom_type_description
_atom_site_fract_x
_atom_site_fract_y
_atom_site_fract_z
_atom_type_partial_charge
C1    C     C_R   0.855541 0.286655 0.502830 0.542906
C2    C     C_R   0.945948 0.398590 0.032475 0.034808
C3    C     C_R   0.070131 0.610054 0.018549 0.022340
C4    C     C_R   0.999901 0.499594 0.592446 0.575622
C5    C     C_R   0.009890 0.504335 0.050944 0.033954
C6    C     C_R   0.908189 0.293961 0.067358 -0.081513
C7    C     C_R   0.915210 0.293716 0.117988 -0.090784
C8    C     C_R   0.964661 0.398311 0.135727 0.024207
C9    C     C_R   0.014849 0.503964 0.102449 -0.027011
C10   C     C_R   0.070345 0.609099 0.120733 0.023192
C11   C     C_R   0.070185 0.606847 0.171517 0.447608
C12   C     C_R   0.911561 0.519214 0.711247 -0.097123
C13   C     C_R   0.967481 0.399985 0.186279 0.405116
C14   C     C_R   0.116457 0.517389 0.288613 0.319321
C15   C     C_R   0.110217 0.518387 0.338317 -0.155617
C16   C     C_R   0.145113 0.714526 0.491665 0.563373
C17   C     C_R   0.897481 0.484119 0.319176 0.215745
C18   C     C_R   0.905126 0.485833 0.269514 -0.053319
C19   C     C_R   0.013777 0.503087 0.254094 0.205886
C20   C     C_R   0.928643 0.400766 0.980173 0.025498
C21   C     C_R   0.001650 0.503571 0.948967 0.007912
C22   C     C_R   0.075071 0.607597 0.968262 0.024824
C23   C     C_R   0.000164 0.498579 0.746621 0.250174
C24   C     C_R   0.840047 0.306086 0.957190 0.211922
C25   C     C_R   0.152982 0.702436 0.887021 -0.088135
C26   C     C_R   0.124148 0.714420 0.037840 -0.121754
C27   C     C_R   0.123345 0.713782 0.087941 -0.090849
C28   C     C_R   0.999588 0.499760 0.407516 0.570458
C29   C     C_R   0.151780 0.705489 0.936573 -0.120206
C30   C     C_R   0.281201 0.033023 0.432078 -0.078803
C31   C     C_R   0.228657 0.838471 0.479813 0.011811
C32   C     C_R   0.815637 0.079423 0.529079 -0.082843
C33   C     C_R   0.736171 0.962194 0.536137 0.252683
C34   C     C_R   0.000386 0.502797 0.897879 -0.035523
C35   C     C_R   0.613197 0.927205 0.519410 -0.079975
C36   C     C_R   0.568267 0.009154 0.492886 0.001655
C37   C     C_R   0.652952 0.126066 0.479634 0.002110
C38   C     C_R   0.442239 0.978890 0.478580 0.023850
C39   C     C_R   0.404870 0.061423 0.446383 0.005651
C40   C     C_R   0.923363 0.403369 0.826902 0.430422
C41   C     C_R   0.491419 0.171167 0.428181 -0.115258
C42   C     C_R   0.613700 0.202748 0.444167 -0.075348
C43   C     C_R   0.352038 0.869813 0.496282 -0.161925
C44   C     C_R   0.192845 0.922256 0.448133 0.237817
C45   C     C_R   0.922040 0.402915 0.877391 -0.011826
C46   C     C_R   0.774643 0.162772 0.502194 -0.058152
C47   C     C_R   0.368750 0.376377 0.594487 0.246645
C48   C     C_R   0.753606 0.636266 0.428417 0.141939
C49   C     C_R   0.655826 0.665128 0.411843 0.235468
C50   C     C_R   0.556570 0.616794 0.439689 -0.102759
C51   C     C_R   0.553666 0.538892 0.484946 -0.074984
C52   C     C_R   0.075689 0.598764 0.816875 0.445210
C53   C     C_R   0.655892 0.510413 0.501024 0.178127
C54   C     C_R   0.452210 0.487390 0.514651 -0.054473
C55   C     C_R   0.464276 0.427365 0.563651 0.003650
C56   C     C_R   0.840607 0.306792 0.906977 -0.053500
C57   C     C_R   0.568854 0.412325 0.580736 -0.125977
C58   C     C_R   0.649231 0.430242 0.547565 0.284096
C59   C     C_R   0.338922 0.492868 0.498438 0.032752
C60   C     C_R   0.258353 0.379517 0.575031 0.084478
C61   C     C_R   0.088508 0.477203 0.731590 0.294160
C62   C     C_R   0.088002 0.477381 0.681273 -0.109748
C63   C     C_R   0.911198 0.519429 0.661023 -0.130403
C64   C     C_3   0.406964 0.387392 0.676696 -0.090678
C65   C     C_3   0.645852 0.247381 0.576963 -0.101214
C66   C     C_3   0.251317 0.441796 0.292571 -0.071256
C67   C     C_R   0.076993 0.602173 0.867108 0.037396
C68   C     C_R   0.999673 0.498794 0.645547 -0.028036
C69   C     C_R   0.001165 0.500742 0.354340 -0.020679
Cl1   Cl    Cl    0.200006 0.449388 0.775264 -0.535566
Cl2   Cl    Cl    0.754770 0.457397 0.334830 -0.585929
Cl3   Cl    Cl    0.040511 0.893750 0.425582 -0.533712
Cl4   Cl    Cl    0.789751 0.858563 0.568266 -0.568245
Cl5   Cl    Cl    0.657830 0.762759 0.355760 -0.476769
Cl6   Cl    Cl    0.710196 0.195235 0.985098 -0.574379
Cu1   Cu    Cu3+1 0.098270 0.475420 0.511360 0.949671
Cu2   Cu    Cu3+1 0.901730 0.524580 0.488640 1.080750
H1    H     H_    0.841891 0.536069 0.634403 0.170029
H2    H     H_    0.375800 0.806915 0.523218 0.133060
H3    H     H_    0.908973 0.105283 0.545588 0.174562
H4    H     H_    0.556009 0.835222 0.526411 0.139345
H5    H     H_    0.676946 0.287231 0.427429 0.196305
H6    H     H_    0.183313 0.339386 0.597871 0.143415
H7    H     H_    0.580228 0.370431 0.618884 0.163986
H8    H     H_    0.322550 0.540260 0.462366 0.125659
H9    H     H_    0.829661 0.673525 0.406309 0.210083
H10   H     H_    0.773402 0.232840 0.890660 0.205633
H11   H     H_    0.484152 0.643642 0.425728 0.139012
H12   H     H_    0.213788 0.779519 0.864291 0.181097
H13   H     H_    0.191518 0.534296 0.364267 0.140405
H14   H     H_    0.882292 0.211078 0.143194 0.187712
H15   H     H_    0.877851 0.211157 0.056418 0.190306
H16   H     H_    0.156764 0.460907 0.670231 0.143017
H17   H     H_    0.493402 0.466945 0.670084 0.127502
H18   H     H_    0.419462 0.339519 0.714671 0.186755
H19   H     H_    0.331250 0.411228 0.676035 0.134617
H20   H     H_    0.564124 0.213179 0.549978 0.127194
H21   H     H_    0.619763 0.227597 0.615301 0.130431
H22   H     H_    0.701079 0.199626 0.579070 0.141857
H23   H     H_    0.164788 0.798531 0.014700 0.130833
H24   H     H_    0.174007 0.359434 0.283907 0.148593
H25   H     H_    0.277150 0.435347 0.333527 0.111151
H26   H     H_    0.330512 0.453702 0.275247 0.181544
H27   H     H_    0.165208 0.795989 0.100916 0.181413
H28   H     H_    0.825946 0.473224 0.242542 0.177140
H29   H     H_    0.214949 0.784974 0.949493 0.132663
H30   H     H_    0.464452 0.233490 0.401854 0.136548
H31   H     H_    0.253173 0.096605 0.407455 0.150772
H32   H     H_    0.843227 0.535582 0.722754 0.141753
N1    N     N_R   0.000126 0.500082 0.798013 -0.374528
N2    N     N_R   0.018230 0.503337 0.202913 -0.381723
N3    N     N_R   0.246290 0.438210 0.528570 -0.270579
N4    N     N_R   0.754320 0.561170 0.471730 -0.260288
O1    O     O_R   0.972510 0.318140 0.514280 -0.500373
O2    O     O_R   0.082990 0.479230 0.439860 -0.521347
O3    O     O_R   0.917010 0.520730 0.420680 -0.465338
O4    O     O_2   0.848928 0.307997 0.806817 -0.467317
O5    O     O_3   0.379354 0.314694 0.641913 -0.578930
O6    O     O_3   0.718159 0.367768 0.561874 -0.526971
O7    O     O_3   0.224505 0.538193 0.272505 -0.512154
O8    O     O_2   0.919469 0.299350 0.218557 -0.469799
O9    O     O_2   0.148974 0.693206 0.787039 -0.452327
O10   O     O_2   0.120568 0.707108 0.189352 -0.439520
O11   O     O_R   0.806530 0.359640 0.495100 -0.458022
O12   O     O_R   0.082990 0.479270 0.579320 -0.528367
O13   O     O_R   0.917010 0.520770 0.560140 -0.433379
O14   O     O_R   0.193470 0.640360 0.504900 -0.519861
O15   O     O_R   0.027490 0.681860 0.485720 -0.444504

loop_
_geom_bond_atom_site_label_1
_geom_bond_atom_site_label_2
_ccdc_geom_bond_type
C10   C27   A    
C61   Cl1   S    
C17   C69   A    
C8    C13   A    
C22   C29   A    
C41   C42   A    
C66   H25   S    
C28   C69   S    
C42   H5    S    
C35   H4    S    
C7    C8    A    
C39   C41   A    
C16   C31   S    
C12   C23   A    
C26   C27   A    
C31   C43   A    
C4    O12   A    
C36   C37   A    
C65   H21   S    
C38   C39   A    
C60   H6    S    
C1    C46   S    
C43   H2    S    
C27   H27   S    
Cu1   O2    S    
C64   O5    S    
C18   C19   A    
C37   C42   A    
C28   O3    A    
C47   C60   A    
C63   C68   A    
C52   O9    S    
C47   O5    S    
C20   C24   A    
C45   C56   A    
C8    C9    A    
C25   C67   A    
Cu1   O1    S    
Cu2   O3    S    
C9    C10   A    
C50   H11   S    
C40   O4    S    
C66   O7    S    
C21   C22   A    
Cu1   O12   S    
C66   H24   S    
C30   C44   A    
C2    C6    A    
Cu2   N4    S    
C14   C19   A    
C12   H32   S    
C53   N4    A    
C17   C18   A    
C54   C59   A    
C25   C29   A    
C40   C45   A    
C15   C69   A    
C31   C44   A    
C2    C20   A    
Cu1   Cu2   S    
C64   H19   S    
C4    C68   S    
C12   C63   A    
C56   H10   S    
C40   N1    A    
C21   C34   A    
C50   C51   A    
C11   N2    A    
C51   C53   A    
C35   C36   A    
C59   H8    S    
C5    C9    A    
C60   N3    A    
C28   O2    A    
C32   H3    S    
C13   O8    S    
C52   N1    A    
Cu1   N3    S    
C7    H14   S    
C59   N3    A    
C65   O6    S    
C57   H7    S    
C34   C45   A    
C16   O15   A    
C65   H22   S    
Cu2   O15   S    
C33   Cl4   S    
C48   C49   A    
C17   Cl2   S    
C14   O7    S    
C55   C57   A    
C48   H9    S    
C29   H29   S    
C2    C5    A    
C1    O1    A    
C47   C55   A    
C23   N1    S    
C54   C55   A    
C41   H30   S    
C30   H31   S    
C14   C15   A    
C32   C46   A    
C66   H26   S    
C3    C26   A    
C11   O10   S    
C64   H18   S    
C52   C67   A    
C3    C5    A    
C34   C67   A    
C53   C58   A    
C24   Cl6   S    
C6    C7    A    
C19   N2    S    
C24   C56   A    
C25   H12   S    
C4    O13   A    
C51   C54   A    
C32   C33   A    
C36   C38   A    
C1    O11   A    
C65   H20   S    
C38   C43   A    
C13   N2    A    
Cu2   O11   S    
C15   H13   S    
C57   C58   A    
C6    H15   S    
C58   O6    S    
C33   C35   A    
C30   C39   A    
C44   Cl3   S    
C62   C68   A    
C61   C62   A    
C16   O14   A    
C18   H28   S    
C10   C11   A    
C64   H17   S    
C23   C61   A    
C20   C21   A    
C49   C50   A    
C62   H16   S    
Cu1   O14   S    
C49   Cl5   S    
C3    C22   A    
C37   C46   A    
Cu2   O13   S    
C26   H23   S    
C48   N4    A    
C63   H1    S    
