data_mof_unit_54673.cif
_audit_creation_date              2012-12-10T18:54:20-0500
_audit_creation_method            fapswitch 2.2
_symmetry_space_group_name_H-M    P1
_symmetry_Int_Tables_number       1
_space_group_crystal_system       triclinic
_cell_length_a                    10.743697
_cell_length_b                    9.820948
_cell_length_c                    23.420052
_cell_angle_alpha                 89.825502
_cell_angle_beta                  90.131265
_cell_angle_gamma                 90.051262
_cell_volume                      2471.10780913

loop_
_atom_site_label
_atom_site_type_symbol
_atom_type_description
_atom_site_fract_x
_atom_site_fract_y
_atom_site_fract_z
_atom_type_partial_charge
C1    C     C_R   0.260098 0.499950 0.499956 0.938768
C2    C     C_R   0.739893 0.500061 0.500055 0.950669
C3    C     C_R   0.528559 0.616615 0.235488 -0.199011
C4    C     C_R   0.433323 0.608852 0.761526 -0.192055
C5    C     C_R   0.521030 0.622943 0.294744 0.189394
C6    C     C_R   0.431335 0.608295 0.702068 0.185415
C7    C     C_R   0.505477 0.500841 0.326406 -0.082374
C8    C     C_R   0.489912 0.500210 0.672742 -0.068157
C9    C     C_R   0.497306 0.375764 0.297401 -0.272862
C10   C     C_R   0.543950 0.392308 0.703375 -0.273212
C11   C     C_R   0.503292 0.371609 0.238205 -0.094330
C12   C     C_R   0.543863 0.393523 0.762641 -0.098683
C13   C     C_R   0.518424 0.492173 0.207413 0.291960
C14   C     C_R   0.489567 0.502367 0.791530 0.287587
C15   C     C_R   0.064894 0.419784 0.540416 0.009108
C16   C     C_R   0.935057 0.580132 0.459626 0.016595
C17   C     C_R   0.935334 0.420176 0.540539 0.022833
C18   C     C_R   0.064621 0.580098 0.459617 0.024623
C19   C     C_R   0.872332 0.500197 0.500098 -0.074626
C20   C     C_R   0.127646 0.499918 0.500005 -0.075632
C21   C     C_R   0.590136 0.071889 0.528548 -0.072227
C22   C     C_R   0.409271 0.928107 0.471881 -0.065343
C23   C     C_R   0.409554 0.072105 0.471667 -0.084038
C24   C     C_R   0.590234 0.927871 0.528479 -0.060919
C25   C     C_R   0.500791 0.500446 0.389057 0.889894
C26   C     C_R   0.497504 0.499943 0.610640 0.888436
C27   C     C_R   0.602643 0.538975 0.878556 0.521016
C28   C     C_R   0.403243 0.475639 0.120121 0.509221
C29   C     C_R   0.385203 0.490841 0.881746 0.521677
C30   C     C_R   0.620875 0.524076 0.117597 0.537166
C31   C     C_R   0.383634 0.508140 0.941232 -0.084612
C32   C     C_R   0.616751 0.544157 0.058167 -0.069767
C33   C     C_R   0.497663 0.528660 0.969730 -0.110261
C34   C     C_R   0.502187 0.523994 0.029680 -0.102907
C35   C     C_R   0.606873 0.554514 0.938186 -0.069602
C36   C     C_R   0.392189 0.498539 0.061008 -0.074386
C37   C     C_R   0.271497 0.511099 0.972540 0.208095
C38   C     C_R   0.721743 0.588753 0.026912 0.151039
C39   C     C_R   0.275337 0.504900 0.032556 0.143655
C40   C     C_R   0.715521 0.597971 0.966863 0.170502
H1    H     H_    0.538919 0.709502 0.210833 0.134398
H2    H     H_    0.390586 0.691822 0.784725 0.129970
H3    H     H_    0.485341 0.280799 0.320387 0.174145
H4    H     H_    0.588750 0.308688 0.681452 0.169261
H5    H     H_    0.494792 0.275216 0.216200 0.143973
H6    H     H_    0.587198 0.311091 0.786173 0.145180
H7    H     H_    0.662008 0.126443 0.551436 0.133868
H8    H     H_    0.336656 0.873562 0.449522 0.135377
H9    H     H_    0.337434 0.126809 0.448916 0.130721
H10   H     H_    0.662251 0.873116 0.551278 0.129383
N1    N     N_R   0.493213 0.507441 0.852226 -0.358364
N2    N     N_R   0.515269 0.491543 0.146631 -0.352775
N3    N     N_R   0.500000 0.857200 0.500000 -0.073769
N4    N     N_R   0.500000 0.142800 0.500000 -0.078325
O1    O     O_R   0.316770 0.614620 0.500000 -0.616304
O2    O     O_R   0.683230 0.385380 0.500000 -0.615347
O3    O     O_R   0.683230 0.614620 0.500000 -0.618359
O4    O     O_R   0.316770 0.385380 0.500000 -0.613984
O5    O     O_R   0.499970 0.614690 0.416160 -0.578592
O6    O     O_R   0.500030 0.385310 0.583840 -0.618689
O7    O     O_R   0.500030 0.614690 0.583840 -0.595176
O8    O     O_R   0.499970 0.385310 0.416160 -0.633337
O9    O     O_2   0.706797 0.552405 0.846904 -0.531721
O10   O     O_2   0.303878 0.437397 0.151378 -0.571724
O11   O     O_2   0.280805 0.454538 0.853421 -0.525861
O12   O     O_2   0.729082 0.534838 0.146619 -0.540031
Zn1   Zn    Zn3+2 0.500000 0.653120 0.500000 0.978234
Zn2   Zn    Zn3+2 0.500000 0.346880 0.500000 0.960216
N5    N     N_2   0.155814 0.531209 0.943723 -0.245974
H11   H     H_    0.078129 0.493359 0.964085 0.224757
C41   C     C_3   0.138479 0.667063 0.920557 -0.709044
H12   H     H_    0.112776 0.738816 0.955109 0.204899
H13   H     H_    0.063638 0.664997 0.887865 0.258665
H14   H     H_    0.224043 0.705238 0.899313 0.238149
N6    N     N_2   0.831080 0.631678 0.056110 -0.257480
H15   H     H_    0.913446 0.589617 0.042475 0.228040
C42   C     C_3   0.836441 0.774303 0.071580 -0.727191
H16   H     H_    0.904938 0.828211 0.044174 0.211685
H17   H     H_    0.866523 0.783281 0.116749 0.258136
H18   H     H_    0.744175 0.824654 0.067140 0.232613
N7    N     N_2   0.161751 0.519009 0.063187 -0.316358
H19   H     H_    0.134531 0.434804 0.086343 0.276828
C43   C     C_3   0.144695 0.648969 0.091276 -0.715706
H20   H     H_    0.059553 0.645652 0.117893 0.256576
H21   H     H_    0.134916 0.731052 0.058926 0.224240
H22   H     H_    0.224278 0.673663 0.119691 0.255410
N8    N     N_2   0.814488 0.659787 0.935710 -0.251461
H23   H     H_    0.901200 0.647088 0.953159 0.220249
C44   C     C_3   0.791362 0.799165 0.918315 -0.701739
H24   H     H_    0.870386 0.836487 0.892098 0.232282
H25   H     H_    0.781744 0.865750 0.956250 0.216800
H26   H     H_    0.705201 0.806265 0.892198 0.251002
N9    N     N_2   0.529580 0.752270 0.321635 -0.276326
H27   H     H_    0.600173 0.812115 0.305373 0.223059
C45   C     C_3   0.412716 0.825125 0.323690 -0.762206
H28   H     H_    0.425966 0.922514 0.346853 0.227523
H29   H     H_    0.341327 0.763827 0.346470 0.253700
H30   H     H_    0.379309 0.848454 0.279780 0.226258
N10   N     N_2   0.370049 0.715903 0.672337 -0.289194
H31   H     H_    0.371045 0.807581 0.693742 0.220694
C46   C     C_3   0.246934 0.681500 0.651749 -0.728379
H32   H     H_    0.209120 0.767703 0.626319 0.234462
H33   H     H_    0.183642 0.661119 0.688272 0.234380
H34   H     H_    0.250319 0.590489 0.623855 0.237471
N11   N     N_3   0.133789 0.341486 0.581666 -0.450865
H35   H     H_    0.109931 0.238862 0.577267 0.193012
H36   H     H_    0.109470 0.373652 0.622640 0.184295
N12   N     N_3   0.866078 0.657462 0.418079 -0.444073
H37   H     H_    0.889934 0.760199 0.422003 0.189243
H38   H     H_    0.890207 0.624175 0.377240 0.185571
N13   N     N_3   0.866652 0.343112 0.582170 -0.461486
H39   H     H_    0.891330 0.376615 0.622967 0.186269
H40   H     H_    0.890241 0.240337 0.578343 0.180357
N14   N     N_3   0.133273 0.657497 0.418089 -0.466878
H41   H     H_    0.108686 0.624293 0.377238 0.184255
H42   H     H_    0.109645 0.760233 0.422039 0.178463

loop_
_geom_bond_atom_site_label_1
_geom_bond_atom_site_label_2
_ccdc_geom_bond_type
C22   H8    S    
N8    H23   S    
N9    H27   S    
C37   N5    S    
C45   H28   S    
C8    C26   S    
N13   H39   S    
C18   N14   S    
N14   H41   S    
C45   H30   S    
C42   H16   S    
N11   H36   S    
C46   H32   S    
C43   H20   S    
C40   N8    S    
C38   C40   A    
C26   O7    A    
C21   N4    A    
C33   C35   A    
C23   H9    S    
N4    Zn2   S    
C2    O3    A    
C11   C13   A    
N12   H37   S    
C7    C9    A    
N5    C41   S    
O5    Zn1   S    
N10   H31   S    
C31   C33   A    
C32   C38   A    
C44   H25   S    
C18   C20   A    
C3    C13   A    
C46   H33   S    
O3    Zn1   S    
C17   N13   S    
N7    C43   S    
C27   N1    A    
N7    H19   S    
C22   N3    A    
C38   N6    S    
C42   H17   S    
C24   H10   S    
C15   C20   A    
C9    H3    S    
C10   H4    S    
C39   N7    S    
C4    C6    A    
C5    C7    A    
C6    C8    A    
C27   C35   A    
C24   N3    A    
O2    Zn2   S    
C31   C37   A    
N14   H42   S    
C12   H6    S    
C32   C34   A    
N6    H15   S    
C13   N2    S    
N6    C42   S    
O7    Zn1   S    
C5    N9    S    
C14   N1    S    
C29   C31   A    
C33   C34   A    
N13   H40   S    
C16   C18   A    
C44   H26   S    
C9    C11   A    
O6    Zn2   S    
C30   O12   S    
C10   C12   A    
C29   O11   S    
C28   O10   S    
O4    Zn2   S    
C43   H21   S    
C12   C14   A    
C46   H34   S    
N8    C44   S    
C11   H5    S    
C23   N4    A    
C41   H13   S    
C29   N1    A    
C42   H18   S    
C15   C17   A    
C30   N2    A    
C3    H1    S    
C1    C20   S    
N10   C46   S    
C2    C19   S    
C36   C39   A    
C3    C5    A    
C41   H14   S    
O1    Zn1   S    
C45   H29   S    
N11   H35   S    
C7    C25   S    
O8    Zn2   S    
C6    N10   S    
C15   N11   S    
C35   C40   A    
C1    O1    A    
C41   H12   S    
C37   C39   A    
C2    O2    A    
C1    O4    A    
C30   C32   A    
C28   N2    A    
N9    C45   S    
C4    H2    S    
C16   C19   A    
C17   C19   A    
N12   H38   S    
C34   C36   A    
C25   O8    A    
C4    C14   A    
N5    H11   S    
N3    Zn1   S    
C16   N12   S    
C43   H22   S    
C28   C36   A    
C8    C10   A    
C21   C24   A    
C22   C23   A    
C27   O9    S    
C25   O5    A    
C44   H24   S    
C26   O6    A    
C21   H7    S    
