data_mof_unit_39009.cif
_audit_creation_date              2012-10-26T20:51:33-0400
_audit_creation_method            fapswitch 2.2
_symmetry_space_group_name_H-M    P1
_symmetry_Int_Tables_number       1
_space_group_crystal_system       triclinic
_cell_length_a                    9.589703
_cell_length_b                    10.812866
_cell_length_c                    13.854583
_cell_angle_alpha                 91.075198
_cell_angle_beta                  83.781845
_cell_angle_gamma                 89.638116
_cell_volume                      1427.85796758

loop_
_atom_site_label
_atom_site_type_symbol
_atom_type_description
_atom_site_fract_x
_atom_site_fract_y
_atom_site_fract_z
_atom_type_partial_charge
C1    C     C_R   0.499635 0.737612 0.501294 0.558952
C2    C     C_3   0.258511 0.930309 0.448778 -0.248964
C3    C     C_R   0.936566 0.418899 0.441481 0.183839
C4    C     C_R   0.476330 0.500012 0.682997 0.576748
C5    C     C_R   0.911964 0.569089 0.564745 0.001643
C6    C     C_R   0.059145 0.568111 0.568174 0.289075
C7    C     C_R   0.083580 0.420951 0.440308 0.089929
C8    C     C_3   0.106530 0.412671 0.332371 -0.233190
C9    C     C_3   0.947779 0.407203 0.333083 0.136349
C10   C     C_R   0.500139 0.262504 0.501371 0.565828
C11   C     C_R   0.523826 0.499848 0.316996 0.562399
C12   C     C_1   0.461398 0.500327 0.786479 0.106686
C13   C     C_1   0.540167 0.498711 0.213481 0.016198
C14   C     C_2   0.566025 0.496236 0.022190 0.268806
C15   C     C_2   0.448763 0.501008 0.977456 -0.107465
C16   C     C_1   0.453210 0.500648 0.873556 0.072404
C17   C     C_1   0.553022 0.497542 0.126304 0.017039
C18   C     C_R   0.373139 0.937651 0.513535 0.067378
C19   C     C_R   0.498634 0.871053 0.510452 0.021999
C20   C     C_R   0.623372 0.935369 0.521067 -0.142526
C21   C     C_R   0.623710 0.064232 0.520992 -0.121308
C22   C     C_R   0.499323 0.129586 0.510384 0.017906
C23   C     C_R   0.373503 0.064829 0.513511 0.018692
C24   C     C_3   0.258873 0.070813 0.448774 -0.242261
Cu1   Cu    Cu3+1 0.359330 0.500020 0.500000 1.043110
Cu2   Cu    Cu3+1 0.640670 0.499980 0.500000 1.020225
H1    H     H_    0.346441 0.505589 0.019703 0.104746
H2    H     H_    0.293805 0.887448 0.376588 0.141766
H3    H     H_    0.843252 0.623919 0.615950 0.186155
H4    H     H_    0.036112 0.501262 0.773911 0.366447
H5    H     H_    0.902346 0.070753 0.340239 0.367365
H6    H     H_    0.948538 0.478780 0.996539 0.377190
H7    H     H_    0.151274 0.498785 0.299631 0.117911
H8    H     H_    0.163718 0.326474 0.306514 0.180310
H9    H     H_    0.902688 0.487155 0.297471 0.133441
H10   H     H_    0.721701 0.886756 0.524772 0.151766
H11   H     H_    0.722116 0.111798 0.524637 0.180911
H12   H     H_    0.161307 0.112970 0.486463 0.189182
H13   H     H_    0.294206 0.109776 0.376570 0.162766
H14   H     H_    0.160617 0.891453 0.486366 0.174991
N1    N     N_R   0.852140 0.499070 0.499400 -0.299207
N2    N     N_R   0.148050 0.499110 0.499400 -0.259281
O1    O     O_R   0.381190 0.680360 0.500000 -0.464487
O2    O     O_2   0.993634 0.731799 0.716526 -0.272733
O3    O     O_3   0.130027 0.538183 0.758733 -0.495827
O4    O     O_2   0.732939 0.258028 0.298033 -0.263202
O5    O     O_2   0.951108 0.236165 0.189353 -0.227473
O6    O     O_3   0.944656 0.147793 0.363114 -0.572144
O7    O     O_2   0.748408 0.375074 0.893626 -0.265691
O8    O     O_2   0.759974 0.601469 0.897230 -0.250028
O9    O     O_3   0.857156 0.482118 0.037456 -0.479208
O10   O     O_R   0.618770 0.680320 0.499990 -0.528026
O11   O     O_R   0.364410 0.500000 0.637850 -0.415391
O12   O     O_R   0.602000 0.499960 0.637840 -0.503999
O13   O     O_R   0.381230 0.319680 0.500010 -0.509149
O14   O     O_R   0.618810 0.319640 0.500000 -0.467026
O15   O     O_R   0.398000 0.500040 0.362160 -0.528057
O16   O     O_R   0.635590 0.500000 0.362150 -0.471955
O17   O     O_2   0.239408 0.720047 0.658121 -0.233038
S1    S     S_3+6 0.108759 0.645006 0.674716 0.054565
S2    S     S_3+6 0.890167 0.259467 0.292701 0.025743
S3    S     S_3+6 0.736119 0.488602 0.958377 0.051176

loop_
_geom_bond_atom_site_label_1
_geom_bond_atom_site_label_2
_ccdc_geom_bond_type
Cu1   N2    S    
O5    S2    D    
C24   H12   S    
C23   C24   S    
H6    O9    S    
C3    C9    S    
Cu2   O10   S    
C4    O11   A    
C2    C18   S    
C11   O16   A    
C11   C13   S    
H4    O3    S    
C15   H1    S    
C19   C20   A    
C13   C17   T    
C8    H7    S    
Cu1   O1    S    
C2    H14   S    
Cu1   O13   S    
C21   H11   S    
O17   S1    D    
O3    S1    S    
C8    H8    S    
C21   C22   A    
C10   C22   S    
C10   O13   A    
Cu2   O16   S    
C14   C17   S    
O6    S2    S    
O9    S3    S    
Cu1   O15   S    
O2    S1    D    
C9    S2    S    
Cu2   O12   S    
Cu1   O11   S    
C3    C7    A    
H5    O6    S    
C2    C24   S    
C5    C6    A    
O8    S3    D    
C1    O10   A    
C1    C19   S    
C4    C12   S    
O4    S2    D    
C15   C16   S    
C14   S3    S    
C5    H3    S    
C6    S1    S    
C7    C8    S    
C24   H13   S    
C10   O14   A    
C20   C21   A    
C18   C19   A    
C6    N2    A    
C7    N2    A    
C11   O15   A    
C9    H9    S    
C5    N1    A    
C22   C23   A    
C3    N1    A    
C20   H10   S    
C2    H2    S    
O7    S3    D    
C12   C16   T    
C4    O12   A    
Cu1   Cu2   S    
C14   C15   D    
C1    O1    A    
C18   C23   A    
Cu2   N1    S    
C8    C9    S    
Cu2   O14   S    
