data_mof_unit_62865.cif
_audit_creation_date              2012-12-11T16:11:56-0500
_audit_creation_method            fapswitch 2.2
_symmetry_space_group_name_H-M    P1
_symmetry_Int_Tables_number       1
_space_group_crystal_system       triclinic
_cell_length_a                    7.042569
_cell_length_b                    14.613829
_cell_length_c                    15.75268
_cell_angle_alpha                 89.836498
_cell_angle_beta                  88.91773
_cell_angle_gamma                 88.114673
_cell_volume                      1620.07775073

loop_
_atom_site_label
_atom_site_type_symbol
_atom_type_description
_atom_site_fract_x
_atom_site_fract_y
_atom_site_fract_z
_atom_type_partial_charge
O1    O     O_R   0.638960 0.835150 0.161940 -0.531459
O2    O     O_R   0.361040 0.164850 0.838060 -0.532677
O3    O     O_R   0.309170 0.846340 0.337470 -0.543171
O4    O     O_R   0.690830 0.153660 0.662530 -0.545232
O5    O     O_R   0.138810 0.664830 0.338070 -0.543274
O6    O     O_R   0.861190 0.335170 0.661930 -0.534897
C1    C     C_R   0.474651 0.865619 0.368594 0.734830
C2    C     C_R   0.525295 0.134085 0.631604 0.730006
O7    O     O_R   0.309250 0.846350 0.162570 -0.551573
O8    O     O_R   0.690750 0.153650 0.837430 -0.552407
O9    O     O_R   0.138880 0.664840 0.161920 -0.545860
O10   O     O_R   0.861120 0.335160 0.838080 -0.531890
C3    C     C_R   0.478172 0.869134 0.134640 0.732054
C4    C     C_R   0.521861 0.131175 0.865596 0.740131
O11   O     O_R   0.638880 0.835150 0.338090 -0.517993
O12   O     O_R   0.361120 0.164850 0.661910 -0.519259
O13   O     O_3   0.472380 0.690440 0.250000 -0.380369
O14   O     O_3   0.527620 0.309560 0.750000 -0.372879
V1    V     V_3+5 0.197550 0.761040 0.250010 1.410563
V2    V     V_3+5 0.802450 0.238960 0.749990 1.432637
O15   O     O_R   0.809160 0.653640 0.162540 -0.527380
O16   O     O_R   0.190840 0.346360 0.837460 -0.528215
C5    C     C_R   0.981293 0.630672 0.135160 0.756270
C6    C     C_R   0.018551 0.368993 0.865279 0.743560
O17   O     O_R   0.809090 0.653640 0.337440 -0.543784
O18   O     O_R   0.190910 0.346360 0.662560 -0.546539
C7    C     C_R   0.978953 0.633404 0.367307 0.737566
C8    C     C_R   0.021695 0.365245 0.631577 0.733236
V3    V     V_3+5 0.697540 0.738950 0.250000 1.438222
V4    V     V_3+5 0.302460 0.261050 0.750000 1.448214
O19   O     O_3   0.972580 0.809550 0.250010 -0.369169
O20   O     O_3   0.027420 0.190450 0.749990 -0.373529
C9    C     C_3   0.114156 0.567041 0.519996 0.107856
C10   C     C_3   0.889331 0.430176 0.477270 0.136239
C11   C     C_3   0.942857 0.532892 0.571220 0.179785
C12   C     C_3   0.060990 0.464320 0.426099 0.184258
C13   C     C_3   0.009322 0.432679 0.558733 -0.124442
C14   C     C_3   0.993462 0.564568 0.438747 -0.128356
C15   C     C_3   0.181298 0.465734 0.506586 0.095910
C16   C     C_3   0.821867 0.531490 0.491146 0.124284
C17   C     C_3   0.885729 0.431172 0.019695 0.152454
C18   C     C_3   0.113172 0.568005 0.981580 0.145190
C19   C     C_3   0.058981 0.456930 0.071637 0.060544
C20   C     C_3   0.939450 0.542201 0.929977 0.112032
C21   C     C_3   0.997722 0.560273 0.065435 -0.123109
C22   C     C_3   0.001233 0.438880 0.935686 -0.124166
C23   C     C_3   0.825491 0.533216 0.013807 0.184874
C24   C     C_3   0.174325 0.465568 0.987733 0.127891
C25   C     C_3   0.668324 0.970178 0.472409 0.187983
C26   C     C_3   0.331398 0.029087 0.528129 0.188174
C27   C     C_3   0.591928 0.069736 0.466091 0.106387
C28   C     C_3   0.407800 0.929494 0.534394 0.106080
C29   C     C_3   0.520484 0.064688 0.560282 -0.117148
C30   C     C_3   0.479288 0.934633 0.440198 -0.118095
C31   C     C_3   0.598709 0.964558 0.565824 0.104642
C32   C     C_3   0.400995 0.034726 0.434708 0.105155
C33   C     C_3   0.563726 0.918072 0.972974 0.111764
C34   C     C_3   0.436495 0.082813 0.027583 0.111322
C35   C     C_3   0.392369 0.972945 0.935892 0.128170
C36   C     C_3   0.607785 0.027867 0.064709 0.130352
C37   C     C_3   0.509134 0.061262 0.935881 -0.189074
C38   C     C_3   0.491012 0.939501 0.064678 -0.184876
C39   C     C_3   0.677577 0.006231 0.973190 0.200025
C40   C     C_3   0.322572 0.994627 0.027412 0.201408
N1    N     N_3   0.878561 0.568880 0.652878 -0.679700
H1    H     H_    0.839537 0.637914 0.644913 0.234178
H2    H     H_    0.998906 0.566116 0.690349 0.223415
N2    N     N_3   0.129861 0.427284 0.345259 -0.690316
H3    H     H_    0.177769 0.359779 0.355369 0.234010
H4    H     H_    0.248734 0.464150 0.327200 0.226112
C41   C     C_3   0.275580 0.939937 0.862472 -0.733066
H5    H     H_    0.184611 0.883522 0.884162 0.231085
H6    H     H_    0.186578 0.997443 0.837524 0.221311
H7    H     H_    0.371874 0.914603 0.810611 0.188127
C42   C     C_3   0.724592 0.060792 0.138154 -0.741886
H8    H     H_    0.815687 0.117173 0.116501 0.216831
H9    H     H_    0.628315 0.086144 0.190017 0.189481
H10   H     H_    0.813467 0.003228 0.163085 0.225009
C43   C     C_3   0.642319 0.825863 0.941664 -0.742800
H11   H     H_    0.687558 0.831558 0.874037 0.203911
H12   H     H_    0.766323 0.803882 0.980080 0.229328
H13   H     H_    0.530947 0.774315 0.947744 0.212834
C44   C     C_3   0.358678 0.175359 0.058602 -0.747371
H14   H     H_    0.315632 0.170267 0.126539 0.199303
H15   H     H_    0.469665 0.227026 0.051274 0.231778
H16   H     H_    0.233344 0.196868 0.020831 0.217808
N3    N     N_3   0.869959 0.010775 0.939425 -0.622061
H17   H     H_    0.912411 0.078269 0.945417 0.256446
H18   H     H_    0.864819 0.996153 0.874646 0.224179
N4    N     N_3   0.130235 0.990141 0.061235 -0.623774
H19   H     H_    0.135548 0.004662 0.126030 0.223785
H20   H     H_    0.087619 0.922682 0.055188 0.262568
C45   C     C_3   0.212225 0.649722 0.550912 -0.846485
H21   H     H_    0.295230 0.632650 0.608272 0.221916
H22   H     H_    0.301904 0.677521 0.499096 0.232440
H23   H     H_    0.100150 0.701143 0.568905 0.211091
C46   C     C_3   0.791366 0.348099 0.445307 -0.816980
H24   H     H_    0.707985 0.366165 0.388280 0.222310
H25   H     H_    0.701974 0.319900 0.497026 0.222063
H26   H     H_    0.903205 0.296887 0.426351 0.214736
C47   C     C_3   0.369580 0.413256 0.507940 -0.777360
H27   H     H_    0.453837 0.433752 0.452139 0.221805
H28   H     H_    0.444111 0.424901 0.568084 0.238802
H29   H     H_    0.345201 0.338855 0.502011 0.193582
C48   C     C_3   0.633768 0.584108 0.491642 -0.754901
H30   H     H_    0.556753 0.572955 0.432046 0.223792
H31   H     H_    0.551973 0.563355 0.548186 0.238107
H32   H     H_    0.658719 0.658437 0.497778 0.190894
C49   C     C_3   0.125586 0.406261 0.149992 -0.780053
H33   H     H_    0.166093 0.334524 0.133455 0.224969
H34   H     H_    0.250232 0.440440 0.175855 0.213042
H35   H     H_    0.007059 0.406389 0.197224 0.238525
C50   C     C_3   0.866137 0.596100 0.854526 -0.769617
H36   H     H_    0.781082 0.656753 0.876679 0.230551
H37   H     H_    0.988775 0.620908 0.817248 0.216222
H38   H     H_    0.775251 0.552354 0.816044 0.222268
N5    N     N_3   0.762645 0.356091 0.041036 -0.674506
H39   H     H_    0.716710 0.365077 0.104018 0.222686
H40   H     H_    0.846182 0.295656 0.039131 0.226659
N6    N     N_3   0.225807 0.646294 0.958378 -0.679684
H41   H     H_    0.310986 0.628182 0.905690 0.222262
H42   H     H_    0.312135 0.661147 0.009250 0.248331
N7    N     N_3   0.639952 0.576686 0.028121 -0.670344
H43   H     H_    0.562209 0.564949 0.974335 0.224551
H44   H     H_    0.576182 0.546442 0.081073 0.233881
N8    N     N_3   0.358592 0.419869 0.974229 -0.635850
H45   H     H_    0.437049 0.428773 0.028476 0.256259
H46   H     H_    0.425343 0.448836 0.921401 0.241333
C51   C     C_3   0.698272 0.143136 0.420835 -0.828146
H47   H     H_    0.820028 0.159888 0.460257 0.205496
H48   H     H_    0.599635 0.202643 0.411262 0.227373
H49   H     H_    0.750457 0.118056 0.357880 0.230660
C52   C     C_3   0.301670 0.855784 0.579433 -0.826626
H50   H     H_    0.251490 0.880221 0.642897 0.229946
H51   H     H_    0.178533 0.839859 0.540564 0.205795
H52   H     H_    0.399702 0.795823 0.587800 0.229356
N9    N     N_3   0.851299 0.936653 0.438379 -0.636236
H53   H     H_    0.944767 0.990141 0.437706 0.232321
H54   H     H_    0.903061 0.885184 0.478513 0.218019
N10   N     N_3   0.148472 0.062613 0.562214 -0.637339
H55   H     H_    0.055565 0.008886 0.563704 0.232246
H56   H     H_    0.095732 0.113456 0.521658 0.217685
C53   C     C_3   0.707290 0.922700 0.640043 -0.806867
H57   H     H_    0.760332 0.852527 0.623504 0.205005
H58   H     H_    0.828181 0.965457 0.656210 0.218286
H59   H     H_    0.611463 0.919212 0.696519 0.209940
C54   C     C_3   0.292310 0.076620 0.360526 -0.807749
H60   H     H_    0.239905 0.146915 0.376992 0.204657
H61   H     H_    0.387867 0.079811 0.303935 0.209794
H62   H     H_    0.170927 0.034071 0.344601 0.219312

loop_
_geom_bond_atom_site_label_1
_geom_bond_atom_site_label_2
_ccdc_geom_bond_type
C53   H59   S    
V4    O20   S    
N3    H17   S    
C45   H21   S    
C5    C21   S    
C25   N9    S    
C10   C13   S    
O13   V3    S    
C33   C43   S    
C54   H60   S    
C40   N4    S    
O4    C2    A    
V1    O19   S    
C46   H24   S    
C27   C51   S    
C33   C38   S    
N5    H39   S    
C48   H31   S    
O9    V1    S    
C35   C40   S    
N8    H45   S    
C36   C39   S    
C10   C16   S    
C11   C13   S    
C28   C31   S    
N10   H56   S    
C51   H47   S    
O3    C1    A    
C49   H34   S    
C26   N10   S    
N7    H44   S    
C11   N1    S    
C7    C14   S    
O12   V4    S    
C53   H57   S    
C10   C46   S    
C36   C38   S    
C27   C32   S    
C37   C39   S    
O7    C3    A    
C38   C40   S    
C9    C11   S    
O5    C7    A    
C9    C15   S    
C23   N7    S    
O7    V1    S    
O6    C8    A    
C3    C38   S    
N6    H42   S    
N2    H3    S    
C25   C27   S    
C52   H52   S    
C26   C28   S    
C17   C22   S    
O3    V1    S    
O14   V4    S    
C19   C24   S    
C10   C12   S    
C20   C23   S    
C50   H38   S    
C39   N3    S    
C34   C37   S    
C21   C23   S    
N9    H53   S    
C2    O12   A    
C34   C40   S    
C28   C52   S    
C17   C19   S    
C18   C20   S    
C46   H25   S    
C28   C30   S    
O11   V3    S    
C22   C24   S    
C29   C31   S    
O17   V3    S    
C48   H32   S    
C30   C32   S    
C35   C37   S    
C26   C29   S    
C31   C53   S    
C47   H27   S    
N7    H43   S    
C54   H62   S    
N10   H55   S    
O8    C4    A    
C49   H35   S    
O8    V2    S    
C43   H12   S    
C1    O11   A    
C20   C22   S    
N1    H2    S    
C25   C31   S    
C4    C37   S    
O15   V3    S    
C26   C32   S    
C50   H37   S    
C27   C29   S    
C18   C21   S    
C42   H8    S    
C41   H7    S    
N9    H54   S    
N4    H20   S    
C44   H14   S    
V3    O19   S    
C15   C47   S    
O10   V2    S    
O1    V3    S    
C17   C23   S    
C18   C24   S    
C19   C21   S    
N2    H4    S    
C44   H15   S    
C20   C50   S    
O18   V4    S    
C45   H23   S    
O15   C5    A    
C52   H50   S    
O16   C6    A    
O1    C3    A    
C12   C14   S    
C46   H26   S    
N6    H41   S    
C41   H6    S    
C50   H36   S    
V2    O20   S    
C53   H58   S    
N8    H46   S    
O16   V4    S    
C54   H61   S    
C12   C15   S    
C33   C39   S    
C9    C45   S    
C2    C29   S    
C43   H13   S    
C12   N2    S    
O5    V1    S    
C47   H29   S    
O6    V2    S    
C48   H30   S    
O10   C6    A    
C36   C42   S    
O18   C8    A    
C9    C14   S    
O2    V4    S    
C6    C22   S    
C51   H49   S    
C32   C54   S    
N5    H40   S    
C11   C16   S    
C41   H5    S    
C13   C15   S    
C34   C44   S    
C14   C16   S    
C18   N6    S    
N4    H19   S    
C45   H22   S    
C8    C13   S    
O9    C5    A    
O13   V1    S    
O14   V2    S    
O2    C4    A    
C42   H10   S    
C33   C35   S    
C24   N8    S    
C43   H11   S    
O4    V2    S    
C44   H16   S    
C47   H28   S    
N1    H1    S    
C42   H9    S    
C52   H51   S    
N3    H18   S    
C19   C49   S    
C1    C30   S    
C17   N5    S    
C49   H33   S    
C34   C36   S    
C25   C30   S    
C35   C41   S    
C16   C48   S    
C51   H48   S    
O17   C7    A    
