data_mof_unit_29973.cif
_audit_creation_date              2012-12-11T17:34:20-0500
_audit_creation_method            fapswitch 2.2
_symmetry_space_group_name_H-M    P1
_symmetry_Int_Tables_number       1
_space_group_crystal_system       triclinic
_cell_length_a                    23.874935
_cell_length_b                    7.212939
_cell_length_c                    20.587642
_cell_angle_alpha                 90.013371
_cell_angle_beta                  105.5003
_cell_angle_gamma                 90.019087
_cell_volume                      3416.41722034

loop_
_atom_site_label
_atom_site_type_symbol
_atom_type_description
_atom_site_fract_x
_atom_site_fract_y
_atom_site_fract_z
_atom_type_partial_charge
O1    O     O_R   0.449110 0.494310 0.552140 -0.513188
O2    O     O_R   0.550890 0.994310 0.447860 -0.513202
O3    O     O_R   0.440010 0.824420 0.415850 -0.530774
O4    O     O_R   0.559990 0.324420 0.584150 -0.530955
C1    C     C_R   0.425153 0.655346 0.390942 0.728614
C2    C     C_R   0.574845 0.155449 0.609067 0.728610
O5    O     O_R   0.442260 0.824040 0.549660 -0.535271
O6    O     O_R   0.557740 0.324040 0.450340 -0.535309
O7    O     O_R   0.553160 0.993960 0.582620 -0.530545
O8    O     O_R   0.446840 0.493960 0.417380 -0.530664
C3    C     C_R   0.429270 0.655125 0.568551 0.731152
C4    C     C_R   0.570731 0.155140 0.431449 0.731199
O9    O     O_3   0.536380 0.660670 0.510660 -0.368028
O10   O     O_3   0.463620 0.160670 0.489340 -0.367951
V1    V     V_3+5 0.493250 0.935680 0.498020 1.531716
V2    V     V_3+5 0.506750 0.435680 0.501980 1.531515
C5    C     C_R   0.807103 0.935801 0.152681 -0.117961
C6    C     C_R   0.192971 0.435858 0.847440 -0.117947
C7    C     C_R   0.845190 0.916073 0.111481 0.267641
C8    C     C_R   0.154862 0.416152 0.888618 0.266921
C9    C     C_R   0.884847 0.060654 0.108049 -0.121891
C10   C     C_R   0.115224 0.560713 0.892044 -0.122027
C11   C     C_R   0.883211 0.223571 0.145552 -0.123913
C12   C     C_R   0.116938 0.723645 0.854605 -0.123201
H1    H     H_    0.911958 0.338263 0.143910 0.203780
H2    H     H_    0.088250 0.838390 0.856294 0.204041
C13   C     C_R   0.844916 0.241660 0.186126 -0.067362
C14   C     C_R   0.155239 0.741699 0.814038 -0.067359
H3    H     H_    0.845079 0.368486 0.214402 0.166472
H4    H     H_    0.155113 0.868515 0.785786 0.166406
C15   C     C_R   0.806911 0.097597 0.190248 0.039287
C16   C     C_R   0.193200 0.597615 0.809891 0.039287
C17   C     C_1   0.767374 0.115984 0.232519 0.038453
C18   C     C_1   0.232728 0.615953 0.767607 0.038440
C19   C     C_1   0.734055 0.128777 0.267614 0.093204
C20   C     C_1   0.266030 0.628729 0.732489 0.093190
C21   C     C_R   0.657144 0.986699 0.309592 -0.139408
C22   C     C_R   0.342865 0.486636 0.690416 -0.139327
C23   C     C_R   0.617085 0.988042 0.348483 0.281442
C24   C     C_R   0.382896 0.487967 0.651489 0.281382
C25   C     C_R   0.612743 0.145283 0.388708 -0.164480
C26   C     C_R   0.387266 0.645225 0.611302 -0.164479
C27   C     C_R   0.649561 0.297651 0.387391 -0.197296
C28   C     C_R   0.350487 0.797584 0.612674 -0.197224
C29   C     C_R   0.689496 0.294878 0.348119 0.319027
C30   C     C_R   0.310575 0.794808 0.651973 0.319044
C31   C     C_R   0.693475 0.138178 0.309008 -0.007419
C32   C     C_R   0.306582 0.638121 0.691062 -0.007463
C33   C     C_R   0.640650 0.153195 0.797220 0.279257
C34   C     C_R   0.359555 0.647270 0.202786 0.279247
C35   C     C_R   0.618699 0.146633 0.675195 -0.103612
C36   C     C_R   0.381317 0.646020 0.324816 -0.103520
C37   C     C_R   0.902693 0.047571 0.765933 0.251071
C38   C     C_R   0.097146 0.551218 0.234038 0.250854
C39   C     C_R   0.863993 0.055508 0.702102 -0.106800
C40   C     C_R   0.135789 0.560703 0.297878 -0.106879
C41   C     C_R   0.804541 0.075061 0.694116 -0.203767
C42   C     C_R   0.195292 0.578939 0.305889 -0.203710
C43   C     C_R   0.781474 0.088217 0.750430 0.098703
C44   C     C_R   0.218471 0.589056 0.249589 0.098708
C45   C     C_R   0.821329 0.079039 0.816208 0.019798
C46   C     C_R   0.178680 0.578080 0.183812 0.019711
C47   C     C_R   0.720310 0.111626 0.743484 0.059010
C48   C     C_R   0.279689 0.611113 0.256538 0.059023
C49   C     C_R   0.700521 0.127163 0.802748 0.043778
C50   C     C_R   0.299606 0.623134 0.197270 0.043663
C51   C     C_R   0.740716 0.116557 0.866409 -0.104590
C52   C     C_R   0.259465 0.610850 0.133614 -0.104543
C53   C     C_R   0.799704 0.092546 0.873017 -0.155674
C54   C     C_R   0.200415 0.588417 0.127010 -0.155791
C55   C     C_R   0.677977 0.120715 0.679790 -0.214795
C56   C     C_R   0.321958 0.622085 0.320236 -0.214806
C57   C     C_R   0.600717 0.163082 0.733977 -0.153616
C58   C     C_R   0.399440 0.658686 0.266025 -0.153521
C59   C     C_R   0.882176 0.057535 0.823771 -0.143881
C60   C     C_R   0.117778 0.558109 0.176233 -0.143857
H5    H     H_    0.689398 0.108280 0.632785 0.106540
H6    H     H_    0.310437 0.612366 0.367256 0.106434
H7    H     H_    0.777927 0.080920 0.642924 0.134604
H8    H     H_    0.221857 0.586163 0.357081 0.134612
H9    H     H_    0.828429 0.085596 0.923520 0.116005
H10   H     H_    0.171738 0.580048 0.076509 0.116265
O11   O     O_R   0.053190 0.709680 0.082610 -0.529612
O12   O     O_R   0.946810 0.209680 0.917390 -0.529851
O13   O     O_R   0.057740 0.380240 0.950340 -0.507336
O14   O     O_R   0.942260 0.880240 0.049660 -0.507103
C61   C     C_R   0.072156 0.548874 0.933319 0.715915
C62   C     C_R   0.927864 0.048853 0.066708 0.715898
O15   O     O_R   0.060000 0.379940 0.084150 -0.529145
O16   O     O_R   0.940000 0.879940 0.915850 -0.528888
O17   O     O_R   0.949110 0.210100 0.052140 -0.537815
O18   O     O_R   0.050890 0.710100 0.947860 -0.537555
C63   C     C_R   0.074778 0.548676 0.109140 0.730921
C64   C     C_R   0.925211 0.048580 0.890858 0.731041
O19   O     O_3   0.963630 0.543720 0.989330 -0.362313
O20   O     O_3   0.036370 0.043720 0.010670 -0.362307
V3    V     V_3+5 0.006750 0.268680 0.001980 1.578756
V4    V     V_3+5 0.993250 0.768680 0.998020 1.579645
H11   H     H_    0.777118 0.824660 0.154927 0.163639
H12   H     H_    0.222938 0.324723 0.845198 0.163668
H13   H     H_    0.727077 0.126888 0.912299 0.189162
H14   H     H_    0.273197 0.618599 0.087725 0.189218
Br1   Br    Br    0.609925 0.176886 0.874192 -0.432913
Br2   Br    Br    0.390466 0.665938 0.125802 -0.432818
Br3   Br    Br    0.983990 0.027023 0.771560 -0.544683
Br4   Br    Br    0.015771 0.532791 0.228320 -0.544369
H15   H     H_    0.880210 0.047526 0.657828 0.172590
H16   H     H_    0.119489 0.555047 0.342132 0.172566
Br5   Br    Br    0.837290 0.692477 0.058980 -0.529674
Br6   Br    Br    0.162723 0.192639 0.941115 -0.530362
H17   H     H_    0.659637 0.866183 0.279023 0.193976
H18   H     H_    0.340355 0.366117 0.720962 0.194059
Br7   Br    Br    0.568928 0.771017 0.340338 -0.530460
Br8   Br    Br    0.430960 0.270862 0.659524 -0.530571
H19   H     H_    0.647782 0.419663 0.417424 0.189840
H20   H     H_    0.352278 0.919594 0.582661 0.189973
Br9   Br    Br    0.737810 0.508012 0.349273 -0.527511
Br10  Br    Br    0.262306 0.007920 0.650879 -0.527597
H21   H     H_    0.555122 0.182694 0.730738 0.190975
H22   H     H_    0.445110 0.676449 0.269260 0.190940

loop_
_geom_bond_atom_site_label_1
_geom_bond_atom_site_label_2
_ccdc_geom_bond_type
C50   C52   A    
C47   C49   A    
C34   Br2   S    
C57   H21   S    
C13   H3    S    
C41   H7    S    
O1    C3    A    
O2    C4    A    
C2    O7    A    
O19   V4    S    
O18   V4    S    
C23   C25   A    
C45   C59   A    
O5    C3    A    
C30   Br10  S    
C33   C49   A    
O12   V3    S    
C7    C9    A    
C12   H2    S    
C36   C58   A    
C34   C58   A    
O14   C62   A    
C41   C43   A    
C42   C44   A    
O11   C63   A    
C46   C54   A    
C3    C26   S    
C44   C46   A    
C29   C31   A    
C40   H16   S    
C56   H6    S    
C27   H19   S    
C24   Br8   S    
C49   C51   A    
O11   V4    S    
C15   C17   S    
C1    C36   S    
C52   H14   S    
C11   C13   A    
C2    C35   S    
C21   C31   A    
C22   C32   A    
C42   H8    S    
C7    Br5   S    
C9    C62   S    
C19   C31   S    
O6    V2    S    
C61   O18   A    
C25   C27   A    
C46   C60   A    
C37   C59   A    
C6    H12   S    
O14   V4    S    
C28   C30   A    
O16   C64   A    
C38   C40   A    
C37   C39   A    
C30   C32   A    
C43   C45   A    
C38   Br4   S    
O13   C61   A    
C13   C15   A    
C12   C14   A    
C14   C16   A    
C53   H9    S    
O4    C2    A    
C5    C7    A    
C23   Br7   S    
C5    H11   S    
C39   H15   S    
C51   C53   A    
C48   C50   A    
O4    V2    S    
C4    C25   S    
C36   C56   A    
C60   C63   S    
C34   C50   A    
C62   O17   A    
O6    C4    A    
O20   V3    S    
O1    V2    S    
O12   C64   A    
C10   C61   S    
O17   V3    S    
O2    V1    S    
C27   C29   A    
C8    Br6   S    
C47   C55   A    
C9    C11   A    
C5    C15   A    
C33   C57   A    
C6    C16   A    
C22   H18   S    
C55   H5    S    
O3    V1    S    
C51   H13   S    
C29   Br9   S    
C38   C60   A    
C35   C57   A    
C8    C10   A    
C24   C26   A    
O3    C1    A    
C33   Br1   S    
C6    C8    A    
C35   C55   A    
C58   H22   S    
C43   C47   A    
C44   C48   A    
C45   C53   A    
C39   C41   A    
O7    V1    S    
C26   C28   A    
C14   H4    S    
C21   C23   A    
O8    V2    S    
C22   C24   A    
O5    V1    S    
C17   C19   T    
C18   C20   T    
C40   C42   A    
C20   C32   S    
C10   C12   A    
C48   C56   A    
O15   C63   A    
C54   H10   S    
C21   H17   S    
O13   V3    S    
C37   Br3   S    
C1    O8    A    
C11   H1    S    
C28   H20   S    
C52   C54   A    
O9    V2    S    
O15   V3    S    
O10   V1    S    
O16   V4    S    
C59   C64   S    
C16   C18   S    
