data_mof_unit_41720.cif
_audit_creation_date              2012-12-10T20:41:55-0500
_audit_creation_method            fapswitch 2.2
_symmetry_space_group_name_H-M    P1
_symmetry_Int_Tables_number       1
_space_group_crystal_system       triclinic
_cell_length_a                    15.031112
_cell_length_b                    15.086362
_cell_length_c                    9.960964
_cell_angle_alpha                 90.715919
_cell_angle_beta                  91.168641
_cell_angle_gamma                 89.953245
_cell_volume                      2258.14949131

loop_
_atom_site_label
_atom_site_type_symbol
_atom_type_description
_atom_site_fract_x
_atom_site_fract_y
_atom_site_fract_z
_atom_type_partial_charge
C1    C     C_R   0.378491 0.881587 0.498624 0.894315
C2    C     C_R   0.380118 0.119487 0.499686 0.888605
C3    C     C_R   0.880214 0.380421 0.498619 0.881742
C4    C     C_R   0.883326 0.622661 0.500093 0.866685
C5    C     C_3   0.169361 0.095770 0.482109 -0.597838
C6    C     C_3   0.335856 0.736267 0.713404 -0.443489
C7    C     C_3   0.742074 0.659827 0.718341 -0.455524
C8    C     C_3   0.670744 0.406175 0.489032 -0.555039
C9    C     C_R   0.443932 0.054114 0.069357 0.142781
C10   C     C_R   0.924094 0.480668 0.068355 0.051773
C11   C     C_R   0.566062 0.960030 0.074265 -0.095894
C12   C     C_R   0.075133 0.515770 0.075741 -0.024996
C13   C     C_R   0.569734 0.965079 0.931130 0.010058
C14   C     C_R   0.077000 0.510189 0.932796 0.000770
C15   C     C_R   0.442954 0.052692 0.928931 0.232814
C16   C     C_R   0.923950 0.480863 0.926010 0.202048
C17   C     C_3   0.344221 0.067533 0.917168 -0.225373
C18   C     C_3   0.871468 0.394961 0.917606 -0.150236
C19   C     C_3   0.344732 0.068965 0.074438 -0.201787
C20   C     C_3   0.871625 0.395731 0.073440 -0.175343
C21   C     C_R   0.618646 0.120736 0.501361 0.872722
C22   C     C_R   0.619832 0.880035 0.500166 0.899875
C23   C     C_R   0.116079 0.623492 0.501481 0.853132
C24   C     C_R   0.118874 0.379595 0.500147 0.896452
C25   C     C_R   0.231655 0.167502 0.441868 0.007489
C26   C     C_R   0.279038 0.788439 0.619080 0.120289
C27   C     C_R   0.785457 0.719963 0.622031 0.027574
C28   C     C_R   0.730572 0.332613 0.444548 0.056938
C29   C     C_R   0.315006 0.186413 0.497730 -0.065773
C30   C     C_R   0.303403 0.824578 0.498186 -0.116162
C31   C     C_R   0.827400 0.698042 0.502933 -0.068611
C32   C     C_R   0.815337 0.313283 0.494395 -0.101400
C33   C     C_R   0.336520 0.271292 0.545373 -0.062424
C34   C     C_R   0.251009 0.809621 0.382572 -0.189226
C35   C     C_R   0.812788 0.748516 0.387718 -0.207330
C36   C     C_R   0.837175 0.228824 0.540517 -0.173248
C37   C     C_R   0.745155 0.810682 0.387313 -0.207680
C38   C     C_R   0.771384 0.164805 0.544653 -0.206272
C39   C     C_R   0.271083 0.335872 0.546642 -0.181340
C40   C     C_R   0.183290 0.747764 0.385696 -0.166245
C41   C     C_R   0.692164 0.820069 0.501184 -0.065747
C42   C     C_R   0.684835 0.186683 0.503375 -0.122185
C43   C     C_R   0.185599 0.314364 0.499158 -0.138849
C44   C     C_R   0.168659 0.701974 0.505054 -0.139439
C45   C     C_R   0.715879 0.777877 0.620008 0.074243
C46   C     C_R   0.664960 0.268859 0.448461 0.042536
C47   C     C_R   0.166747 0.232178 0.440346 0.087052
C48   C     C_R   0.208934 0.731193 0.625221 -0.033262
C49   C     C_3   0.662443 0.721829 0.712722 0.340085
C50   C     C_3   0.598709 0.336188 0.498740 0.326819
C51   C     C_3   0.097160 0.166934 0.481465 0.350367
C52   C     C_3   0.255857 0.677884 0.733093 0.365801
H1    H     H_    0.402411 0.286273 0.585320 0.190799
H2    H     H_    0.265652 0.840093 0.288645 0.186061
H3    H     H_    0.849410 0.736464 0.296713 0.172200
H4    H     H_    0.903807 0.213665 0.576708 0.175773
H5    H     H_    0.731745 0.847648 0.296583 0.178025
H6    H     H_    0.787261 0.099285 0.581635 0.146892
H7    H     H_    0.286236 0.401400 0.586693 0.146440
H8    H     H_    0.147892 0.731012 0.292979 0.172041
H9    H     H_    0.647439 0.756085 0.809179 0.137818
H10   H     H_    0.580663 0.323640 0.604634 0.118020
H11   H     H_    0.073281 0.181952 0.584306 0.109532
H12   H     H_    0.269123 0.607963 0.703801 0.081778
H13   H     H_    0.184841 0.071317 0.584467 0.157039
H14   H     H_    0.389765 0.702327 0.658681 0.159520
H15   H     H_    0.776936 0.660091 0.817851 0.199216
H16   H     H_    0.691068 0.435095 0.588012 0.184646
H17   H     H_    0.164185 0.042033 0.405916 0.246878
H18   H     H_    0.358631 0.772948 0.804617 0.277677
H19   H     H_    0.729502 0.593028 0.673515 0.235587
H20   H     H_    0.659451 0.456211 0.409732 0.219071
H21   H     H_    0.619695 0.929247 0.130719 0.186480
H22   H     H_    0.135836 0.526378 0.133987 0.188599
N1    N     N_R   0.499140 0.000000 0.142800 -0.155995
N2    N     N_R   0.999140 0.500000 0.142800 -0.112095
N3    N     N_R   0.499160 0.000000 0.857150 -0.154882
N4    N     N_R   0.999160 0.500000 0.857150 -0.148205
O1    O     O_R   0.408400 0.908380 0.614690 -0.590131
O2    O     O_R   0.408400 0.091620 0.614690 -0.623833
O3    O     O_R   0.908400 0.408380 0.614690 -0.614871
O4    O     O_R   0.908400 0.591620 0.614690 -0.616100
O5    O     O_R   0.408370 0.908370 0.385350 -0.641273
O6    O     O_R   0.408370 0.091630 0.385350 -0.589456
O7    O     O_R   0.908370 0.408370 0.385350 -0.620953
O8    O     O_R   0.908370 0.591630 0.385350 -0.636887
O9    O     O_R   0.591610 0.091610 0.614650 -0.641359
O10   O     O_R   0.591610 0.908390 0.614650 -0.650008
O11   O     O_R   0.091610 0.591610 0.614650 -0.674123
O12   O     O_R   0.091610 0.408390 0.614650 -0.614803
O13   O     O_R   0.591590 0.091600 0.385310 -0.598082
O14   O     O_R   0.591590 0.908400 0.385310 -0.630844
O15   O     O_R   0.091590 0.591600 0.385310 -0.626916
O16   O     O_R   0.091590 0.408400 0.385310 -0.558992
Zn1   Zn    Zn3+2 0.500010 0.000000 0.653130 0.970136
Zn2   Zn    Zn3+2 0.000010 0.500000 0.653130 0.961291
Zn3   Zn    Zn3+2 0.499980 0.000000 0.346870 0.970763
Zn4   Zn    Zn3+2 0.999980 0.500000 0.346870 0.981698
C53   C     C_2   0.319849 0.157781 0.136253 0.529774
H23   H     H_    0.250443 0.176851 0.140097 0.066603
O17   O     O_2   0.376463 0.209821 0.177684 -0.569896
C54   C     C_2   0.297308 0.992944 0.138359 0.437269
H24   H     H_    0.332009 0.930744 0.152120 0.121548
O18   O     O_2   0.218612 0.998275 0.165115 -0.659741
C55   C     C_2   0.782441 0.410115 0.136741 0.410062
H25   H     H_    0.768904 0.470163 0.194034 0.088017
O19   O     O_2   0.725077 0.353164 0.125361 -0.618200
C56   C     C_2   0.920949 0.318903 0.138950 0.484581
H26   H     H_    0.883428 0.264744 0.180816 0.079945
O20   O     O_2   0.002157 0.315128 0.141773 -0.541998
O21   O     O_3   0.588202 0.682480 0.646228 -0.595094
C57   C     C_3   0.544861 0.626174 0.736348 -0.278128
H27   H     H_    0.590670 0.576308 0.781352 0.209652
H28   H     H_    0.492581 0.588374 0.680256 0.193610
H29   H     H_    0.512801 0.665458 0.817281 0.168343
O22   O     O_3   0.520848 0.352713 0.418574 -0.626510
C58   C     C_3   0.532381 0.341066 0.279151 -0.068764
H30   H     H_    0.548113 0.271019 0.253154 0.196663
H31   H     H_    0.583010 0.386992 0.240915 0.180741
H32   H     H_    0.468826 0.357879 0.227056 0.216205
O23   O     O_3   0.023577 0.157735 0.389389 -0.614867
C59   C     C_3   0.045074 0.123360 0.261433 -0.110749
H33   H     H_    0.050489 0.050063 0.264037 0.173896
H34   H     H_    0.105633 0.153873 0.220258 0.180472
H35   H     H_    0.989302 0.137952 0.190715 0.168367
O24   O     O_3   0.226898 0.687513 0.868221 -0.557835
C60   C     C_3   0.142382 0.727455 0.880392 -0.214435
H36   H     H_    0.090704 0.691736 0.819887 0.157285
H37   H     H_    0.144959 0.798537 0.852707 0.190214
H38   H     H_    0.122801 0.724470 0.987016 0.167059
C61   C     C_2   0.656385 0.947827 0.869172 0.382812
H39   H     H_    0.675200 0.983726 0.780858 0.118883
O25   O     O_2   0.710643 0.898028 0.921378 -0.635193
C62   C     C_2   0.164968 0.503171 0.870081 0.510162
H40   H     H_    0.171226 0.498107 0.763509 0.103694
O26   O     O_2   0.233291 0.500709 0.938541 -0.564358
C63   C     C_2   0.320413 0.155690 0.853925 0.389533
H41   H     H_    0.252116 0.168751 0.822502 0.053373
O27   O     O_2   0.376145 0.213817 0.841778 -0.538272
C64   C     C_2   0.295023 0.991602 0.848437 0.443247
H42   H     H_    0.245466 0.004351 0.770687 0.029517
O28   O     O_2   0.309287 0.915148 0.880420 -0.597969
C65   C     C_2   0.781412 0.407484 0.849135 0.423551
H43   H     H_    0.752090 0.353972 0.789293 0.056348
O29   O     O_2   0.739194 0.475960 0.863860 -0.621661
C66   C     C_2   0.919544 0.315250 0.857775 0.417519
H44   H     H_    0.883387 0.253592 0.842343 0.021885
O30   O     O_2   0.998383 0.317563 0.830824 -0.533584

loop_
_geom_bond_atom_site_label_1
_geom_bond_atom_site_label_2
_ccdc_geom_bond_type
C21   O9    A    
O24   C60   S    
C40   H8    S    
C12   H22   S    
C3    O7    A    
C2    O6    A    
O21   C57   S    
C57   H28   S    
C6    C26   S    
C56   H26   S    
C55   O19   D    
C28   C46   A    
C33   C39   A    
C2    C29   S    
C34   C40   A    
O6    Zn3   S    
C32   C36   A    
C18   C65   S    
C35   C37   A    
C64   O28   D    
C38   C42   A    
C48   C52   S    
C58   H31   S    
C7    H19   S    
C19   C54   S    
C22   C41   S    
C4    O8    A    
O16   Zn4   S    
N2    Zn4   S    
C65   H43   S    
C29   C33   A    
N1    Zn3   S    
C7    C27   S    
O22   C58   S    
C18   C20   S    
C6    H18   S    
C42   C46   A    
C5    H17   S    
O7    Zn4   S    
C38   H6    S    
C10   N2    A    
C9    C19   S    
C10   C20   S    
O9    Zn1   S    
C3    O3    A    
C23   O11   A    
C22   O10   A    
C25   C47   A    
C50   O22   S    
C26   C48   A    
C63   H41   S    
C49   O21   S    
C27   C45   A    
O10   Zn1   S    
C33   H1    S    
C3    C32   S    
C57   H27   S    
O14   Zn3   S    
C66   O30   D    
C25   C29   A    
C13   N3    A    
C8    H20   S    
C49   H9    S    
C30   C34   A    
C27   C31   A    
C28   C32   A    
O4    Zn2   S    
C64   H42   S    
C7    C49   S    
C5    H13   S    
C52   H12   S    
C58   H32   S    
N4    Zn2   S    
C10   C16   A    
O3    Zn2   S    
C19   C53   S    
C47   C51   S    
C14   C62   S    
C18   C66   S    
C35   H3    S    
N3    Zn1   S    
C23   C44   S    
C23   O15   A    
C60   H37   S    
O1    Zn1   S    
C36   H4    S    
C24   O16   A    
C63   O27   D    
C53   H23   S    
C6    H14   S    
C39   H7    S    
C45   C49   S    
C13   C61   S    
C51   H11   S    
O13   Zn3   S    
O2    Zn1   S    
C54   O18   D    
O23   C59   S    
C5    C25   S    
C53   O17   D    
C12   C14   A    
C8    H16   S    
C12   N2    A    
C11   H21   S    
C51   O23   S    
C31   C35   A    
C50   H10   S    
C59   H34   S    
C60   H36   S    
C8    C50   S    
C66   H44   S    
C21   O13   A    
C65   O29   D    
C52   O24   S    
C20   C55   S    
C22   O14   A    
C61   O25   D    
C24   O12   A    
C39   C43   A    
C56   O20   D    
O12   Zn2   S    
C62   H40   S    
C1    O5    A    
C55   H25   S    
C46   C50   S    
C59   H35   S    
C36   C38   A    
C9    C15   A    
C60   H38   S    
C11   N1    A    
C58   H30   S    
C11   C13   A    
C34   H2    S    
C15   N3    A    
O11   Zn2   S    
C1    O1    A    
C1    C30   S    
C17   C19   S    
C62   O26   D    
C17   C64   S    
C16   N4    A    
C14   N4    A    
C37   C41   A    
C54   H24   S    
O8    Zn4   S    
C4    C31   S    
C2    O2    A    
C7    H15   S    
C21   C42   S    
C44   C48   A    
C40   C44   A    
C4    O4    A    
C8    C28   S    
C16   C18   S    
O5    Zn3   S    
C24   C43   S    
C41   C45   A    
C5    C51   S    
C17   C63   S    
C9    N1    A    
C6    C52   S    
C59   H33   S    
C15   C17   S    
C43   C47   A    
O15   Zn4   S    
C57   H29   S    
C37   H5    S    
C61   H39   S    
C20   C56   S    
C26   C30   A    
