data_mof_unit_54648.cif
_audit_creation_date              2012-12-10T18:50:52-0500
_audit_creation_method            fapswitch 2.2
_symmetry_space_group_name_H-M    P1
_symmetry_Int_Tables_number       1
_space_group_crystal_system       triclinic
_cell_length_a                    10.578306
_cell_length_b                    10.011862
_cell_length_c                    15.687227
_cell_angle_alpha                 90.130186
_cell_angle_beta                  90.281996
_cell_angle_gamma                 91.061323
_cell_volume                      1661.10152009

loop_
_atom_site_label
_atom_site_type_symbol
_atom_type_description
_atom_site_fract_x
_atom_site_fract_y
_atom_site_fract_z
_atom_type_partial_charge
C1    C     C_R   0.257962 0.498559 0.501414 0.917503
C2    C     C_R   0.934696 0.626579 0.465950 0.415387
C3    C     C_R   0.866473 0.507035 0.455906 -0.351899
C4    C     C_R   0.120479 0.496563 0.492794 -0.168844
C5    C     C_R   0.505790 0.069756 0.574115 0.369800
C6    C     C_R   0.536335 0.932531 0.570370 0.405074
C7    C     C_R   0.497771 0.499842 0.338795 0.909976
C8    C     C_R   0.457170 0.926595 0.430811 0.104379
C9    C     C_R   0.477492 0.068070 0.426237 0.140327
C10   C     C_R   0.736082 0.501577 0.483345 0.937041
C11   C     C_R   0.498913 0.500020 0.661239 0.931618
C12   C     C_3   0.616279 0.516396 0.954523 0.295872
C13   C     C_3   0.400505 0.624772 0.047486 0.345637
C14   C     C_3   0.409884 0.361794 0.049245 0.319814
C15   C     C_3   0.422001 0.356756 0.949591 -0.158394
C16   C     C_3   0.390414 0.613638 0.948171 -0.162038
C17   C     C_1   0.490757 0.499300 0.749824 -0.043463
C18   C     C_3   0.467119 0.497909 0.083817 -0.087726
C19   C     C_3   0.476306 0.495448 0.916774 0.163940
C20   C     C_3   0.254154 0.611894 0.912401 -0.689126
C21   C     C_3   0.310622 0.292953 0.898458 -0.667594
C22   C     C_3   0.381057 0.856672 0.362138 -0.650505
C23   C     C_3   0.607648 0.506381 0.053610 -0.571491
C24   C     C_3   0.471925 0.131135 0.339323 -0.646444
C25   C     C_3   0.675651 0.654645 0.929735 -0.823466
C26   C     C_3   0.711277 0.410407 0.921707 -0.775069
C27   C     C_3   0.112287 0.240326 0.466677 -0.649242
C28   C     C_3   0.109821 0.742099 0.544491 -0.693146
C29   C     C_1   0.483092 0.497198 0.824966 -0.013093
C30   C     C_1   0.474483 0.498869 0.175332 0.108022
C31   C     C_1   0.485894 0.499287 0.250364 -0.037040
C32   C     C_R   0.054703 0.378147 0.464234 0.023040
C33   C     C_R   0.056608 0.620299 0.497803 0.004263
C34   C     C_R   0.928659 0.388429 0.438810 0.436576
H1    H     H_    0.474870 0.283898 0.073466 0.093553
H2    H     H_    0.224610 0.352422 0.896505 0.259446
H3    H     H_    0.338428 0.276532 0.831308 0.263333
H4    H     H_    0.286181 0.192971 0.924804 0.280894
H5    H     H_    0.329686 0.768516 0.386682 0.270013
H6    H     H_    0.305312 0.922352 0.338080 0.222523
H7    H     H_    0.443484 0.829152 0.308513 0.268302
H8    H     H_    0.387395 0.194495 0.333960 0.239638
H9    H     H_    0.562800 0.183063 0.326574 0.296318
H10   H     H_    0.465252 0.058613 0.286089 0.213429
H11   H     H_    0.068701 0.635714 0.129390 0.399319
H12   H     H_    0.468595 0.708929 0.059507 0.086709
H13   H     H_    0.186868 0.109575 0.130762 0.410768
H14   H     H_    0.775190 0.663180 0.952450 0.261519
H15   H     H_    0.676441 0.667907 0.859523 0.263760
H16   H     H_    0.626626 0.739773 0.959111 0.208980
H17   H     H_    0.692207 0.308805 0.946849 0.216155
H18   H     H_    0.712527 0.405704 0.851023 0.252756
H19   H     H_    0.808987 0.436104 0.943339 0.261973
H20   H     H_    0.154476 0.222224 0.530204 0.258797
H21   H     H_    0.041506 0.158346 0.459579 0.255379
H22   H     H_    0.183410 0.229796 0.415434 0.247612
H23   H     H_    0.494899 0.281666 0.936696 0.154773
H24   H     H_    0.166062 0.711665 0.600941 0.236970
H25   H     H_    0.168431 0.804784 0.501224 0.242020
H26   H     H_    0.033279 0.804521 0.570283 0.265521
H27   H     H_    0.917560 0.125244 0.276267 0.402536
H28   H     H_    0.025330 0.931306 0.401551 0.365050
H29   H     H_    0.524467 0.126878 0.788284 0.370295
H30   H     H_    0.563520 0.857466 0.788498 0.363482
H31   H     H_    0.430194 0.707925 0.921199 0.173717
H32   H     H_    0.657330 0.593234 0.084432 0.224033
H33   H     H_    0.658915 0.417646 0.077675 0.219982
H34   H     H_    0.190852 0.545146 0.948787 0.300703
H35   H     H_    0.214431 0.713610 0.915826 0.271916
H36   H     H_    0.251458 0.582294 0.844227 0.217641
N1    N     N_R   0.499970 0.857200 0.499980 -0.157654
N2    N     N_R   0.499970 0.142800 0.499980 -0.152431
O1    O     O_R   0.316750 0.614620 0.499990 -0.648714
O2    O     O_2   0.232498 0.821999 0.066010 -0.285047
O3    O     O_3   0.134347 0.589123 0.096473 -0.462984
O4    O     O_2   0.243280 0.356676 0.183425 -0.251590
O5    O     O_2   0.147930 0.342058 0.041542 -0.254098
O6    O     O_3   0.264070 0.136536 0.099193 -0.534476
O7    O     O_2   0.793084 0.159634 0.423118 -0.274610
O8    O     O_2   0.757800 0.333643 0.315835 -0.335356
O9    O     O_3   0.963430 0.198651 0.306346 -0.522830
O10   O     O_2   0.775117 0.748493 0.357004 -0.252282
O11   O     O_2   0.833265 0.870219 0.487205 -0.257501
O12   O     O_R   0.316750 0.385380 0.499990 -0.605958
O13   O     O_3   0.000509 0.852390 0.366782 -0.526095
O14   O     O_2   0.322476 0.217427 0.646273 -0.307854
O15   O     O_2   0.358951 0.999834 0.706596 -0.307665
O16   O     O_3   0.526794 0.186651 0.738060 -0.544857
O17   O     O_2   0.714688 0.762123 0.631334 -0.244224
O18   O     O_2   0.707725 0.984440 0.692057 -0.292635
O19   O     O_3   0.532471 0.813897 0.735460 -0.544174
O20   O     O_R   0.499990 0.614720 0.377140 -0.614480
O21   O     O_R   0.499990 0.385280 0.377140 -0.627392
O22   O     O_R   0.683220 0.614710 0.500000 -0.526920
O23   O     O_R   0.683220 0.385290 0.500000 -0.566754
O24   O     O_R   0.499980 0.614620 0.622860 -0.551642
O25   O     O_R   0.499980 0.385380 0.622860 -0.529762
O26   O     O_2   0.295077 0.708561 0.195932 -0.311971
S1    S     S_3+6 0.263466 0.688356 0.103378 0.053046
S2    S     S_3+6 0.260201 0.304215 0.094453 0.061566
S3    S     S_3+6 0.855215 0.267311 0.370465 0.041679
S4    S     S_3+6 0.880403 0.777549 0.419433 0.080853
S5    S     S_3+6 0.423613 0.119430 0.667206 0.041275
S6    S     S_3+6 0.627576 0.870973 0.657328 0.097967
Zn1   Zn    Zn3+2 0.499980 0.653120 0.500000 1.068563
Zn2   Zn    Zn3+2 0.499980 0.346880 0.500000 1.067502

loop_
_geom_bond_atom_site_label_1
_geom_bond_atom_site_label_2
_ccdc_geom_bond_type
C11   O24   A    
O24   Zn1   S    
C5    S5    S    
O22   Zn1   S    
O11   S4    D    
H29   O16   S    
C17   C29   T    
C14   C18   S    
C9    N2    A    
O19   S6    S    
C27   H20   S    
C21   H2    S    
O9    S3    S    
C1    O12   A    
C15   C19   S    
C12   C23   S    
C13   C18   S    
C23   H32   S    
C5    N2    A    
C13   H12   S    
C27   H21   S    
C22   H7    S    
C10   O22   A    
C24   H8    S    
O5    S2    D    
C23   H33   S    
C25   H16   S    
O1    Zn1   S    
C21   H4    S    
C8    C9    A    
O12   Zn2   S    
C18   C30   S    
C6    S6    S    
C15   H23   S    
C20   H36   S    
O14   S5    D    
C28   H26   S    
C6    N1    A    
C7    O21   A    
H28   O13   S    
C34   S3    S    
C7    C31   S    
C18   C23   S    
C14   H1    S    
C27   H22   S    
C3    C34   A    
C12   C26   S    
C32   C34   A    
C13   S1    S    
O23   Zn2   S    
C26   H18   S    
O21   Zn2   S    
C8    C22   S    
C30   C31   T    
C16   C20   S    
C22   H6    S    
O3    S1    S    
O10   S4    D    
C25   H14   S    
O18   S6    D    
C4    C32   A    
O15   S5    D    
O25   Zn2   S    
C2    C33   A    
N2    Zn2   S    
C28   C33   S    
N1    Zn1   S    
O17   S6    D    
O6    S2    S    
C24   H10   S    
C20   H35   S    
C19   C29   S    
C26   H19   S    
O16   S5    S    
C28   H25   S    
C4    C33   A    
C11   C17   S    
C8    N1    A    
C27   C32   S    
C20   H34   S    
C9    C24   S    
C14   S2    S    
O2    S1    D    
C28   H24   S    
O4    S2    D    
O8    S3    D    
H13   O6    S    
C11   O25   A    
C12   C25   S    
H11   O3    S    
C1    C4    S    
C1    O1    A    
C2    C3    A    
C3    C10   S    
H27   O9    S    
C26   H17   S    
C5    C6    A    
C10   O23   A    
C16   C19   S    
C22   H5    S    
C12   C19   S    
C25   H15   S    
O20   Zn1   S    
C15   C21   S    
C21   H3    S    
O26   S1    D    
C13   C16   S    
C7    O20   A    
C24   H9    S    
C2    S4    S    
C14   C15   S    
O7    S3    D    
C16   H31   S    
H30   O19   S    
O13   S4    S    
