data_mof_unit_62775.cif
_audit_creation_date              2012-10-26T18:12:36-0400
_audit_creation_method            fapswitch 2.2
_symmetry_space_group_name_H-M    P1
_symmetry_Int_Tables_number       1
_space_group_crystal_system       triclinic
_cell_length_a                    36.436693
_cell_length_b                    29.394885
_cell_length_c                    21.592164
_cell_angle_alpha                 89.97389
_cell_angle_beta                  126.207639
_cell_angle_gamma                 90.01131
_cell_volume                      18660.2145937

loop_
_atom_site_label
_atom_site_type_symbol
_atom_type_description
_atom_site_fract_x
_atom_site_fract_y
_atom_site_fract_z
_atom_type_partial_charge
C1    C     C_R   0.914446 0.000002 0.914405 0.561841
C2    C     C_1   0.229322 0.999998 0.229614 0.012120
C3    C     C_3   0.452002 0.499791 0.235188 -0.241575
C4    C     C_1   0.863316 0.000005 0.863148 -0.016097
C5    C     C_1   0.136683 0.999997 0.136860 -0.026213
C6    C     C_1   0.363316 0.500005 0.863148 -0.016088
C7    C     C_1   0.636683 0.499997 0.136860 -0.026169
C8    C     C_2   0.926501 0.945380 0.735919 0.215446
C9    C     C_2   0.076679 0.049042 0.270132 0.200634
C10   C     C_2   0.071267 0.942381 0.259930 0.210614
C11   C     C_2   0.925938 0.053918 0.735112 0.213660
C12   C     C_2   0.426459 0.445427 0.735887 0.215435
C13   C     C_1   0.270677 0.500005 0.770395 0.010366
C14   C     C_2   0.576735 0.548957 0.270186 0.200577
C15   C     C_2   0.571199 0.442300 0.259866 0.210664
C16   C     C_2   0.425970 0.553965 0.735133 0.213668
C17   C     C_1   0.729322 0.499998 0.229614 0.012114
C18   C     C_1   0.728290 0.000004 0.728007 0.009077
C19   C     C_1   0.271710 0.999999 0.272000 0.010188
C20   C     C_1   0.228290 0.500004 0.728007 0.009078
C21   C     C_1   0.771710 0.499999 0.272000 0.010184
C22   C     C_1   0.678032 0.000003 0.677780 -0.027332
C23   C     C_1   0.321968 0.999999 0.322224 -0.026617
C24   C     C_1   0.178032 0.500003 0.677780 -0.027332
C25   C     C_R   0.085554 0.999999 0.085596 0.541724
C26   C     C_1   0.821968 0.499999 0.322224 -0.026620
C27   C     C_1   0.635643 0.000001 0.635447 -0.029892
C28   C     C_1   0.364356 1.000000 0.364554 -0.029459
C29   C     C_1   0.135643 0.500001 0.635447 -0.029892
C30   C     C_1   0.864356 0.500000 0.364554 -0.029461
C31   C     C_R   0.000002 0.914460 0.500000 0.549353
C32   C     C_R   0.999998 0.085540 0.500000 0.548438
C33   C     C_R   0.500002 0.414460 0.499999 0.549357
C34   C     C_R   0.499998 0.585540 0.500000 0.548436
C35   C     C_R   0.999918 0.000032 0.621081 0.563923
C36   C     C_R   0.414446 0.500002 0.914405 0.561851
C37   C     C_R   0.000077 0.000167 0.378917 0.559726
C38   C     C_R   0.499918 0.500027 0.621081 0.563926
C39   C     C_R   0.500077 0.500174 0.378918 0.559732
C40   C     C_R   0.500000 0.084504 0.499988 0.539365
C41   C     C_R   0.500000 0.915496 0.500012 0.539224
C42   C     C_R   0.000000 0.584504 0.499988 0.539364
C43   C     C_R   1.000000 0.415496 0.500012 0.539225
C44   C     C_R   0.584500 0.000000 0.584431 0.539136
C45   C     C_R   0.415500 0.000000 0.415569 0.539187
C46   C     C_R   0.084500 0.500000 0.584431 0.539136
C47   C     C_R   0.585554 0.499999 0.085596 0.541779
C48   C     C_R   0.915500 0.500000 0.415569 0.539187
C49   C     C_1   0.000005 0.863325 0.499994 -0.041236
C50   C     C_1   0.999995 0.136675 0.500005 -0.043696
C51   C     C_1   0.500005 0.363325 0.499994 -0.041231
C52   C     C_1   0.499995 0.636675 0.500005 -0.043701
C53   C     C_R   0.996160 0.000008 0.875347 0.582395
C54   C     C_R   0.003394 0.999978 0.124248 0.542540
C55   C     C_R   0.496158 0.500008 0.875345 0.582410
C56   C     C_R   0.503394 0.499977 0.124248 0.542589
C57   C     C_1   0.000006 0.820937 0.499987 -0.030744
C58   C     C_1   0.820933 0.000006 0.820689 -0.021248
C59   C     C_1   0.999995 0.179063 0.500012 -0.033245
C60   C     C_1   0.500006 0.320937 0.499986 -0.030738
C61   C     C_1   0.499995 0.679063 0.500012 -0.033250
C62   C     C_1   0.000005 0.770681 0.499977 0.009006
C63   C     C_1   0.999995 0.229319 0.500022 0.007229
C64   C     C_1   0.500005 0.270681 0.499977 0.009012
C65   C     C_1   0.499995 0.729319 0.500022 0.007225
C66   C     C_1   0.500004 0.228292 0.499970 0.008901
C67   C     C_1   0.499996 0.771708 0.500029 0.007726
C68   C     C_1   0.000004 0.728292 0.499970 0.008896
C69   C     C_1   0.179067 0.999997 0.179321 -0.021679
C70   C     C_1   0.999996 0.271708 0.500029 0.007729
C71   C     C_1   0.500003 0.178035 0.499965 -0.026978
C72   C     C_1   0.499998 0.821965 0.500035 -0.027689
C73   C     C_1   0.000003 0.678035 0.499965 -0.026982
C74   C     C_1   0.999998 0.321965 0.500035 -0.027686
C75   C     C_1   0.500001 0.135646 0.499968 -0.029447
C76   C     C_1   0.499999 0.864355 0.500032 -0.029873
C77   C     C_1   0.000001 0.635646 0.499968 -0.029449
C78   C     C_1   0.999999 0.364355 0.500032 -0.029872
C79   C     C_3   0.973462 0.955539 0.757651 -0.103264
C80   C     C_1   0.320932 0.500006 0.820689 -0.021245
C81   C     C_3   0.028207 0.043416 0.243844 -0.098680
C82   C     C_3   0.025438 0.954909 0.241332 -0.100566
C83   C     C_3   0.973075 0.044311 0.757239 -0.103354
C84   C     C_3   0.473427 0.455554 0.757618 -0.103280
C85   C     C_3   0.528256 0.543389 0.243890 -0.098695
C86   C     C_3   0.525387 0.454884 0.241284 -0.100552
C87   C     C_3   0.473105 0.544330 0.757267 -0.103336
C88   C     C_3   0.973476 0.957155 0.686100 -0.254048
C89   C     C_3   0.025902 0.043324 0.313140 -0.251291
C90   C     C_3   0.027118 0.957707 0.314504 -0.209053
C91   C     C_1   0.679067 0.499997 0.179321 -0.021672
C92   C     C_3   0.973314 0.042829 0.685893 -0.254303
C93   C     C_3   0.473437 0.457172 0.686063 -0.254042
C94   C     C_3   0.525948 0.543304 0.313183 -0.251294
C95   C     C_3   0.527073 0.457684 0.314463 -0.209071
C96   C     C_3   0.473349 0.542850 0.685927 -0.254310
C97   C     C_3   0.046029 0.000233 0.834294 -0.275726
C98   C     C_3   0.953847 0.001370 0.165781 -0.267569
C99   C     C_3   0.546030 0.500195 0.834296 -0.275718
C100  C     C_3   0.453848 0.501428 0.165782 -0.267575
C101  C     C_3   0.995784 0.000018 0.806449 0.006130
C102  C     C_1   0.770677 0.000005 0.770395 0.010365
C103  C     C_3   0.004001 0.999859 0.193358 -0.012443
C104  C     C_3   0.495783 0.500018 0.806448 0.006151
C105  C     C_3   0.504000 0.499859 0.193358 -0.012441
C106  C     C_3   0.999059 0.000040 0.688592 0.018298
C107  C     C_3   0.000886 0.000200 0.311364 0.002095
C108  C     C_3   0.499059 0.500036 0.688592 0.018313
C109  C     C_3   0.500886 0.500206 0.311364 0.002110
C110  C     C_3   0.047928 0.000142 0.764869 -0.240003
C111  C     C_3   0.952004 0.999734 0.235189 -0.241578
C112  C     C_3   0.547930 0.500097 0.764871 -0.239996
Cu1   Cu    Cu3+1 0.000000 0.957500 0.000000 1.006399
Cu2   Cu    Cu3+1 0.500030 0.000000 0.562500 0.965532
Cu3   Cu    Cu3+1 0.999970 0.500000 0.437500 0.965042
Cu4   Cu    Cu3+1 0.000030 0.500000 0.562500 0.965530
Cu5   Cu    Cu3+1 0.000000 0.042500 0.000000 1.041324
Cu6   Cu    Cu3+1 0.500000 0.457500 0.000000 1.006402
Cu7   Cu    Cu3+1 0.500000 0.542500 0.000000 1.041303
Cu8   Cu    Cu3+1 0.957500 0.000000 0.457520 0.931689
Cu9   Cu    Cu3+1 0.042500 0.000000 0.542480 0.940213
Cu10  Cu    Cu3+1 0.457500 0.500000 0.457520 0.931688
Cu11  Cu    Cu3+1 0.542500 0.500000 0.542480 0.940197
Cu12  Cu    Cu3+1 0.499970 0.000000 0.437500 0.965044
H1    H     H_    0.995472 0.926325 0.793387 0.164148
H2    H     H_    0.060556 0.044949 0.368450 0.131566
H3    H     H_    0.062936 0.959444 0.366897 0.164343
H4    H     H_    0.938041 0.042701 0.631900 0.124884
H5    H     H_    0.438096 0.457325 0.632229 0.124878
H6    H     H_    0.560604 0.544895 0.368497 0.131577
H7    H     H_    0.562895 0.459384 0.366856 0.164289
H8    H     H_    0.438077 0.542757 0.631926 0.124865
H9    H     H_    0.990273 0.926020 0.684397 0.114543
H10   H     H_    0.007466 0.074214 0.310929 0.115055
H11   H     H_    0.011874 0.926316 0.319401 0.120790
H12   H     H_    0.008897 0.073816 0.208315 0.168196
H13   H     H_    0.990114 0.074023 0.684358 0.114516
H14   H     H_    0.490204 0.426020 0.684327 0.114539
H15   H     H_    0.507543 0.574214 0.310998 0.115045
H16   H     H_    0.511798 0.426308 0.319332 0.120805
H17   H     H_    0.490182 0.574030 0.684429 0.114510
H18   H     H_    0.064449 0.969934 0.870837 0.124024
H19   H     H_    0.936918 0.032970 0.132204 0.126598
H20   H     H_    0.934309 0.972179 0.127007 0.124887
H21   H     H_    0.064140 0.030763 0.870338 0.124292
H22   H     H_    0.564429 0.469884 0.870822 0.124039
H23   H     H_    0.002367 0.926212 0.206061 0.149195
H24   H     H_    0.436956 0.533049 0.132244 0.126628
H25   H     H_    0.434276 0.472261 0.126972 0.124854
H26   H     H_    0.564163 0.530715 0.870357 0.124269
H27   H     H_    0.066912 0.969577 0.767741 0.136768
H28   H     H_    0.932311 0.029466 0.232878 0.138027
H29   H     H_    0.933848 0.968371 0.232062 0.135585
H30   H     H_    0.066832 0.030713 0.767480 0.136698
H31   H     H_    0.566886 0.469512 0.767721 0.136739
H32   H     H_    0.432340 0.529543 0.232909 0.137999
H33   H     H_    0.433814 0.468446 0.232025 0.135609
H34   H     H_    0.994719 0.073737 0.792790 0.163854
H35   H     H_    0.566863 0.530650 0.767507 0.136714
H36   H     H_    0.896776 0.962266 0.687712 0.095591
H37   H     H_    0.103506 0.027638 0.315323 0.111767
H38   H     H_    0.085729 0.961530 0.236184 0.119862
H39   H     H_    0.896377 0.037275 0.686203 0.095638
H40   H     H_    0.396744 0.462335 0.687698 0.095605
H41   H     H_    0.603538 0.527531 0.315369 0.111749
H42   H     H_    0.585698 0.461444 0.236178 0.119888
H43   H     H_    0.396399 0.537350 0.686199 0.095644
H44   H     H_    0.495418 0.426323 0.793331 0.164147
H45   H     H_    0.508982 0.573810 0.208392 0.168199
H46   H     H_    0.502281 0.426215 0.205983 0.149213
H47   H     H_    0.494767 0.573743 0.792842 0.163832
H48   H     H_    0.938138 0.957274 0.632262 0.124869
O1    O     O_R   0.938020 0.964110 0.938040 -0.471366
O2    O     O_R   0.000010 0.035890 0.091160 -0.484492
O3    O     O_R   0.000010 0.964110 0.091160 -0.521781
O4    O     O_R   0.999990 0.035890 0.908840 -0.485149
O5    O     O_R   0.499990 0.464110 0.908840 -0.483350
O6    O     O_R   0.500010 0.535890 0.091160 -0.484531
O7    O     O_R   0.500010 0.464110 0.091160 -0.521771
O8    O     O_R   0.499990 0.535890 0.908840 -0.485119
O9    O     O_R   0.964100 0.938030 0.464100 -0.487132
O10   O     O_R   0.035900 0.061970 0.535900 -0.485893
O11   O     O_R   0.035900 0.938030 0.535900 -0.483807
O12   O     O_R   0.061980 0.035890 0.061960 -0.471053
O13   O     O_R   0.964100 0.061970 0.464100 -0.486715
O14   O     O_R   0.464100 0.438030 0.464100 -0.487128
O15   O     O_R   0.535900 0.561970 0.535900 -0.485895
O16   O     O_R   0.535900 0.438030 0.535900 -0.483808
O17   O     O_R   0.464100 0.561970 0.464100 -0.486718
O18   O     O_R   0.964110 0.000000 0.555280 -0.506858
O19   O     O_R   0.035890 0.000000 0.444720 -0.505636
O20   O     O_R   0.464110 0.500000 0.555280 -0.506858
O21   O     O_R   0.535890 0.500000 0.444720 -0.505637
O22   O     O_R   0.035850 0.000000 0.627010 -0.506325
O23   O     O_R   0.061980 0.964110 0.061960 -0.500181
O24   O     O_R   0.964150 0.000000 0.372990 -0.505027
O25   O     O_R   0.535850 0.500000 0.627010 -0.506326
O26   O     O_R   0.464150 0.500000 0.372990 -0.505028
O27   O     O_R   0.499940 0.061950 0.447200 -0.481978
O28   O     O_R   0.500060 0.938050 0.552800 -0.482130
O29   O     O_R   0.500060 0.061950 0.552800 -0.482310
O30   O     O_R   0.499940 0.938050 0.447200 -0.482397
O31   O     O_R   0.999940 0.561950 0.447200 -0.481981
O32   O     O_R   0.000060 0.438050 0.552800 -0.482131
O33   O     O_R   0.000060 0.561950 0.552800 -0.482309
O34   O     O_R   0.938020 0.035890 0.938040 -0.473116
O35   O     O_R   0.999940 0.438050 0.447200 -0.482395
O36   O     O_R   0.561950 0.000000 0.509180 -0.481701
O37   O     O_R   0.438050 0.000000 0.490820 -0.481300
O38   O     O_R   0.061950 0.500000 0.509180 -0.481701
O39   O     O_R   0.938050 0.500000 0.490820 -0.481301
O40   O     O_R   0.561950 0.000000 0.614710 -0.482991
O41   O     O_R   0.438050 0.000000 0.385290 -0.483049
O42   O     O_R   0.061950 0.500000 0.614710 -0.482990
O43   O     O_R   0.938050 0.500000 0.385290 -0.483049
O44   O     O_2   0.921334 0.916726 0.771113 -0.479311
O45   O     O_R   0.438020 0.464110 0.938040 -0.471350
O46   O     O_2   0.086330 0.078412 0.241982 -0.483535
O47   O     O_2   0.091691 0.909007 0.299295 -0.492755
O48   O     O_2   0.920444 0.081837 0.770817 -0.479637
O49   O     O_2   0.421274 0.416774 0.771061 -0.479319
O50   O     O_2   0.586419 0.578305 0.242052 -0.483560
O51   O     O_2   0.591570 0.408889 0.299159 -0.492758
O52   O     O_2   0.420490 0.581871 0.770867 -0.479640
O53   O     O_R   0.561980 0.535890 0.061960 -0.471035
O54   O     O_R   0.561980 0.464110 0.061960 -0.500196
O55   O     O_R   0.438020 0.535890 0.938040 -0.473130
O56   O     O_R   0.999990 0.964110 0.908840 -0.483308

loop_
_geom_bond_atom_site_label_1
_geom_bond_atom_site_label_2
_ccdc_geom_bond_type
C9    O46   D    
Cu5   O2    S    
C21   C26   S    
C38   C108  S    
C88   H48   S    
C112  H35   S    
Cu3   O35   S    
C98   H19   S    
Cu5   O34   S    
C55   O5    A    
C55   O8    A    
C17   C91   S    
C72   C76   T    
C111  H28   S    
C82   H23   S    
Cu5   O12   S    
Cu7   O55   S    
C57   C62   S    
C56   O6    A    
Cu6   O54   S    
C43   C78   S    
C83   C92   S    
C39   O21   A    
Cu12  O27   S    
C1    O1    A    
C100  C105  S    
Cu8   O24   S    
C32   O13   A    
C81   H12   S    
C110  H30   S    
C50   C59   T    
Cu2   O37   S    
C30   C48   S    
C3    C109  S    
C90   C107  S    
C37   C107  S    
Cu4   O39   S    
C52   C61   T    
C53   O56   A    
C81   C103  S    
C85   C105  S    
Cu10  O14   S    
C12   H40   S    
C99   C112  S    
C16   H43   S    
C98   C103  S    
C44   O36   A    
C49   C57   T    
C12   C84   S    
C42   O33   A    
C67   C72   S    
C18   C102  T    
Cu2   O40   S    
Cu11  O16   S    
C24   C29   T    
C5    C69   T    
C93   H14   S    
C35   O22   A    
C9    C81   S    
C96   H17   S    
Cu6   Cu7   S    
C3    C100  S    
C20   C24   S    
C53   C101  S    
C65   C67   T    
C112  H31   S    
Cu3   O31   S    
C70   C74   S    
C8    C79   S    
C45   O41   A    
C82   C103  S    
C63   C70   T    
C15   H42   S    
C33   O14   A    
C89   H10   S    
Cu7   O6    S    
C2    C69   S    
Cu8   O9    S    
Cu4   O33   S    
Cu3   O38   S    
C25   O12   A    
Cu9   O11   S    
Cu2   Cu12  S    
Cu6   O7    S    
C99   C104  S    
C79   H1    S    
C48   O43   A    
C7    C91   T    
C10   H38   S    
Cu2   O28   S    
Cu12  O36   S    
C95   H7    S    
C94   H15   S    
Cu1   O23   S    
C47   O54   A    
C42   O31   A    
C97   H21   S    
C31   C49   S    
C41   O28   A    
C93   H5    S    
C92   H13   S    
C92   H4    S    
C79   C88   S    
Cu4   O32   S    
Cu11  O25   S    
C10   O47   D    
C89   H2    S    
C97   H18   S    
C99   H26   S    
C28   C45   S    
C38   O25   A    
C43   O35   A    
C37   O24   A    
C54   C103  S    
Cu4   O42   S    
C110  H27   S    
C95   C109  S    
C12   O49   D    
Cu1   O56   S    
C46   O42   A    
C68   C73   S    
C46   O38   A    
C55   C104  S    
C10   C82   S    
C96   C108  S    
C85   H45   S    
C108  C112  S    
Cu12  O30   S    
C44   O40   A    
C64   C66   T    
C54   O3    A    
C19   C23   S    
Cu9   O19   S    
C84   H44   S    
Cu8   O18   S    
C16   C87   S    
C88   C106  S    
C85   C94   S    
C97   C101  S    
C6    C80   T    
C66   C71   S    
C47   O53   A    
C48   O39   A    
C90   H3    S    
C87   H47   S    
C87   C96   S    
C89   C107  S    
Cu6   O45   S    
C11   H39   S    
C95   H16   S    
Cu2   O29   S    
Cu3   O43   S    
C94   H6    S    
C23   C28   T    
Cu10  O26   S    
C14   H41   S    
C9    H37   S    
C1    O34   A    
C111  H29   S    
Cu8   O13   S    
C32   C50   S    
C15   C86   S    
C5    C25   S    
Cu5   O4    S    
C92   C106  S    
C37   O19   A    
C39   O26   A    
C26   C30   T    
C36   O55   A    
C38   O20   A    
C22   C27   T    
C84   C104  S    
Cu1   Cu5   S    
C59   C63   S    
C16   O52   D    
C86   C105  S    
C33   C51   S    
Cu7   O8    S    
C8    H36   S    
Cu11  O15   S    
Cu9   O22   S    
Cu8   Cu9   S    
Cu7   O53   S    
Cu10  O17   S    
Cu1   O1    S    
C106  C110  S    
C32   O10   A    
C98   C111  S    
C83   C101  S    
C13   C20   T    
C98   H20   S    
C2    C19   T    
C86   H46   S    
C107  C111  S    
C14   O50   D    
C34   O17   A    
C79   C101  S    
C14   C85   S    
C8    O44   D    
C25   O23   A    
C36   O45   A    
C88   H9    S    
Cu10  O20   S    
C40   O27   A    
C100  H25   S    
C35   O18   A    
C94   C109  S    
C34   C52   S    
C82   C90   S    
C40   C75   S    
C62   C68   T    
C29   C46   S    
C60   C64   S    
C1    C4    S    
C11   C83   S    
C54   O2    A    
C18   C22   S    
Cu10  Cu11  S    
C81   C89   S    
C93   C108  S    
C35   C106  S    
C96   H8    S    
C41   C76   S    
C71   C75   T    
C97   C110  S    
C83   H34   S    
C100  H24   S    
C58   C102  S    
Cu1   O3    S    
C3    H32   S    
C6    C36   S    
C33   O16   A    
C31   O11   A    
C84   C93   S    
C15   O51   D    
C34   O15   A    
C45   O37   A    
C56   C105  S    
C13   C80   S    
Cu12  O41   S    
C86   C95   S    
C87   C104  S    
Cu6   O5    S    
C61   C65   S    
C39   C109  S    
C40   O29   A    
C42   C77   S    
C74   C78   T    
C4    C58   T    
C43   O32   A    
C3    H33   S    
C73   C77   T    
Cu11  O21   S    
C51   C60   T    
C99   H22   S    
C41   O30   A    
C27   C44   S    
C11   O48   D    
C31   O9    A    
C90   H11   S    
Cu3   Cu4   S    
C53   O4    A    
C7    C47   S    
Cu9   O10   S    
C56   O7    A    
C17   C21   T    
