data_mof_unit_34131.cif
_audit_creation_date              2012-12-10T17:44:33-0500
_audit_creation_method            fapswitch 2.2
_symmetry_space_group_name_H-M    P1
_symmetry_Int_Tables_number       1
_space_group_crystal_system       triclinic
_cell_length_a                    9.929551
_cell_length_b                    10.690417
_cell_length_c                    15.27756
_cell_angle_alpha                 92.540335
_cell_angle_beta                  69.801034
_cell_angle_gamma                 89.062621
_cell_volume                      1519.62832453

loop_
_atom_site_label
_atom_site_type_symbol
_atom_type_description
_atom_site_fract_x
_atom_site_fract_y
_atom_site_fract_z
_atom_type_partial_charge
C1    C     C_R   0.501232 0.739280 0.494701 0.894381
C2    C     C_R   0.465283 0.388072 0.888560 -0.108392
C3    C     C_R   0.344836 0.312932 0.928457 -0.161425
C4    C     C_R   0.574179 0.395297 0.927895 -0.025191
C5    C     C_R   0.536901 0.373495 0.022301 -0.035871
C6    C     C_R   0.422340 0.294173 0.061889 -0.175257
C7    C     C_R   0.329938 0.259834 0.014192 0.717796
C8    C     C_R   0.718582 0.420075 0.877114 0.182008
C9    C     C_R   0.811380 0.453744 0.924621 0.635122
C10   C     C_R   0.760810 0.464884 0.023226 -0.211797
C11   C     C_R   0.618384 0.428451 0.072560 -0.046006
C12   C     C_R   0.412081 0.493762 0.675530 0.983394
C13   C     C_R   0.845780 0.511362 0.074474 0.197197
C14   C     C_R   0.789461 0.518574 0.172008 0.543305
C15   C     C_R   0.555241 0.461728 0.168594 0.161336
C16   C     C_R   0.366878 0.868433 0.374740 -0.349083
C17   C     C_R   0.302449 0.934188 0.321806 0.084769
C18   C     C_R   0.324235 0.061285 0.311240 0.551891
C19   C     C_R   0.404930 0.124264 0.356502 0.453159
C20   C     C_R   0.452875 0.063075 0.421584 -0.099628
C21   C     C_R   0.440159 0.932417 0.427577 -0.001084
C22   C     C_R   0.503214 0.871558 0.485670 -0.018478
C23   C     C_R   0.504513 0.260433 0.493588 0.926662
C24   C     C_R   0.573934 0.937809 0.536481 -0.149772
C25   C     C_R   0.577938 0.065022 0.534944 -0.199177
C26   C     C_R   0.514455 0.127616 0.480631 -0.042582
C27   C     C_R   0.790026 0.671460 0.617928 -0.196184
C28   C     C_R   0.822651 0.759047 0.676106 0.588244
C29   C     C_R   0.959703 0.761782 0.678148 -0.294478
C30   C     C_R   0.065565 0.676926 0.622541 0.592358
C31   C     C_R   0.038604 0.587096 0.558582 0.017844
C32   C     C_R   0.894412 0.586280 0.557492 0.033054
C33   C     C_R   0.959018 0.416813 0.445694 -0.003210
C34   C     C_R   0.588794 0.501179 0.323418 0.989574
C35   C     C_R   0.101538 0.416335 0.446183 -0.042043
C36   C     C_R   0.369905 0.449587 0.770287 -0.212589
C37   C     C_R   0.644197 0.494818 0.220135 -0.306080
C38   C     C_R   0.243908 0.298202 0.881977 0.271750
C39   C     C_R   0.260199 0.364190 0.801800 -0.252022
C40   C     C_R   0.466114 0.466190 0.817671 0.651284
H1    H     H_    0.621445 0.891338 0.580944 0.188084
H2    H     H_    0.356514 0.768398 0.373358 0.220005
H3    H     H_    0.626038 0.115187 0.579399 0.181637
H4    H     H_    0.930421 0.348772 0.401101 0.169061
H5    H     H_    0.680286 0.671795 0.624725 0.251544
H6    H     H_    0.983900 0.828653 0.725592 0.226286
H7    H     H_    0.179353 0.347587 0.402254 0.208443
H8    H     H_    0.189275 0.346310 0.762735 0.228664
H9    H     H_    0.404310 0.259249 0.130149 0.254469
N1    N     N_R   0.856800 0.501200 0.500850 -0.090355
N2    N     N_R   0.142390 0.501280 0.500880 -0.101584
O1    O     O_R   0.385310 0.683220 0.500000 -0.568317
O2    O     O_R   0.614640 0.683250 0.500010 -0.651333
O3    O     O_R   0.319840 0.499980 0.632240 -0.535130
O4    O     O_R   0.549160 0.500000 0.632250 -0.608087
O5    O     O_R   0.385360 0.316750 0.499990 -0.592642
O6    O     O_R   0.614690 0.316780 0.500000 -0.638242
O7    O     O_R   0.450840 0.500000 0.367750 -0.577640
O8    O     O_R   0.680160 0.500020 0.367760 -0.551634
Zn1   Zn    Zn3+2 0.346880 0.499980 0.499990 1.051581
Zn2   Zn    Zn3+2 0.653120 0.500020 0.500010 1.020603
F1    F     F_    0.220955 0.184417 0.056895 -0.579085
I1    I     I_    0.056791 0.581028 0.014619 -0.039743
I2    I     I_    0.171742 0.842855 0.256977 -0.071868
F2    F     F_    0.267759 0.124221 0.256207 -0.611448
F3    F     F_    0.441844 0.242498 0.331954 -0.660331
F4    F     F_    0.719097 0.839503 0.733020 -0.607966
I3    I     I_    0.327809 0.509548 0.221863 -0.191291
F5    F     F_    0.188370 0.685561 0.639149 -0.614651
F6    F     F_    0.875298 0.557945 0.219697 -0.606143
F7    F     F_    0.949280 0.475472 0.873017 -0.641049
I4    I     I_    0.067554 0.176821 0.921942 -0.122116
F8    F     F_    0.558892 0.561763 0.795846 -0.632840
I5    I     I_    0.813477 0.365652 0.732482 -0.251658

loop_
_geom_bond_atom_site_label_1
_geom_bond_atom_site_label_2
_ccdc_geom_bond_type
C16   C21   A    
C34   C37   S    
C19   C20   A    
C4    C8    A    
C35   H7    S    
C25   H3    S    
C23   O5    A    
O3    Zn1   S    
C18   F2    S    
C28   C29   A    
C5    C11   A    
C3    C7    A    
C17   I2    S    
C38   C39   A    
O7    Zn1   S    
C40   F8    S    
C19   F3    S    
C18   C19   A    
C23   C26   S    
C1    O2    A    
C15   C37   A    
O1    Zn1   S    
O2    Zn2   S    
C3    C38   A    
C8    C9    A    
C12   C36   S    
C9    C10   A    
C27   H5    S    
C1    C22   S    
C21   C22   A    
C24   H1    S    
C14   F6    S    
C11   C15   A    
C38   I4    S    
O8    Zn2   S    
C36   C40   A    
C28   F4    S    
C24   C25   A    
C16   C17   A    
C33   N1    A    
O5    Zn1   S    
C2    C4    A    
C7    F1    S    
C29   C30   A    
C31   C32   A    
C13   I1    S    
C30   C31   A    
C8    I5    S    
C17   C18   A    
C32   N1    A    
C35   N2    A    
C34   O8    A    
C22   C24   A    
C16   H2    S    
C30   F5    S    
C23   O6    A    
C27   C32   A    
C33   H4    S    
C36   C39   A    
C9    F7    S    
C31   N2    A    
C4    C5    A    
C10   C13   A    
O6    Zn2   S    
C6    C7    A    
C29   H6    S    
C2    C3    A    
C25   C26   A    
C14   C37   A    
C5    C6    A    
C20   C26   A    
C15   I3    S    
O4    Zn2   S    
C33   C35   A    
C6    H9    S    
C1    O1    A    
C12   O4    A    
C10   C11   A    
C2    C40   A    
C20   C21   A    
C27   C28   A    
C34   O7    A    
N1    Zn2   S    
N2    Zn1   S    
C13   C14   A    
C12   O3    A    
C39   H8    S    
