data_mof_unit_18838.cif
_audit_creation_date              2012-10-26T21:24:51-0400
_audit_creation_method            fapswitch 2.2
_symmetry_space_group_name_H-M    P1
_symmetry_Int_Tables_number       1
_space_group_crystal_system       triclinic
_cell_length_a                    9.548271
_cell_length_b                    10.822773
_cell_length_c                    15.527123
_cell_angle_alpha                 89.845567
_cell_angle_beta                  74.327354
_cell_angle_gamma                 90.152856
_cell_volume                      1544.88258008

loop_
_atom_site_label
_atom_site_type_symbol
_atom_type_description
_atom_site_fract_x
_atom_site_fract_y
_atom_site_fract_z
_atom_type_partial_charge
C1    C     C_R   0.999015 0.262329 0.501494 0.549102
C2    C     C_R   0.222397 0.468734 0.043916 0.049572
C3    C     C_R   0.321378 0.510645 0.091148 0.037095
C4    C     C_R   0.918130 0.501185 0.672004 0.546011
C5    C     C_R   0.076731 0.443933 0.089251 -0.135016
C6    C     C_R   0.028754 0.456242 0.181758 -0.119962
C7    C     C_R   0.267454 0.528313 0.183898 -0.126824
C8    C     C_R   0.110531 0.064122 0.525199 0.002091
C9    C     C_R   0.993178 0.129273 0.510656 -0.000499
C10   C     C_R   0.865752 0.063892 0.510495 -0.143973
C11   C     C_R   0.866021 0.935133 0.511041 -0.128484
C12   C     C_R   0.669866 0.517179 0.905821 0.037341
C13   C     C_R   0.993590 0.870731 0.511909 -0.001487
C14   C     C_R   0.110454 0.937128 0.527001 0.051797
C15   C     C_3   0.270541 0.931172 0.483823 -0.023873
C16   C     C_R   0.999154 0.737695 0.502100 0.566628
C17   C     C_3   0.269511 0.071794 0.480189 -0.235568
C18   C     C_R   0.596521 0.583932 0.449496 0.220536
C19   C     C_R   0.549630 0.424850 0.555777 -0.014206
C20   C     C_R   0.400709 0.425014 0.555899 -0.011071
C21   C     C_R   0.449261 0.583021 0.448967 0.188891
C22   C     C_3   0.488714 0.593484 0.349765 -0.270080
C23   C     C_R   0.769500 0.556670 0.953393 0.047012
C24   C     C_3   0.646895 0.596583 0.350364 -0.063990
C25   C     C_R   0.081509 0.500223 0.327916 0.555264
C26   C     C_R   0.872086 0.511363 0.769817 0.001324
C27   C     C_R   0.124972 0.496607 0.229684 0.011276
C28   C     C_R   0.917802 0.571127 0.909506 -0.137667
C29   C     C_R   0.968872 0.548906 0.818129 -0.132487
C30   C     C_R   0.725325 0.492434 0.814078 -0.122621
C31   C     C_R   0.519001 0.504484 0.951299 0.037421
C32   C     C_R   0.470940 0.529393 0.044763 0.034132
C33   C     C_R   0.574602 0.569658 0.088957 -0.131718
C34   C     C_R   0.720470 0.582580 0.044114 -0.129139
C35   C     C_R   0.414518 0.467983 0.906528 -0.127495
C36   C     C_R   0.269720 0.450224 0.952155 -0.133113
Cu1   Cu    Cu3+1 0.140670 0.499980 0.500000 0.964882
Cu2   Cu    Cu3+1 0.859330 0.500020 0.500000 0.973395
H1    H     H_    0.795663 0.613321 0.080998 0.136154
H2    H     H_    0.462008 0.507745 0.318330 0.124116
H3    H     H_    0.333769 0.565733 0.222917 0.105476
H4    H     H_    0.448871 0.680880 0.327173 0.150390
H5    H     H_    0.708034 0.514701 0.317467 0.133881
H6    H     H_    0.917853 0.431098 0.215755 0.124719
H7    H     H_    0.194428 0.419858 0.915243 0.110907
H8    H     H_    0.993849 0.602177 0.945623 0.121523
H9    H     H_    0.082867 0.564304 0.784997 0.142482
H10   H     H_    0.656731 0.459333 0.774453 0.118729
H11   H     H_    0.547790 0.592545 0.158661 0.115470
H12   H     H_    0.000966 0.411274 0.053428 0.114264
H13   H     H_    0.439873 0.451465 0.835783 0.104466
H14   H     H_    0.768759 0.111326 0.504983 0.151459
H15   H     H_    0.769141 0.886886 0.505820 0.191519
H16   H     H_    0.297738 0.886866 0.416827 0.140529
H17   H     H_    0.330483 0.117343 0.523100 0.161076
H18   H     H_    0.292700 0.109138 0.410944 0.131748
H19   H     H_    0.585973 0.362076 0.599559 0.117152
H20   H     H_    0.325328 0.362530 0.599824 0.117311
I1    I     I_    0.385289 0.862503 0.575033 -0.403168
I2    I     I_    0.750449 0.770827 0.309535 -0.419475
N1    N     N_R   0.648210 0.500930 0.499430 -0.244412
N2    N     N_R   0.352300 0.500890 0.499430 -0.232545
O1    O     O_R   0.118810 0.319640 0.500000 -0.506798
O2    O     O_R   0.881230 0.319680 0.499990 -0.515519
O3    O     O_R   0.055580 0.499970 0.629840 -0.500059
O4    O     O_R   0.818000 0.500010 0.629830 -0.507856
O5    O     O_R   0.118770 0.680320 0.500010 -0.480763
O6    O     O_R   0.881190 0.680360 0.500000 -0.477868
O7    O     O_R   0.182000 0.499990 0.370170 -0.515168
O8    O     O_R   0.944420 0.500030 0.370160 -0.494234

loop_
_geom_bond_atom_site_label_1
_geom_bond_atom_site_label_2
_ccdc_geom_bond_type
C3    C32   A    
C4    C26   S    
Cu2   O8    S    
C18   N1    A    
C23   C28   A    
Cu1   Cu2   S    
C16   O6    A    
Cu1   O7    S    
C2    C3    A    
C25   C27   S    
C18   C21   A    
C9    C10   A    
C17   H17   S    
C3    C7    A    
C6    C27   A    
C11   H15   S    
C24   I2    S    
C23   C34   A    
C10   H14   S    
C32   C33   A    
Cu2   N1    S    
C14   C15   S    
C33   C34   A    
C22   H2    S    
C36   H7    S    
C16   O5    A    
C6    H6    S    
C13   C14   A    
C19   H19   S    
C8    C17   S    
C4    O4    A    
C11   C13   A    
C17   H18   S    
C28   H8    S    
C21   N2    A    
C22   H4    S    
C29   H9    S    
C18   C24   S    
Cu1   O5    S    
C22   C24   S    
C30   H10   S    
C28   C29   A    
Cu1   O1    S    
Cu2   O6    S    
C26   C30   A    
Cu2   O2    S    
C7    H3    S    
C12   C31   A    
C35   H13   S    
C5    C6    A    
C19   N1    A    
C31   C35   A    
C5    H12   S    
C2    C5    A    
C25   O7    A    
C10   C11   A    
C20   H20   S    
C34   H1    S    
C1    O2    A    
C1    O1    A    
C7    C27   A    
C26   C29   A    
Cu2   O4    S    
C15   H16   S    
C13   C16   S    
C2    C36   A    
C15   C17   S    
C24   H5    S    
Cu1   N2    S    
C4    O3    A    
C8    C9    A    
C12   C23   A    
C25   O8    A    
C8    C14   A    
C12   C30   A    
C21   C22   S    
C15   I1    S    
C31   C32   A    
C20   N2    A    
C1    C9    S    
C19   C20   A    
C33   H11   S    
C35   C36   A    
Cu1   O3    S    
