data_mof_unit_14263.cif
_audit_creation_date              2012-12-10T17:55:52-0500
_audit_creation_method            fapswitch 2.2
_symmetry_space_group_name_H-M    P1
_symmetry_Int_Tables_number       1
_space_group_crystal_system       triclinic
_cell_length_a                    11.041286
_cell_length_b                    10.760043
_cell_length_c                    9.574532
_cell_angle_alpha                 89.39647
_cell_angle_beta                  103.392671
_cell_angle_gamma                 91.10273
_cell_volume                      1106.33927706

loop_
_atom_site_label
_atom_site_type_symbol
_atom_type_description
_atom_site_fract_x
_atom_site_fract_y
_atom_site_fract_z
_atom_type_partial_charge
C1    C     C_R   0.499593 0.262562 0.500454 0.906686
C2    C     C_R   0.500407 0.737438 0.499546 0.906758
C3    C     C_R   0.262528 0.500924 0.440349 0.831762
C4    C     C_R   0.737472 0.499074 0.559651 0.831731
C5    C     C_R   0.421543 0.423234 0.055702 0.010308
C6    C     C_R   0.578462 0.576760 0.944299 0.010320
C7    C     C_R   0.421335 0.422254 0.907626 0.096150
C8    C     C_R   0.578680 0.577731 0.092377 0.096147
C9    C     C_2   0.126655 0.492400 0.402731 0.110730
C10   C     C_2   0.873345 0.507586 0.597266 0.110733
C11   C     C_2   0.062192 0.527592 0.498488 0.180115
C12   C     C_2   0.937802 0.472396 0.501502 0.180075
C13   C     C_R   0.399185 0.063584 0.413095 0.202471
C14   C     C_R   0.600814 0.936415 0.586906 0.202505
C15   C     C_R   0.400041 0.934002 0.411416 0.241076
C16   C     C_R   0.599958 0.065998 0.588585 0.241106
C17   C     C_R   0.500743 0.871353 0.498584 -0.235080
C18   C     C_R   0.499257 0.128646 0.501417 -0.235128
Cu1   Cu    Cu3+1 0.500000 0.500020 0.640660 1.071353
Cu2   Cu    Cu3+1 0.500000 0.499980 0.359340 1.071364
H1    H     H_    0.359039 0.361863 0.097063 0.177027
H2    H     H_    0.640980 0.638116 0.902940 0.177032
N1    N     N_R   0.500030 0.500030 0.852080 -0.217665
N2    N     N_R   0.499970 0.499970 0.147920 -0.217657
O1    O     O_R   0.499990 0.319660 0.618740 -0.552953
O2    O     O_R   0.500010 0.680340 0.381260 -0.552808
O3    O     O_R   0.499990 0.319630 0.381170 -0.563125
O4    O     O_R   0.500010 0.680370 0.618830 -0.563164
O5    O     O_R   0.320690 0.500020 0.575130 -0.569778
O6    O     O_R   0.679310 0.499980 0.424870 -0.569919
O7    O     O_R   0.320680 0.499990 0.337560 -0.545075
O8    O     O_R   0.679320 0.500010 0.662440 -0.545045
Br1   Br    Br    0.876920 0.321777 0.395795 -0.312545
Br2   Br    Br    0.123068 0.678211 0.604197 -0.312606
Br3   Br    Br    0.950768 0.548490 0.794120 -0.232864
Br4   Br    Br    0.049246 0.451457 0.205884 -0.232883
C19   C     C_2   0.334503 0.334387 0.817491 0.907663
O9    O     O_2   0.368181 0.229326 0.799908 -0.542805
O10   O     O_R   0.210565 0.367460 0.764320 -0.706537
H3    H     H_    0.158759 0.298411 0.706893 0.359140
C20   C     C_2   0.665621 0.665495 0.182537 0.907567
O11   O     O_2   0.631998 0.770518 0.200425 -0.542798
O12   O     O_R   0.789594 0.632377 0.235373 -0.706455
H4    H     H_    0.841483 0.701370 0.292822 0.359154
Br5   Br    Br    0.258574 0.151489 0.299935 -0.330154
Br6   Br    Br    0.741426 0.848510 0.700066 -0.330114
Br7   Br    Br    0.261270 0.842575 0.294621 -0.285938
Br8   Br    Br    0.738728 0.157424 0.705382 -0.285871

loop_
_geom_bond_atom_site_label_1
_geom_bond_atom_site_label_2
_ccdc_geom_bond_type
C9    Br4   S    
Cu1   N1    S    
C11   C12   S    
C19   O9    D    
C3    C9    S    
Cu2   O3    S    
C9    C11   D    
C20   O11   D    
Cu1   Cu2   S    
C15   Br7   S    
C3    O7    A    
C1    O3    A    
C16   Br8   S    
C7    C19   S    
C19   O10   S    
Cu2   O6    S    
C2    C17   S    
C1    O1    A    
Cu1   O4    S    
C20   O12   S    
C14   C17   A    
C3    O5    A    
C1    C18   S    
C4    O8    A    
C5    N2    A    
C10   C12   D    
C13   C18   A    
C7    N1    A    
C6    N1    A    
C16   C18   A    
C8    N2    A    
C5    C7    A    
C13   C15   A    
O12   H4    S    
Cu1   O1    S    
C10   Br3   S    
C14   C16   A    
C2    O4    A    
Cu1   O8    S    
C4    C10   S    
Cu1   O5    S    
C5    H1    S    
C8    C20   S    
C13   Br5   S    
C2    O2    A    
O10   H3    S    
C15   C17   A    
C6    C8    A    
C14   Br6   S    
C12   Br1   S    
C11   Br2   S    
C4    O6    A    
Cu2   N2    S    
Cu2   O2    S    
Cu2   O7    S    
C6    H2    S    
