data_mof_unit_9153.cif
_audit_creation_date              2013-03-05T16:44:15-0500
_audit_creation_method            fapswitch 2.2
_symmetry_space_group_name_H-M    P1
_symmetry_Int_Tables_number       1
_space_group_crystal_system       triclinic
_cell_length_a                    23.381916
_cell_length_b                    10.659483
_cell_length_c                    9.836747
_cell_angle_alpha                 89.514908
_cell_angle_beta                  89.780556
_cell_angle_gamma                 90.367306
_cell_volume                      2451.54558165

loop_
_atom_site_label
_atom_site_type_symbol
_atom_site_description
_atom_site_fract_x
_atom_site_fract_y
_atom_site_fract_z
_atom_type_partial_charge
O1    O     O_R   0.500010 0.316790 0.614690 -0.630871
O2    O     O_R   0.500000 0.316760 0.385350 -0.614136
C1    C     C_R   0.500186 0.260318 0.500206 0.899460
O3    O     O_R   0.416160 0.499980 0.614700 -0.617566
O4    O     O_R   0.416150 0.499940 0.385360 -0.618177
C2    C     C_R   0.389401 0.500324 0.500334 0.865771
Zn1   Zn    Zn3+2 0.500000 0.500020 0.653130 0.967572
Zn2   Zn    Zn3+2 0.500000 0.499980 0.346870 0.984178
O5    O     O_R   0.500000 0.683240 0.614650 -0.574403
O6    O     O_R   0.499990 0.683210 0.385310 -0.627276
O7    O     O_R   0.583850 0.500060 0.614640 -0.635295
O8    O     O_R   0.583840 0.500020 0.385300 -0.563940
C3    C     C_R   0.498729 0.739619 0.499221 0.872938
C4    C     C_R   0.610691 0.500866 0.499746 0.926082
C5    C     C_R   0.880502 0.628248 0.469692 0.530207
N1    N     N_R   0.852573 0.520277 0.506794 -0.340878
C6    C     C_R   0.881084 0.414351 0.544749 0.491312
C7    C     C_R   0.940662 0.415279 0.550250 -0.013969
C8    C     C_R   0.970526 0.525461 0.511605 -0.021718
C9    C     C_R   0.940285 0.632856 0.470726 -0.035000
C10   C     C_R   0.970770 0.309290 0.594205 -0.167912
C11   C     C_R   0.030067 0.312069 0.599211 -0.176352
C12   C     C_R   0.060286 0.419833 0.557297 0.001192
C13   C     C_R   0.030640 0.527575 0.513151 -0.033763
C14   C     C_R   0.060938 0.636612 0.470454 -0.063778
C15   C     C_R   0.029902 0.746782 0.435918 -0.005325
C16   C     C_R   0.970070 0.742580 0.434471 -0.221112
C17   C     C_R   0.119758 0.422316 0.557882 0.483870
N2    N     N_R   0.148423 0.524253 0.507636 -0.349883
C18   C     C_R   0.121033 0.628801 0.461340 0.484774
O9    O     O_2   0.850381 0.730217 0.431712 -0.566588
O10   O     O_2   0.851624 0.309112 0.578191 -0.567214
H1    H     H_    0.948659 0.224164 0.625506 0.190336
H2    H     H_    0.052110 0.229001 0.634468 0.182725
O11   O     O_2   0.149045 0.323513 0.607296 -0.633028
O12   O     O_2   0.152125 0.722163 0.403699 -0.567738
H3    H     H_    0.946764 0.826829 0.407720 0.191330
C19   C     C_R   0.240254 0.571569 0.610904 -0.149498
H4    H     H_    0.218478 0.615494 0.695218 0.127886
C20   C     C_R   0.299422 0.563854 0.610211 -0.229704
H5    H     H_    0.323221 0.603498 0.694000 0.156359
C21   C     C_R   0.327478 0.506078 0.501442 -0.014791
C22   C     C_R   0.296084 0.456540 0.393071 -0.246745
H6    H     H_    0.317322 0.411864 0.308381 0.151088
C23   C     C_R   0.236797 0.463430 0.394622 -0.141560
H7    H     H_    0.212300 0.423899 0.311981 0.127236
C24   C     C_R   0.209108 0.520925 0.503543 0.346880
C25   C     C_R   0.763936 0.464804 0.394356 -0.202656
H8    H     H_    0.788569 0.427541 0.310584 0.167366
C26   C     C_R   0.704673 0.459481 0.390819 0.605265
C27   C     C_R   0.672870 0.506655 0.500112 -0.189818
C28   C     C_R   0.700803 0.560798 0.611295 -0.350621
H9    H     H_    0.676304 0.598766 0.695096 0.180919
C29   C     C_R   0.760312 0.566574 0.615285 0.057168
C30   C     C_R   0.791746 0.517429 0.505875 0.198578
C31   C     C_R   0.541440 0.062549 0.570125 0.023495
C32   C     C_R   0.500733 0.128720 0.497085 -0.067710
C33   C     C_R   0.465098 0.067389 0.404531 -0.268495
H10   H     H_    0.436248 0.120136 0.339897 0.155442
C34   C     C_R   0.463871 0.937426 0.402374 -0.027432
C35   C     C_R   0.498835 0.871578 0.495088 -0.079103
C36   C     C_R   0.539962 0.934832 0.570140 -0.022190
C37   C     C_3   0.557320 0.925456 0.715892 0.485068
C38   C     C_3   0.559480 0.067898 0.715465 -0.514208
H11   H     H_    0.599440 0.879725 0.730945 0.055137
H12   H     H_    0.526889 0.110057 0.782298 0.217009
H13   H     H_    0.603491 0.106345 0.726776 0.173760
C39   C     C_R   0.456029 0.444761 0.072501 0.187516
N3    N     N_R   0.499610 0.499140 0.142800 -0.103286
C40   C     C_R   0.540035 0.565549 0.071087 -0.076799
H14   H     H_    0.573006 0.616315 0.124898 0.159254
C41   C     C_R   0.540023 0.565615 0.926919 -0.060144
H15   H     H_    0.572963 0.616523 0.871589 0.153200
N4    N     N_R   0.499610 0.499180 0.857150 -0.119831
C42   C     C_R   0.456212 0.444236 0.929382 0.156822
C43   C     C_3   0.440771 0.308109 0.927460 -0.230020
C44   C     C_3   0.438554 0.310163 0.082052 -0.543606
H16   H     H_    0.477006 0.251491 0.890143 0.161748
H17   H     H_    0.395159 0.298374 0.127119 0.190340
H18   H     H_    0.471878 0.250559 0.129801 0.222377
F1    F     F_    0.678689 0.405756 0.282475 -0.654572
C45   C     C_R   0.788692 0.625118 0.733254 0.130711
C46   C     C_R   0.823989 0.554100 0.819338 -0.151750
C47   C     C_R   0.850432 0.610152 0.930910 -0.136430
C48   C     C_R   0.841578 0.737095 0.957756 -0.091574
C49   C     C_R   0.806096 0.808087 0.873299 -0.126992
C50   C     C_R   0.779558 0.752355 0.761638 -0.120888
H19   H     H_    0.830444 0.455220 0.801330 0.169056
H20   H     H_    0.877575 0.555022 0.996948 0.140846
H21   H     H_    0.862022 0.780290 0.044277 0.146956
H22   H     H_    0.799123 0.906307 0.894398 0.147658
H23   H     H_    0.752217 0.808393 0.696834 0.142811
C51   C     C_R   0.423265 0.873910 0.310493 0.121500
C52   C     C_R   0.436854 0.860440 0.172249 -0.092249
C53   C     C_R   0.399502 0.796238 0.086162 -0.127482
C54   C     C_R   0.348115 0.746926 0.137208 -0.133760
C55   C     C_R   0.333996 0.761869 0.274362 -0.096188
C56   C     C_R   0.371636 0.824293 0.361268 -0.164688
H24   H     H_    0.476681 0.897858 0.131906 0.155680
H25   H     H_    0.410430 0.784555 0.979989 0.172087
H26   H     H_    0.319209 0.697339 0.070483 0.124950
H27   H     H_    0.293987 0.724621 0.313463 0.170444
H28   H     H_    0.360667 0.833895 0.467756 0.123836
F2    F     F_    0.513922 0.878709 0.798595 -0.667978
C57   C     C_R   0.384740 0.279618 0.857195 0.211519
C58   C     C_R   0.383021 0.184646 0.758925 -0.125901
C59   C     C_R   0.332217 0.157013 0.690880 -0.182318
C60   C     C_R   0.282446 0.222936 0.721170 -0.073583
C61   C     C_R   0.283435 0.317064 0.819164 -0.117084
C62   C     C_R   0.334359 0.346142 0.886442 -0.172760
H29   H     H_    0.421013 0.131710 0.734736 0.145584
H30   H     H_    0.331417 0.084079 0.614958 0.141683
H31   H     H_    0.243160 0.200742 0.668741 0.178472
H32   H     H_    0.244804 0.368225 0.842279 0.152514
H33   H     H_    0.334448 0.420317 0.960995 0.116255
C63   C     C_R   0.057609 0.870352 0.411023 0.189800
C64   C     C_R   0.090642 0.926498 0.513196 -0.097927
C65   C     C_R   0.117680 0.041799 0.489115 -0.127274
C66   C     C_R   0.110463 0.104003 0.364771 -0.082802
C67   C     C_R   0.076416 0.050373 0.263931 -0.141424
C68   C     C_R   0.050044 0.933865 0.286728 -0.142591
H34   H     H_    0.096241 0.879740 0.610397 0.120736
H35   H     H_    0.144197 0.082642 0.567136 0.170836
H36   H     H_    0.131176 0.193729 0.346612 0.144595
H37   H     H_    0.070709 0.098771 0.167818 0.134981
H38   H     H_    0.024183 0.892702 0.207397 0.127185

loop_
_geom_bond_atom_site_label_1
_geom_bond_atom_site_label_2
_geom_bond_distance
_ccdc_geom_bond_type
C25   C30   1.397171 A    
C57   C62   1.408872 A    
C37   H11   1.111528 S    
C43   C57   1.513842 S    
C7    C10   1.401156 A    
C59   H30   1.082705 S    
C8    C9    1.406036 A    
C64   H34   1.083277 S    
C55   C56   1.398582 A    
C66   H36   1.082463 S    
C31   C32   1.387426 A    
C39   C42   1.407868 A    
Zn1   O7    1.995369 S    
C15   C16   1.399545 A    
C51   C52   1.404060 A    
N2    C24   1.420027 S    
C46   C47   1.398344 A    
C17   N2    1.361336 A    
C43   H16   1.106673 S    
C49   H22   1.082323 S    
C45   C50   1.404539 A    
C19   H4    1.082933 S    
O7    C4    1.290578 A    
C10   H1    1.083285 S    
C58   C59   1.396735 A    
C33   C34   1.385792 A    
C56   H28   1.083328 S    
C14   C18   1.410688 A    
C60   C61   1.397389 A    
C7    C8    1.411167 A    
C23   C24   1.397724 A    
O5    C3    1.280705 A    
C65   C66   1.397679 A    
C47   C48   1.397438 A    
C53   C54   1.398176 A    
C17   O11   1.348146 S    
C39   N3    1.362784 A    
C59   C60   1.395780 A    
C31   C38   1.493588 S    
C40   H14   1.081648 S    
N2    C18   1.364649 A    
C55   H27   1.081953 S    
C41   H15   1.081816 S    
N3    C40   1.367483 A    
C34   C51   1.478307 S    
C20   C21   1.401905 A    
C46   H19   1.081705 S    
O1    Zn1   1.992544 S    
C54   H26   1.082464 S    
C52   C53   1.398572 A    
O3    Zn1   1.997875 S    
C28   C29   1.393124 A    
C26   C27   1.403377 A    
Zn1   N4    2.006823 S    
C58   H29   1.082218 S    
C44   H17   1.111667 S    
C5    C9    1.398463 A    
C11   H2    1.082584 S    
N4    C42   1.362842 A    
C27   C28   1.402548 A    
C38   H13   1.111573 S    
C13   C14   1.417063 A    
C41   N4    1.367489 A    
C63   C68   1.404882 A    
C49   C50   1.398545 A    
N1    C6    1.364969 A    
C14   C15   1.423796 A    
C48   C49   1.397797 A    
C34   C35   1.412441 A    
O1    C1    1.281424 A    
C38   H12   1.104716 S    
C60   H31   1.081052 S    
C42   C43   1.493337 S    
C36   C37   1.494267 S    
C4    C27   1.454800 S    
Zn2   O8    1.997873 S    
C54   C55   1.398380 A    
C6    C7    1.394278 A    
Zn2   N3    2.007536 S    
C12   C17   1.390698 A    
C43   C44   1.521721 S    
C66   C67   1.397964 A    
C22   C23   1.388707 A    
C19   C24   1.395572 A    
C61   H32   1.082523 S    
C1    C32   1.403503 S    
O3    C2    1.289352 A    
C20   H5    1.083498 S    
O8    C4    1.291175 A    
C22   H6    1.083495 S    
C2    C21   1.449585 S    
C31   C36   1.361624 A    
C21   C22   1.401634 A    
C29   C45   1.479605 S    
C50   H23   1.083250 S    
C67   C68   1.399024 A    
C44   H18   1.111539 S    
C39   C44   1.491369 S    
Zn1   O5    1.986225 S    
C29   C30   1.407601 A    
C25   H8    1.083234 S    
C53   H25   1.082649 S    
O2    Zn2   1.986223 S    
C37   F2    1.385696 S    
O6    C3    1.276462 A    
O4    Zn2   1.995370 S    
C48   H21   1.082488 S    
C5    O9    1.349810 S    
C9    C16   1.400273 A    
C57   C58   1.406143 A    
C18   O12   1.348490 S    
O2    C1    1.275552 A    
C33   H10   1.085123 S    
N1    C30   1.422427 S    
C68   H38   1.083124 S    
C64   C65   1.396542 A    
C19   C20   1.386417 A    
C32   C33   1.399801 A    
O4    C2    1.290343 A    
C52   H24   1.083288 S    
C16   H3    1.084460 S    
C51   C56   1.403281 A    
C25   C26   1.387059 A    
C67   H37   1.082318 S    
C63   C64   1.405377 A    
C8    C13   1.405755 A    
C65   H35   1.081118 S    
C35   C36   1.389216 A    
C15   C63   1.482243 S    
C12   C13   1.411435 A    
C37   C38   1.518839 S    
C23   H7    1.082933 S    
C3    C35   1.406850 S    
Zn2   O6    1.992546 S    
C45   C46   1.404896 A    
C47   H20   1.082394 S    
C61   C62   1.398771 A    
C6    O10   1.350272 S    
C11   C12   1.402886 A    
C40   C41   1.418136 A    
C10   C11   1.387668 A    
C62   H33   1.082948 S    
C5    N1    1.365907 A    
C26   F1    1.357854 S    
C28   H9    1.084646 S    
