data_mof_unit_50033.cif
_audit_creation_date              2012-12-10T18:35:00-0500
_audit_creation_method            fapswitch 2.2
_symmetry_space_group_name_H-M    P1
_symmetry_Int_Tables_number       1
_space_group_crystal_system       triclinic
_cell_length_a                    15.115426
_cell_length_b                    13.854294
_cell_length_c                    10.776807
_cell_angle_alpha                 89.948876
_cell_angle_beta                  90.261356
_cell_angle_gamma                 89.953107
_cell_volume                      2256.78433237

loop_
_atom_site_label
_atom_site_type_symbol
_atom_type_description
_atom_site_fract_x
_atom_site_fract_y
_atom_site_fract_z
_atom_type_partial_charge
C1    C     C_R   0.329823 0.499862 0.504714 0.785447
C2    C     C_R   0.670129 0.499856 0.495628 0.757855
C3    C     C_R   0.232912 0.499960 0.510206 -0.058875
C4    C     C_R   0.766916 0.500040 0.490431 -0.052260
C5    C     C_R   0.184219 0.424334 0.567300 0.087597
C6    C     C_R   0.815593 0.426040 0.430123 0.085994
C7    C     C_R   0.091832 0.426465 0.560470 -0.197238
C8    C     C_R   0.907979 0.428082 0.436669 -0.197340
C9    C     C_R   0.048022 0.503559 0.503429 0.081635
C10   C     C_R   0.951707 0.503636 0.496888 0.082506
C11   C     C_R   0.541706 0.107848 0.595365 -0.290471
C12   C     C_R   0.458696 0.108027 0.404375 -0.289916
C13   C     C_R   0.541364 0.209334 0.593170 0.067140
C14   C     C_R   0.458833 0.209505 0.406684 0.069818
C15   C     C_R   0.500210 0.054736 0.499878 0.133650
C16   C     C_R   0.431532 0.892319 0.442929 -0.285935
C17   C     C_R   0.568697 0.892019 0.557026 -0.284389
C18   C     C_R   0.433102 0.790799 0.443162 0.091135
C19   C     C_R   0.566964 0.790500 0.556869 0.089001
C20   C     C_R   0.500163 0.945387 0.499929 0.132912
C21   C     C_R   0.502838 0.500015 0.262462 0.786508
C22   C     C_R   0.502813 0.499960 0.737562 0.790238
C23   C     C_R   0.646198 0.596989 0.130231 -0.184554
C24   C     C_R   0.645989 0.597258 0.871228 -0.186383
C25   C     C_R   0.713199 0.644122 0.065599 -0.132503
C26   C     C_R   0.713076 0.644296 0.936506 -0.146131
C27   C     C_R   0.576701 0.549998 0.934780 0.101711
C28   C     C_R   0.576760 0.549951 0.065994 0.092281
C29   C     C_R   0.508871 0.499787 0.128870 -0.098908
C30   C     C_R   0.508859 0.499702 0.871208 -0.096911
C31   C     C_R   0.445385 0.446940 0.063701 -0.207713
C32   C     C_R   0.445384 0.446879 0.935714 -0.209490
C33   C     C_R   0.095924 0.579893 0.452638 -0.176399
C34   C     C_R   0.903709 0.578448 0.551188 -0.175391
C35   C     C_R   0.187716 0.577754 0.455163 -0.219518
C36   C     C_R   0.811935 0.576305 0.548764 -0.225782
Cu1   Cu    Cu3+1 0.500000 0.596430 0.500000 0.933173
Cu2   Cu    Cu3+1 0.500000 0.403570 0.500000 0.918996
H1    H     H_    0.394346 0.407278 0.112331 0.140251
H2    H     H_    0.394340 0.407186 0.886563 0.138705
H3    H     H_    0.375985 0.928467 0.399557 0.123184
H4    H     H_    0.624275 0.927925 0.600432 0.123157
H5    H     H_    0.380175 0.751653 0.397951 0.115754
H6    H     H_    0.619805 0.751120 0.602191 0.111496
H7    H     H_    0.650548 0.596374 0.230368 0.145457
H8    H     H_    0.650177 0.596868 0.771142 0.135777
H9    H     H_    0.766014 0.679700 0.115942 0.133408
H10   H     H_    0.765784 0.679999 0.886659 0.126480
H11   H     H_    0.062195 0.639910 0.408498 0.133814
H12   H     H_    0.937354 0.637199 0.597921 0.133511
H13   H     H_    0.223517 0.636449 0.411875 0.146321
H14   H     H_    0.776000 0.633696 0.594654 0.139413
H15   H     H_    0.053601 0.368783 0.602126 0.128584
H16   H     H_    0.946243 0.371567 0.392515 0.127946
H17   H     H_    0.573435 0.071773 0.672674 0.129649
H18   H     H_    0.427044 0.072098 0.327018 0.128608
H19   H     H_    0.574208 0.248574 0.666784 0.123063
H20   H     H_    0.425977 0.248871 0.333046 0.117908
N1    N     N_R   0.500000 0.258690 0.500000 -0.165564
N2    N     N_R   0.500000 0.741330 0.500000 -0.169789
O1    O     O_R   0.371460 0.581430 0.500010 -0.586658
O2    O     O_R   0.628540 0.581430 0.499990 -0.602816
O3    O     O_R   0.371470 0.418560 0.500010 -0.582674
O4    O     O_R   0.628530 0.418560 0.499990 -0.579395
O5    O     O_R   0.500000 0.581450 0.319650 -0.578905
O6    O     O_R   0.500000 0.581450 0.680350 -0.577249
O7    O     O_R   0.500010 0.418580 0.319650 -0.591628
O8    O     O_R   0.499990 0.418580 0.680350 -0.592104
C37   C     C_3   0.226601 0.343617 0.641765 -0.400058
C38   C     C_3   0.235248 0.251590 0.563686 -0.320170
C39   C     C_3   0.282174 0.171785 0.636213 -0.828987
H21   H     H_    0.349342 0.195683 0.664776 0.266701
H22   H     H_    0.243613 0.152489 0.720126 0.242234
H23   H     H_    0.288683 0.106664 0.576933 0.240493
H24   H     H_    0.168378 0.225776 0.536068 0.201108
H25   H     H_    0.273086 0.266796 0.477779 0.232166
H26   H     H_    0.291727 0.365773 0.680121 0.205352
H27   H     H_    0.185103 0.327867 0.724348 0.179392
C40   C     C_3   0.772978 0.347243 0.352932 -0.395766
C41   C     C_3   0.764270 0.253526 0.427815 -0.321462
C42   C     C_3   0.715929 0.175995 0.353403 -0.824555
H28   H     H_    0.648681 0.201314 0.327155 0.267648
H29   H     H_    0.753445 0.158243 0.268026 0.242677
H30   H     H_    0.709460 0.109600 0.410441 0.239689
H31   H     H_    0.831173 0.226336 0.453192 0.200859
H32   H     H_    0.727396 0.267099 0.514977 0.234353
H33   H     H_    0.707783 0.370609 0.315765 0.209261
H34   H     H_    0.814274 0.333223 0.269659 0.181868

loop_
_geom_bond_atom_site_label_1
_geom_bond_atom_site_label_2
_ccdc_geom_bond_type
C30   C32   A    
C4    C36   A    
C23   H7    S    
C37   H26   S    
C24   C27   A    
C40   H33   S    
C42   H28   S    
C14   N1    A    
Cu1   Cu2   S    
C28   C29   A    
C24   C26   A    
C13   H19   S    
C33   H11   S    
C17   C20   A    
C17   H4    S    
C22   O6    A    
C41   H32   S    
C17   C19   A    
C11   C15   A    
Cu1   O5    S    
C5    C37   S    
C38   C39   S    
C9    C10   S    
C25   H9    S    
C36   H14   S    
C26   H10   S    
C32   H2    S    
C21   O7    A    
C27   C30   A    
C9    C33   A    
C37   H27   S    
C1    O3    A    
C40   H34   S    
C42   H29   S    
C2    O4    A    
Cu1   O2    S    
Cu2   O4    S    
C15   C20   S    
C14   H20   S    
C34   H12   S    
C4    C6    A    
C8    H16   S    
C39   H22   S    
C6    C8    A    
C25   C26   A    
C21   C29   S    
Cu2   N1    S    
C1    C3    S    
C2    C4    S    
C41   H31   S    
C31   C32   A    
C12   C15   A    
C3    C35   A    
C16   C20   A    
Cu1   O6    S    
C10   C34   A    
C16   C18   A    
C23   C28   A    
C22   O8    A    
C12   H18   S    
C18   N2    A    
C12   C14   A    
C35   H13   S    
C7    H15   S    
C38   H24   S    
C42   H30   S    
C11   H17   S    
C19   H6    S    
C5    C7    A    
Cu2   O3    S    
C7    C9    A    
C22   C30   S    
C21   O5    A    
Cu2   O8    S    
C41   C42   S    
C3    C5    A    
C1    O1    A    
C39   H23   S    
Cu1   O1    S    
C13   N1    A    
C19   N2    A    
C24   H8    S    
C39   H21   S    
C29   C31   A    
C18   H5    S    
C38   H25   S    
C11   C13   A    
C6    C40   S    
C33   C35   A    
C31   H1    S    
C34   C36   A    
C23   C25   A    
C37   C38   S    
Cu1   N2    S    
C40   C41   S    
Cu2   O7    S    
C8    C10   A    
C27   C28   A    
C16   H3    S    
C2    O2    A    
