data_mof_unit_36658.cif
_audit_creation_date              2012-12-10T18:44:27-0500
_audit_creation_method            fapswitch 2.2
_symmetry_space_group_name_H-M    P1
_symmetry_Int_Tables_number       1
_space_group_crystal_system       triclinic
_cell_length_a                    12.887403
_cell_length_b                    10.6779
_cell_length_c                    9.912554
_cell_angle_alpha                 92.450408
_cell_angle_beta                  100.51846
_cell_angle_gamma                 90.641951
_cell_volume                      1339.67162505

loop_
_atom_site_label
_atom_site_type_symbol
_atom_type_description
_atom_site_fract_x
_atom_site_fract_y
_atom_site_fract_z
_atom_type_partial_charge
C1    C     C_R   0.500822 0.260644 0.498196 0.927935
C2    C     C_R   0.702824 0.495370 0.530620 0.916306
C3    C     C_R   0.817607 0.484163 0.554634 -0.034716
C4    C     C_R   0.182393 0.515836 0.445360 -0.034707
C5    C     C_R   0.011117 0.443980 0.323772 -0.200734
C6    C     C_R   0.988883 0.556027 0.676214 -0.200727
C7    C     C_R   0.117424 0.465520 0.323773 0.135641
C8    C     C_R   0.882578 0.534478 0.676219 0.135616
C9    C     C_R   0.135941 0.565602 0.554200 0.114296
C10   C     C_R   0.864057 0.434405 0.445788 0.114302
C11   C     C_R   0.031213 0.531567 0.557702 0.056294
C12   C     C_R   0.499179 0.739356 0.501805 0.927941
C13   C     C_R   0.968785 0.468441 0.442284 0.056295
C14   C     C_R   0.411464 0.060846 0.425125 0.122074
C15   C     C_R   0.588534 0.939154 0.574880 0.122076
C16   C     C_R   0.412418 0.930703 0.425261 -0.064643
C17   C     C_R   0.587579 0.069296 0.574743 -0.064629
C18   C     C_3   0.804239 0.342403 0.336359 -0.796020
C19   C     C_3   0.195758 0.657607 0.663625 -0.796032
C20   C     C_3   0.842287 0.571986 0.805207 -0.871449
C21   C     C_3   0.157718 0.428002 0.194790 -0.871490
C22   C     C_3   0.311250 0.125567 0.360383 -0.868137
C23   C     C_R   0.499062 0.872022 0.504033 -0.163581
C24   C     C_3   0.688747 0.874432 0.639625 -0.868100
C25   C     C_2   0.322909 0.856475 0.342062 0.932736
C26   C     C_2   0.677088 0.143523 0.657937 0.932714
C27   C     C_3   0.592699 0.709418 0.893684 -0.836516
C28   C     C_3   0.407264 0.290605 0.106316 -0.836465
C29   C     C_R   0.500938 0.127978 0.495968 -0.163567
C30   C     C_R   0.544249 0.597100 0.088351 -0.081440
C31   C     C_R   0.455752 0.402900 0.911650 -0.081441
C32   C     C_R   0.544350 0.597979 0.945403 0.218567
C33   C     C_R   0.455642 0.402026 0.054597 0.218565
C34   C     C_R   0.297176 0.504629 0.469379 0.916314
H1    H     H_    0.962332 0.404310 0.230955 0.163539
H2    H     H_    0.219971 0.610241 0.761727 0.228119
H3    H     H_    0.907595 0.591546 0.893871 0.228846
H4    H     H_    0.798180 0.659537 0.788272 0.234068
H5    H     H_    0.793256 0.495636 0.835348 0.268005
H6    H     H_    0.092409 0.408452 0.106129 0.228853
H7    H     H_    0.206757 0.504344 0.164645 0.268007
H8    H     H_    0.201817 0.340446 0.211721 0.234070
H9    H     H_    0.311285 0.226989 0.388250 0.215337
H10   H     H_    0.299053 0.112908 0.246961 0.272485
H11   H     H_    0.242273 0.084490 0.396664 0.240812
H12   H     H_    0.037667 0.595700 0.769030 0.163541
H13   H     H_    0.688714 0.773014 0.611744 0.215336
H14   H     H_    0.757731 0.915519 0.603358 0.240809
H15   H     H_    0.700937 0.887076 0.753051 0.272467
H16   H     H_    0.234976 0.815197 0.155078 0.339714
H17   H     H_    0.765029 0.184794 0.844923 0.339705
H18   H     H_    0.636142 0.678262 0.813355 0.269902
H19   H     H_    0.530127 0.775710 0.853288 0.264516
H20   H     H_    0.650007 0.759596 0.976179 0.208542
H21   H     H_    0.363869 0.321786 0.186694 0.269948
H22   H     H_    0.349891 0.240479 0.023824 0.208530
H23   H     H_    0.579341 0.674552 0.155977 0.159219
H24   H     H_    0.469822 0.224256 0.146664 0.264491
H25   H     H_    0.420658 0.325447 0.844025 0.159222
H26   H     H_    0.733275 0.300606 0.366509 0.277652
H27   H     H_    0.780020 0.389774 0.238262 0.228123
H28   H     H_    0.854923 0.261779 0.319943 0.228502
H29   H     H_    0.266725 0.699397 0.633477 0.277651
H30   H     H_    0.145075 0.738235 0.680032 0.228506
N1    N     N_R   0.499970 0.499970 0.857200 -0.102621
N2    N     N_R   0.500030 0.500030 0.142800 -0.102634
O1    O     O_R   0.499990 0.316750 0.614620 -0.621581
O2    O     O_R   0.296921 0.870827 0.200472 -0.800107
O3    O     O_2   0.727898 0.216281 0.602635 -0.675896
O4    O     O_R   0.703072 0.129177 0.799532 -0.800092
O5    O     O_R   0.500010 0.683250 0.385380 -0.621579
O6    O     O_R   0.499990 0.316780 0.385290 -0.621949
O7    O     O_R   0.500010 0.683220 0.614710 -0.621943
O8    O     O_R   0.346360 0.499970 0.595710 -0.619024
O9    O     O_R   0.653640 0.500030 0.404290 -0.619024
O10   O     O_R   0.346360 0.499990 0.366380 -0.614848
O11   O     O_R   0.653640 0.500010 0.633620 -0.614827
O12   O     O_2   0.272105 0.783706 0.397355 -0.675899
Zn1   Zn    Zn3+2 0.500000 0.499980 0.653120 0.950118
Zn2   Zn    Zn3+2 0.500000 0.500020 0.346880 0.950110

loop_
_geom_bond_atom_site_label_1
_geom_bond_atom_site_label_2
_ccdc_geom_bond_type
N1    Zn1   S    
C17   C29   A    
C28   H22   S    
C27   H20   S    
C12   C23   S    
C8    C20   S    
C17   C26   S    
C19   H2    S    
C30   H23   S    
C16   C25   S    
C31   N1    A    
C31   H25   S    
C9    C19   S    
C22   H10   S    
C19   H29   S    
C31   C33   A    
H17   O4    S    
O9    Zn2   S    
C5    C13   A    
C15   C23   A    
C12   O7    A    
C25   O2    S    
C4    C7    A    
O5    Zn2   S    
C28   H21   S    
C33   N2    A    
O11   Zn1   S    
C4    C34   S    
C1    O6    A    
C25   O12   D    
C24   H14   S    
O1    Zn1   S    
C3    C8    A    
C6    C11   A    
C5    C7    A    
C20   H5    S    
C18   H28   S    
C6    C8    A    
C7    C21   S    
C20   H4    S    
C22   H9    S    
C19   H30   S    
C1    C29   S    
O7    Zn1   S    
C9    C11   A    
C30   N2    A    
C34   O8    A    
C21   H7    S    
C18   H26   S    
C15   C24   S    
C12   O5    A    
C28   C33   S    
C16   C23   A    
O8    Zn1   S    
C26   O4    S    
C14   C16   A    
C14   C29   A    
C27   H18   S    
C24   H15   S    
C15   C17   A    
C6    H12   S    
C27   C32   S    
C24   H13   S    
O10   Zn2   S    
C10   C13   A    
C27   H19   S    
C18   H27   S    
C28   H24   S    
N2    Zn2   S    
C14   C22   S    
C2    C3    S    
O6    Zn2   S    
C2    O11   A    
C30   C32   A    
C20   H3    S    
C11   C13   A    
C21   H6    S    
C10   C18   S    
C5    H1    S    
C1    O1    A    
C21   H8    S    
C22   H11   S    
C3    C10   A    
C26   O3    D    
C4    C9    A    
H16   O2    S    
C2    O9    A    
C34   O10   A    
C32   N1    A    
