data_mof_unit_48935.cif
_audit_creation_date              2012-12-10T17:05:40-0500
_audit_creation_method            fapswitch 2.2
_symmetry_space_group_name_H-M    P1
_symmetry_Int_Tables_number       1
_space_group_crystal_system       triclinic
_cell_length_a                    15.90052
_cell_length_b                    11.075642
_cell_length_c                    9.863075
_cell_angle_alpha                 112.321454
_cell_angle_beta                  97.990365
_cell_angle_gamma                 90.877709
_cell_volume                      1586.8112667

loop_
_atom_site_label
_atom_site_type_symbol
_atom_type_description
_atom_site_fract_x
_atom_site_fract_y
_atom_site_fract_z
_atom_type_partial_charge
C1    C     C_R   0.493539 0.253199 0.438710 0.796654
C2    C     C_3   0.963317 0.474928 0.631841 -0.149025
C3    C     C_3   0.916717 0.503389 0.497471 0.076957
C4    C     C_3   0.952546 0.639418 0.505672 -0.238707
C5    C     C_3   0.052496 0.647958 0.533816 -0.272471
C6    C     C_1   0.824189 0.501269 0.495834 -0.031607
C7    C     C_1   0.175817 0.503992 0.501918 0.028733
C8    C     C_1   0.251316 0.502154 0.503893 -0.040376
C9    C     C_2   0.488826 0.111490 0.400157 -0.191470
C10   C     C_2   0.506941 0.068722 0.510637 -0.183016
C11   C     C_2   0.511314 0.888530 0.600213 -0.182909
C12   C     C_R   0.340435 0.500163 0.501382 0.833001
C13   C     C_2   0.492959 0.931530 0.489971 -0.176595
C14   C     C_2   0.508386 0.506312 0.077893 -0.092071
C15   C     C_2   0.496023 0.483058 0.914277 -0.005214
C16   C     C_R   0.506456 0.746792 0.561326 0.801316
C17   C     C_R   0.659595 0.499854 0.498571 0.828607
C18   C     C_3   0.059516 0.462910 0.620766 -0.433547
C19   C     C_3   0.034353 0.407555 0.337898 -0.101626
C20   C     C_3   0.936621 0.397986 0.349969 -0.434847
C21   C     C_1   0.748803 0.500212 0.495986 -0.099071
C22   C     C_3   0.082986 0.505133 0.495596 0.049425
Cu1   Cu    Cu3+1 0.514650 0.521810 0.644910 1.010363
Cu2   Cu    Cu3+1 0.485350 0.478190 0.355090 1.028003
H1    H     H_    0.468651 0.861492 0.379225 0.212439
H2    H     H_    0.915318 0.299607 0.342637 0.240210
N1    N     N_2   0.463320 0.445430 0.137380 -0.258676
N2    N     N_2   0.536720 0.554500 0.862620 -0.286491
O1    O     O_R   0.507820 0.332330 0.577400 -0.592112
O2    O     O_R   0.483070 0.295500 0.332660 -0.536610
O3    O     O_R   0.391820 0.518430 0.622420 -0.573315
O4    O     O_R   0.367070 0.481600 0.377680 -0.549704
O5    O     O_R   0.516930 0.704500 0.667340 -0.546052
O6    O     O_R   0.492180 0.667670 0.422600 -0.589275
O7    O     O_R   0.632930 0.518400 0.622320 -0.548660
O8    O     O_R   0.608180 0.481570 0.377580 -0.588502
C23   C     C_2   0.923975 0.358290 0.652221 0.867874
O9    O     O_2   0.887795 0.376397 0.759220 -0.564455
O10   O     O_R   0.929628 0.230755 0.551460 -0.704496
H3    H     H_    0.901039 0.162415 0.578573 0.358955
H4    H     H_    0.096951 0.527180 0.729600 0.181772
H5    H     H_    0.958474 0.561139 0.734659 0.186687
H6    H     H_    0.929964 0.642353 0.395067 0.216412
H7    H     H_    0.531043 0.138878 0.621371 0.210237
C24   C     C_2   0.536105 0.977981 0.758695 0.874945
O11   O     O_2   0.595351 0.953953 0.835563 -0.558355
O12   O     O_R   0.489665 0.086288 0.821327 -0.750452
H8    H     H_    0.512346 0.138464 0.929982 0.345981
C25   C     C_2   0.464615 0.021581 0.241828 0.880054
O13   O     O_2   0.404579 0.043678 0.164832 -0.518622
O14   O     O_R   0.512276 0.914678 0.179697 -0.755959
H9    H     H_    0.490004 0.861981 0.070999 0.346495
H10   H     H_    0.452740 0.402873 0.835787 0.193359
H11   H     H_    0.560865 0.574564 0.149417 0.173840
H12   H     H_    0.578123 0.630062 0.938193 0.224021
H13   H     H_    0.078737 0.363284 0.604791 0.242731
C26   C     C_2   0.386390 0.369841 0.054781 1.045958
O15   O     O_2   0.366906 0.269510 0.070704 -0.512003
O16   O     O_R   0.330093 0.414728 0.964994 -0.777985
H14   H     H_    0.277024 0.353345 0.915524 0.346406
C27   C     C_2   0.048635 0.459188 0.217545 0.880978
O17   O     O_2   0.121179 0.475499 0.195941 -0.540068
O18   O     O_R   0.980433 0.487859 0.131291 -0.730496
H15   H     H_    0.999519 0.521135 0.056996 0.368969
C28   C     C_2   0.067005 0.269620 0.291381 0.842192
O19   O     O_2   0.055475 0.200997 0.360222 -0.535034
O20   O     O_R   0.109101 0.219538 0.167895 -0.704051
H16   H     H_    0.127096 0.127844 0.149130 0.363176
H17   H     H_    0.895044 0.407364 0.254888 0.218731
H18   H     H_    0.074457 0.703907 0.654582 0.176999
C29   C     C_2   0.092909 0.727944 0.460217 0.899076
O21   O     O_2   0.049910 0.763509 0.371291 -0.536299
O22   O     O_R   0.180055 0.765554 0.499557 -0.742864
H19   H     H_    0.199975 0.818996 0.444731 0.353770
C30   C     C_2   0.918008 0.757115 0.616914 0.875008
O23   O     O_2   0.934564 0.782528 0.750124 -0.573935
O24   O     O_R   0.867136 0.837478 0.565485 -0.723552
H20   H     H_    0.847750 0.912987 0.649003 0.350241

loop_
_geom_bond_atom_site_label_1
_geom_bond_atom_site_label_2
_ccdc_geom_bond_type
C2    C18   S    
O22   H19   S    
C19   C20   S    
Cu2   N1    S    
C3    C6    S    
C25   O14   S    
C26   O15   D    
C7    C8    T    
C24   O11   D    
C5    H18   S    
Cu1   O1    S    
C19   C27   S    
C26   O16   S    
C27   O18   S    
C4    C30   S    
C16   O6    A    
C5    C22   S    
C28   O20   S    
Cu2   O6    S    
Cu1   Cu2   S    
C17   O8    A    
C14   N1    D    
C9    C10   D    
C18   H13   S    
O16   H14   S    
C12   O4    A    
C13   H1    S    
N2    H12   S    
C24   O12   S    
C10   H7    S    
O20   H16   S    
C19   C22   S    
C9    C25   S    
N1    C26   S    
C18   H4    S    
O10   H3    S    
C29   O22   S    
Cu1   O5    S    
O24   H20   S    
C6    C21   T    
C17   C21   S    
O14   H9    S    
Cu1   O3    S    
C30   O23   D    
Cu2   O4    S    
C23   O9    D    
C16   O5    A    
C11   C16   S    
O12   H8    S    
C8    C12   S    
C1    O1    A    
C1    C9    S    
C3    C20   S    
Cu2   O8    S    
Cu1   N2    S    
C30   O24   S    
C14   H11   S    
C28   O19   D    
Cu1   O7    S    
C12   O3    A    
C20   H17   S    
C11   C24   S    
C3    C4    S    
C15   H10   S    
C18   C22   S    
C4    C5    S    
C10   C13   S    
C4    H6    S    
C7    C22   S    
C2    C3    S    
C29   O21   D    
C5    C29   S    
C11   C13   D    
C2    C23   S    
C15   N2    D    
C20   H2    S    
C2    H5    S    
C1    O2    A    
C19   C28   S    
C27   O17   D    
Cu2   O2    S    
O18   H15   S    
C23   O10   S    
C25   O13   D    
C14   C15   S    
C17   O7    A    
