data_mof_unit_67784.cif
_audit_creation_date              2013-03-05T15:41:21-0500
_audit_creation_method            fapswitch 2.2
_symmetry_space_group_name_H-M    P1
_symmetry_Int_Tables_number       1
_space_group_crystal_system       triclinic
_cell_length_a                    7.902976
_cell_length_b                    8.697279
_cell_length_c                    10.881684
_cell_angle_alpha                 92.084753
_cell_angle_beta                  84.631637
_cell_angle_gamma                 93.670835
_cell_volume                      742.78977394

loop_
_atom_site_label
_atom_site_type_symbol
_atom_site_description
_atom_site_fract_x
_atom_site_fract_y
_atom_site_fract_z
_atom_type_partial_charge
O1    O     O_R   0.389250 0.738570 0.508370 -0.643018
O2    O     O_R   0.678390 0.711620 0.486510 -0.547523
C1    C     C_R   0.545010 0.793754 0.496347 0.876888
O3    O     O_R   0.355430 0.513500 0.696140 -0.634436
O4    O     O_R   0.644580 0.486550 0.674270 -0.532646
C2    C     C_R   0.498788 0.492771 0.741810 1.000721
Zn1   Zn    Zn3+2 0.306940 0.517990 0.514600 1.145117
Zn2   Zn    Zn3+2 0.693060 0.482010 0.485400 1.265997
O5    O     O_R   0.321610 0.288380 0.513490 -0.609388
O6    O     O_R   0.610750 0.261430 0.491630 -0.532757
O7    O     O_R   0.355420 0.513450 0.325730 -0.588511
O8    O     O_R   0.644570 0.486500 0.303860 -0.515135
C3    C     C_R   0.455375 0.206133 0.503243 0.888150
C4    C     C_R   0.499005 0.497258 0.258516 0.972801
C5    C     C_3   0.341976 0.584316 0.944206 0.621321
C6    C     C_3   0.327907 0.562835 0.087291 0.516866
C7    C     C_3   0.482581 0.312422 0.925073 0.434984
C8    C     C_3   0.673757 0.582233 0.917767 0.248678
C9    C     C_3   0.500462 0.490890 0.879021 -0.491858
C10   C     C_3   0.497513 0.489669 0.121846 -0.471837
C11   C     C_3   0.502175 0.312710 0.072082 0.420405
C12   C     C_3   0.662486 0.590288 0.065330 0.385200
C13   C     C_2   0.566614 0.957292 0.510120 0.255430
C14   C     C_2   0.436264 0.043396 0.487035 0.050590
N1    N     N_2   0.950330 0.457950 0.465890 0.136370
N2    N     N_2   0.049670 0.542050 0.534110 0.140634
O9    O     O_3   0.179875 0.545930 0.903869 -0.681281
H1    H     H_    0.173743 0.447103 0.858270 0.446941
O10   O     O_3   0.808524 0.526826 0.100671 -0.616953
H2    H     H_    0.906377 0.598101 0.071891 0.401135
N3    N     N_R   0.592850 0.201136 0.854531 0.248950
O11   O     O_R   0.686672 0.234431 0.753823 -0.268788
O12   O     O_R   0.564383 0.055259 0.876531 -0.234123
N4    N     N_R   0.654327 0.238399 0.111169 0.298713
O13   O     O_R   0.657563 0.208835 0.227216 -0.315339
O14   O     O_R   0.758995 0.162978 0.036250 -0.144596
O15   O     O_3   0.709719 0.022700 0.561105 -0.607445
H3    H     H_    0.786945 0.942222 0.577754 0.422744
N5    N     N_R   0.296443 0.982669 0.421295 0.202889
O16   O     O_R   0.142251 0.978806 0.474425 -0.275436
O17   O     O_R   0.321057 0.953158 0.303433 -0.262559
N6    N     N_R   0.989234 0.305028 0.458942 0.313250
O18   O     O_R   0.986589 0.231119 0.560969 -0.248600
O19   O     O_R   0.978303 0.227062 0.355514 -0.215371
O20   O     O_3   0.995931 0.683618 0.558530 -0.558658
H4    H     H_    0.087573 0.738462 0.601865 0.388271
O21   O     O_3   0.372806 0.742583 0.921255 -0.647932
H5    H     H_    0.333949 0.763339 0.839533 0.396092
O22   O     O_3   0.316519 0.708958 0.146951 -0.619757
H6    H     H_    0.210592 0.753534 0.125563 0.416839
N7    N     N_R   0.170417 0.470169 0.134079 0.234302
O23   O     O_R   0.106354 0.351919 0.074016 -0.184833
O24   O     O_R   0.077931 0.521015 0.230449 -0.309763
O25   O     O_3   0.316478 0.255792 0.903556 -0.716686
H7    H     H_    0.295591 0.146538 0.926974 0.441541
O26   O     O_3   0.360744 0.224307 0.127063 -0.640443
H8    H     H_    0.357082 0.234464 0.218195 0.366613
N8    N     N_R   0.824595 0.501218 0.863869 0.241879
O27   O     O_R   0.870347 0.374993 0.906482 -0.248843
O28   O     O_R   0.924193 0.562998 0.775050 -0.295057
N9    N     N_R   0.702264 0.741355 0.869766 0.294642
O29   O     O_R   0.833417 0.826076 0.903070 -0.233631
O30   O     O_R   0.644314 0.777093 0.767233 -0.367980
N10   N     N_R   0.662986 0.750438 0.121184 0.249685
O31   O     O_R   0.581973 0.859992 0.079220 -0.175685
O32   O     O_R   0.752047 0.785669 0.214224 -0.287772

loop_
_geom_bond_atom_site_label_1
_geom_bond_atom_site_label_2
_geom_bond_distance
_ccdc_geom_bond_type
N1    N6    1.381979 S    
O4    Zn2   2.054504 S    
Zn1   O7    2.054503 S    
C13   C14   1.358679 D    
N3    O12   1.301186 A    
C8    N9    1.493144 S    
O10   H2    0.993884 S    
C2    C9    1.495084 S    
C12   O10   1.401654 S    
C11   O26   1.413047 S    
C5    O9    1.408929 S    
N3    O11   1.295427 A    
C6    N7    1.496907 S    
C5    O21   1.409659 S    
Zn2   O8    2.049392 S    
N10   O31   1.300296 A    
N9    O29   1.304481 A    
N9    O30   1.300112 A    
O2    C1    1.304838 A    
N8    O27   1.292357 A    
N5    O17   1.297838 A    
C13   O15   1.386550 S    
O20   H4    0.988803 S    
O26   H8    0.990266 S    
C5    C9    1.629202 S    
Zn2   N1    2.047739 S    
O15   H3    0.989865 S    
Zn1   N2    2.047739 S    
N6    O19   1.299663 A    
O3    Zn1   2.049393 S    
O3    C2    1.304261 A    
C6    C10   1.601221 S    
C7    C9    1.641836 S    
C10   C12   1.608385 S    
O22   H6    0.994911 S    
N8    O28   1.297567 A    
N4    O14   1.297505 A    
O4    C2    1.310438 A    
C7    N3    1.488035 S    
O7    C4    1.303881 A    
O2    Zn2   2.007275 S    
N6    O18   1.300803 A    
N7    O24   1.301427 A    
C12   N10   1.499210 S    
N7    O23   1.299062 A    
C10   C11   1.614375 S    
C4    C10   1.487380 S    
O9    H1    0.977493 S    
C14   N5    1.434371 S    
C6    O22   1.410093 S    
Zn2   O6    1.987356 S    
N4    O13   1.300737 A    
N5    O16   1.297935 A    
Zn1   O5    2.007275 S    
O5    C3    1.307910 A    
O25   H7    0.992350 S    
C8    C9    1.621389 S    
O21   H5    0.993761 S    
C11   N4    1.503237 S    
N2    O20   1.337543 S    
O1    Zn1   1.987358 S    
N1    N2    1.303249 D    
C8    C12   1.599093 S    
C1    C13   1.425780 S    
C7    O25   1.409586 S    
C8    N8    1.485979 S    
C7    C11   1.621437 S    
C5    C6    1.567684 S    
C3    C14   1.420090 S    
O8    C4    1.303450 A    
O1    C1    1.289007 A    
O6    C3    1.286405 A    
N10   O32   1.302868 A    
