data_mof_unit_46360.cif
_audit_creation_date              2013-03-05T15:42:41-0500
_audit_creation_method            fapswitch 2.2
_symmetry_space_group_name_H-M    P1
_symmetry_Int_Tables_number       1
_space_group_crystal_system       triclinic
_cell_length_a                    7.77297
_cell_length_b                    8.571593
_cell_length_c                    27.229448
_cell_angle_alpha                 91.273782
_cell_angle_beta                  85.405203
_cell_angle_gamma                 93.79618
_cell_volume                      1804.14953919

loop_
_atom_site_label
_atom_site_type_symbol
_atom_site_description
_atom_site_fract_x
_atom_site_fract_y
_atom_site_fract_z
_atom_type_partial_charge
O1    O     O_R   0.389250 0.738570 0.503220 -0.615329
O2    O     O_R   0.610750 0.261430 0.496780 -0.617784
O3    O     O_R   0.678390 0.711630 0.494810 -0.628167
O4    O     O_R   0.321610 0.288370 0.505190 -0.632189
C1    C     C_R   0.545784 0.794704 0.497957 0.954402
C2    C     C_R   0.454106 0.205208 0.500926 0.995056
O5    O     O_R   0.355440 0.513440 0.575450 -0.587915
O6    O     O_R   0.644560 0.486560 0.424550 -0.598819
O7    O     O_R   0.644590 0.486500 0.567040 -0.575366
O8    O     O_R   0.355410 0.513500 0.432960 -0.629457
C3    C     C_R   0.501669 0.500033 0.594381 0.920311
C4    C     C_R   0.498061 0.494525 0.406008 0.979385
Zn1   Zn    Zn3+2 0.306940 0.517990 0.505620 0.974028
Zn2   Zn    Zn3+2 0.693060 0.482010 0.494380 0.981789
C5    C     C_R   0.622568 0.567002 0.828124 0.482834
C6    C     C_R   0.531459 0.228765 0.178731 0.526278
O9    O     O_2   0.650121 0.710685 0.808530 -0.554695
O10   O     O_2   0.405759 0.137254 0.202832 -0.585818
N1    N     N_R   0.573241 0.441688 0.799371 -0.339412
N2    N     N_R   0.629229 0.338221 0.203860 -0.336396
C7    C     C_R   0.544636 0.294504 0.818219 0.546190
C8    C     C_R   0.759678 0.428490 0.179293 0.545460
C9    C     C_R   0.392505 0.417565 0.729331 -0.163555
C10   C     C_R   0.575110 0.534805 0.270023 -0.132034
C11   C     C_R   0.372183 0.429845 0.679264 0.089906
C12   C     C_R   0.543181 0.575416 0.319366 0.066920
C13   C     C_R   0.661101 0.561593 0.668422 0.454228
C14   C     C_R   0.481393 0.300445 0.338483 0.408438
C15   C     C_R   0.683909 0.535731 0.717780 -0.183100
C16   C     C_R   0.535977 0.260340 0.289785 -0.179021
C17   C     C_R   0.549752 0.465244 0.748426 0.184499
C18   C     C_R   0.580198 0.376893 0.254842 0.169247
C19   C     C_R   0.608277 0.398393 0.898640 -0.123193
C20   C     C_R   0.663112 0.330689 0.101586 -0.133139
C21   C     C_R   0.643731 0.547388 0.877952 0.015880
C22   C     C_R   0.554408 0.217229 0.127247 0.006701
C23   C     C_R   0.697264 0.674171 0.907505 -0.166168
C24   C     C_R   0.458239 0.104971 0.100903 -0.153530
C25   C     C_R   0.554935 0.270190 0.868854 -0.139014
C26   C     C_R   0.768961 0.437787 0.127623 -0.127912
C27   C     C_R   0.509061 0.499007 0.648027 -0.225423
C28   C     C_R   0.495088 0.458610 0.353750 -0.187665
H1    H     H_    0.806267 0.571702 0.732360 0.172813
H2    H     H_    0.545723 0.138284 0.279708 0.209214
H3    H     H_    0.718858 0.790943 0.892892 0.216191
H4    H     H_    0.370302 0.019717 0.119884 0.172306
C29   C     C_R   0.735704 0.476107 0.026262 -0.016811
C30   C     C_R   0.571311 0.234176 0.971499 -0.021247
C31   C     C_R   0.567948 0.223691 0.023352 0.093060
C32   C     C_R   0.699737 0.503057 0.977338 0.097238
C33   C     C_R   0.658334 0.341943 0.050128 0.066822
C34   C     C_R   0.626725 0.378226 0.949215 0.070525
C35   C     C_R   0.845727 0.579277 0.052088 -0.361513
C36   C     C_R   0.520174 0.106535 0.941322 -0.353425
C37   C     C_R   0.872959 0.555302 0.101694 0.542560
C38   C     C_R   0.513226 0.122745 0.890519 0.504606
O11   O     O_2   0.874566 0.513589 0.205183 -0.508207
O12   O     O_2   0.507637 0.172631 0.787798 -0.521881
C39   C     C_R   0.729184 0.651884 0.956112 -0.258688
C40   C     C_R   0.469938 0.104024 0.049660 -0.234676
H5    H     H_    0.606111 0.627607 0.243861 0.192087
H6    H     H_    0.287525 0.365420 0.753364 0.178644
H7    H     H_    0.915802 0.677158 0.033777 0.141643
H8    H     H_    0.492076 0.990912 0.956143 0.156055
H9    H     H_    0.769851 0.754382 0.977053 0.150798
H10   H     H_    0.390169 0.015955 0.031585 0.132518
C41   C     C_2   0.569814 0.958238 0.496386 -0.351448
C42   C     C_2   0.429928 0.041617 0.500833 -0.339106
H11   H     H_    0.701890 0.009485 0.492261 0.181441
H12   H     H_    0.297849 0.990371 0.504811 0.172867
N3    N     N_2   0.950320 0.457960 0.486880 -0.170720
N4    N     N_2   0.049680 0.542040 0.513120 -0.156527
H13   H     H_    0.013622 0.384234 0.462640 0.184414
H14   H     H_    0.986344 0.617051 0.537276 0.221861
O13   O     O_3   0.791820 0.639779 0.639079 -0.623365
C43   C     C_3   0.803550 0.800965 0.652223 0.080967
H15   H     H_    0.929202 0.851749 0.635382 0.182063
H16   H     H_    0.805898 0.821518 0.692722 0.165134
C44   C     C_3   0.657431 0.886976 0.632128 -0.412073
H17   H     H_    0.654166 0.860641 0.592173 0.224464
H18   H     H_    0.531008 0.845682 0.650937 0.222777
C45   C     C_3   0.682774 0.063690 0.639833 -0.818578
H19   H     H_    0.687709 0.093343 0.679646 0.294004
H20   H     H_    0.573068 0.121243 0.625755 0.259149
H21   H     H_    0.804350 0.109309 0.619376 0.274294
O14   O     O_3   0.437279 0.184627 0.372823 -0.642377
C46   C     C_3   0.278796 0.103529 0.362470 0.113611
H22   H     H_    0.279661 0.982670 0.376190 0.196540
H23   H     H_    0.258963 0.092342 0.322387 0.168299
C47   C     C_3   0.126970 0.180049 0.390164 -0.435078
H24   H     H_    0.142030 0.173709 0.430228 0.232476
H25   H     H_    0.127738 0.304512 0.379531 0.236446
C48   C     C_3   0.953982 0.097265 0.379306 -0.836987
H26   H     H_    0.934713 0.102923 0.339411 0.286520
H27   H     H_    0.847169 0.155347 0.400457 0.283288
H28   H     H_    0.949101 0.973010 0.390394 0.274729
I1    I     I_    0.592932 0.812040 0.340316 -0.400369
I2    I     I_    0.135739 0.328454 0.654970 -0.376096
O15   O     O_3   0.983357 0.657311 0.126779 -0.564189
C49   C     C_3   0.143674 0.689736 0.099140 0.093292
H29   H     H_    0.140045 0.803038 0.080286 0.104409
H30   H     H_    0.176197 0.597982 0.070724 0.116319
C50   C     C_3   0.288920 0.704089 0.133735 -0.346698
H31   H     H_    0.411776 0.741848 0.112264 0.171459
H32   H     H_    0.260496 0.793092 0.163060 0.258079
C51   C     C_3   0.312169 0.548801 0.157481 -0.711647
H33   H     H_    0.200706 0.515957 0.183966 0.317398
H34   H     H_    0.430028 0.560868 0.177687 0.213159
H35   H     H_    0.326362 0.455240 0.128926 0.236033
O16   O     O_3   0.475902 0.991479 0.861845 -0.574795
C52   C     C_3   0.295537 0.954970 0.865811 0.122041
H36   H     H_    0.222597 0.060741 0.860868 0.130470
H37   H     H_    0.254523 0.903666 0.902442 0.111564
C53   C     C_3   0.251981 0.835332 0.825434 -0.270622
H38   H     H_    0.293717 0.885024 0.788701 0.266541
H39   H     H_    0.321863 0.728580 0.829940 0.239625
C54   C     C_3   0.059302 0.788541 0.827761 -0.947678
H40   H     H_    0.020011 0.728962 0.862993 0.263443
H41   H     H_    0.031862 0.706086 0.796902 0.278236
H42   H     H_    0.983421 0.892872 0.824868 0.293857

loop_
_geom_bond_atom_site_label_1
_geom_bond_atom_site_label_2
_geom_bond_distance
_ccdc_geom_bond_type
C46   H22   1.109655 S    
C48   H26   1.110944 S    
C13   C15   1.394081 A    
Zn2   N3    2.017469 S    
C52   H36   1.116803 S    
C43   C44   1.536659 S    
O7    Zn2   1.984176 S    
N1    C17   1.434012 S    
C8    O11   1.348436 S    
C53   H38   1.111639 S    
C52   H37   1.113507 S    
C19   C34   1.411523 A    
C5    N1    1.367449 A    
C20   C33   1.410229 A    
C10   H5    1.081948 S    
C31   C40   1.409762 A    
C51   H34   1.103786 S    
O1    C1    1.276756 A    
C32   C39   1.409514 A    
C6    N2    1.373431 A    
C21   C23   1.398770 A    
C10   C12   1.387524 A    
C54   H41   1.110603 S    
C51   H33   1.107511 S    
C38   O16   1.383387 S    
O4    Zn1   1.978754 S    
O16   C52   1.412183 S    
C4    C28   1.450837 S    
C9    H6    1.083078 S    
O15   C49   1.417631 S    
C31   C33   1.416865 A    
C32   C34   1.416395 A    
C50   C51   1.520299 S    
C1    C41   1.402971 S    
C29   C35   1.405885 A    
C2    C42   1.402361 S    
C40   H10   1.080253 S    
C48   H27   1.110977 S    
C15   H1    1.083263 S    
C16   H2    1.081659 S    
O2    C2    1.276796 A    
C13   O13   1.386915 S    
C5    C21   1.394922 A    
O5    C3    1.297954 A    
C29   C32   1.410019 A    
C35   C37   1.405495 A    
C36   C38   1.399060 A    
C41   C42   1.336298 D    
C43   H15   1.111084 S    
N4    H14   1.029392 S    
C54   H42   1.110972 S    
C11   C27   1.414501 A    
C44   H18   1.111142 S    
O14   C46   1.419074 S    
C29   C33   1.409091 A    
C49   C50   1.524458 S    
C41   H11   1.087896 S    
C9    C17   1.399121 A    
C30   C36   1.408888 A    
O13   C43   1.418391 S    
C10   C18   1.408598 A    
C13   C27   1.414511 A    
C47   H25   1.111146 S    
C25   C38   1.413746 A    
C7    C25   1.408357 A    
C30   C34   1.413973 A    
O6    C4    1.288501 A    
C26   C37   1.413841 A    
C8    C26   1.406784 A    
C49   H30   1.117634 S    
C50   H32   1.111494 S    
C6    O10   1.348804 S    
C19   C25   1.411113 A    
O7    C3    1.297142 A    
C23   C39   1.385625 A    
O3    Zn2   1.978754 S    
O8    C4    1.297201 A    
C24   C40   1.390890 A    
O4    C2    1.287109 A    
C30   C31   1.414827 A    
N2    C8    1.372867 A    
C48   H28   1.110886 S    
C45   H20   1.110846 S    
C46   H23   1.115612 S    
C14   O14   1.386469 S    
C20   C26   1.409539 A    
O1    Zn1   1.956286 S    
C23   H3    1.083108 S    
C12   C28   1.398137 A    
C47   C48   1.525455 S    
N3    H13   1.023575 S    
N2    C18   1.446985 S    
C5    O9    1.350300 S    
O6    Zn2   1.969563 S    
C14   C28   1.408927 A    
N1    C7    1.370338 A    
C43   H16   1.114288 S    
O3    C1    1.287299 A    
O8    Zn1   1.984176 S    
C44   C45   1.526492 S    
C53   H39   1.108551 S    
Zn1   N4    2.017470 S    
C45   H21   1.110240 S    
C22   C24   1.399724 A    
C7    O12   1.349093 S    
C15   C17   1.395846 A    
C54   H40   1.108426 S    
C6    C22   1.401059 A    
C16   C18   1.402122 A    
C35   H7    1.078786 S    
C47   H24   1.109368 S    
C36   H8    1.080646 S    
C14   C16   1.401937 A    
C49   H29   1.111604 S    
C19   C21   1.408845 A    
C3    C27   1.466697 S    
C52   C53   1.529249 S    
C20   C22   1.405285 A    
C9    C11   1.392030 A    
O2    Zn2   1.956286 S    
C24   H4    1.078135 S    
C53   C54   1.521293 S    
C12   I1    2.113950 S    
C44   H17   1.108138 S    
C11   I2    2.127997 S    
O5    Zn1   1.969562 S    
N3    N4    1.272090 D    
C42   H12   1.087783 S    
C45   H19   1.111048 S    
C46   C47   1.526264 S    
C37   O15   1.391215 S    
C50   H31   1.111995 S    
C39   H9    1.080175 S    
C51   H35   1.109131 S    
