data_mof_unit_26945.cif
_audit_creation_date              2013-03-05T15:46:34-0500
_audit_creation_method            fapswitch 2.2
_symmetry_space_group_name_H-M    P1
_symmetry_Int_Tables_number       1
_space_group_crystal_system       triclinic
_cell_length_a                    10.047794
_cell_length_b                    10.62991
_cell_length_c                    10.86619
_cell_angle_alpha                 90.106611
_cell_angle_beta                  95.28021
_cell_angle_gamma                 84.31162
_cell_volume                      1149.94013191

loop_
_atom_site_label
_atom_site_type_symbol
_atom_site_description
_atom_site_fract_x
_atom_site_fract_y
_atom_site_fract_z
_atom_type_partial_charge
O1    O     O_R   0.568940 0.489660 0.307530 -0.531810
O2    O     O_R   0.431060 0.510340 0.692470 -0.531781
O3    O     O_R   0.348880 0.522640 0.340350 -0.614458
O4    O     O_R   0.651120 0.477360 0.659650 -0.614482
C1    C     C_R   0.443829 0.512366 0.268010 0.989410
C2    C     C_R   0.556171 0.487645 0.731990 0.989418
O5    O     O_R   0.610030 0.300280 0.483580 -0.592340
O6    O     O_R   0.389970 0.699720 0.516420 -0.592229
O7    O     O_R   0.389970 0.333270 0.516400 -0.632430
O8    O     O_R   0.610030 0.666730 0.483600 -0.632402
C3    C     C_R   0.491912 0.260312 0.487253 0.916458
C4    C     C_R   0.508071 0.739700 0.512722 0.916471
Zn1   Zn    Zn3+2 0.646940 0.477980 0.478080 1.074435
Zn2   Zn    Zn3+2 0.353060 0.522020 0.521920 1.074781
C5    C     C_R   0.654344 0.097363 0.322773 0.266135
C6    C     C_R   0.345308 0.902640 0.676970 0.266151
C7    C     C_R   0.781255 0.034133 0.302197 -0.038232
C8    C     C_R   0.218379 0.965910 0.697459 -0.037727
C9    C     C_R   0.830043 0.924920 0.370721 0.366026
C10   C     C_R   0.169836 0.075284 0.629131 0.365863
C11   C     C_R   0.746629 0.871666 0.448274 -0.186694
C12   C     C_R   0.253290 0.128493 0.551645 -0.187134
C13   C     C_R   0.617608 0.930625 0.465716 0.000543
C14   C     C_R   0.382258 0.069437 0.534162 0.000980
C15   C     C_R   0.581491 0.052048 0.417417 -0.034483
C16   C     C_R   0.418312 0.947982 0.582429 -0.034525
C17   C     C_R   0.524242 0.873646 0.532238 -0.080713
C18   C     C_R   0.475651 0.126396 0.467676 -0.080605
H1    H     H_    0.787769 0.788592 0.501043 0.184240
H2    H     H_    0.212178 0.211644 0.498987 0.183614
C19   C     C_2   0.409903 0.509000 0.137009 -0.309526
C20   C     C_2   0.590091 0.491050 0.862990 -0.309529
C21   C     C_2   0.503562 0.528817 0.061337 0.273518
C22   C     C_2   0.496434 0.471236 0.938664 0.273326
H3    H     H_    0.681202 0.533214 0.893374 0.194881
H4    H     H_    0.318778 0.466862 0.106614 0.194886
H5    H     H_    0.894928 0.576652 0.580068 0.136503
H6    H     H_    0.105149 0.422970 0.420282 0.135813
N1    N     N_2   0.157300 0.551390 0.551120 -0.160385
N2    N     N_2   0.842700 0.448610 0.448880 -0.161236
C23   C     C_2   0.071488 0.489796 0.489256 0.023440
C24   C     C_2   0.928568 0.509934 0.510991 0.023116
H7    H     H_    0.877103 0.385557 0.383925 0.196257
H8    H     H_    0.122869 0.614571 0.615954 0.196677
N3    N     N_R   0.037610 0.135939 0.641934 0.228447
O9    O     O_R   0.937423 0.069234 0.652904 -0.363835
O10   O     O_R   0.016085 0.258574 0.640340 -0.394016
N4    N     N_R   0.962522 0.864615 0.358214 0.229213
O11   O     O_R   0.062130 0.931589 0.345671 -0.363074
O12   O     O_R   0.985151 0.742150 0.362711 -0.396498
N5    N     N_R   0.592342 0.197131 0.240429 0.198098
O13   O     O_R   0.463720 0.204806 0.208436 -0.395256
O14   O     O_R   0.663819 0.274765 0.189871 -0.402853
N6    N     N_R   0.407193 0.802845 0.759340 0.198224
O15   O     O_R   0.335627 0.725249 0.809836 -0.402723
O16   O     O_R   0.535793 0.795121 0.791436 -0.395497
N7    N     N_3   0.859506 0.075305 0.208806 -0.346970
H9    H     H_    0.888276 0.164840 0.231767 0.237072
H10   H     H_    0.801862 0.078858 0.123517 0.261213
N8    N     N_3   0.139861 0.924645 0.790596 -0.347147
H11   H     H_    0.111133 0.835138 0.767456 0.236805
H12   H     H_    0.197305 0.920988 0.875989 0.261235
N9    N     N_R   0.387258 0.397564 0.898359 0.221099
O17   O     O_R   0.264314 0.450654 0.885500 -0.335644
O18   O     O_R   0.413216 0.284184 0.855644 -0.346319
N10   N     N_R   0.612763 0.602453 0.101660 0.220997
O19   O     O_R   0.735696 0.549331 0.114497 -0.336132
O20   O     O_R   0.586840 0.715822 0.144415 -0.346662

loop_
_geom_bond_atom_site_label_1
_geom_bond_atom_site_label_2
_geom_bond_distance
_ccdc_geom_bond_type
N10   O20   1.301503 A    
O7    Zn2   2.005717 S    
C19   C21   1.337327 D    
N6    O16   1.301595 A    
N1    H8    1.031557 S    
C5    N5    1.443398 S    
C14   C18   1.417097 A    
C23   C24   1.471425 S    
C2    C20   1.434118 S    
C10   N3    1.436681 S    
O6    C4    1.303526 A    
N2    H7    1.031556 S    
N9    O18   1.301496 A    
C21   C22   1.464484 S    
C16   C17   1.411819 A    
N1    C23   1.275770 D    
C6    C8    1.417776 A    
N3    O9    1.301637 A    
C15   C18   1.411555 A    
O5    C3    1.303608 A    
N4    O12   1.299337 A    
O7    C3    1.285397 A    
C14   C16   1.395697 A    
N7    H9    1.044998 S    
O2    C2    1.289880 A    
O3    Zn2   1.969561 S    
O8    C4    1.285517 A    
C3    C18   1.461825 S    
H6    C23   1.085254 S    
O1    C1    1.289893 A    
N2    C24   1.275736 D    
N4    O11   1.301469 A    
C7    C9    1.402025 A    
C10   C12   1.399187 A    
C21   N10   1.445367 S    
N10   O19   1.301679 A    
C12   C14   1.411725 A    
C13   C17   1.417208 A    
C11   C13   1.411749 A    
C6    C16   1.427001 A    
O2    Zn2   1.943797 S    
C6    N6    1.443406 S    
C5    C15   1.426817 A    
N7    H10   1.045361 S    
O1    Zn1   1.943795 S    
C4    C17   1.461869 S    
N5    O13   1.301628 A    
C20   H3    1.083116 S    
O3    C1    1.287258 A    
O5    Zn1   1.962794 S    
C13   C15   1.395600 A    
N5    O14   1.300166 A    
C8    C10   1.401791 A    
O4    C2    1.287266 A    
N3    O10   1.299984 A    
C8    N8    1.433968 S    
H5    C24   1.085275 S    
C5    C7    1.417685 A    
N6    O15   1.300147 A    
C22   N9    1.445360 S    
Zn1   N2    2.014900 S    
O6    Zn2   1.962795 S    
C12   H2    1.079488 S    
C9    C11   1.399604 A    
Zn2   N1    2.014902 S    
C19   H4    1.083122 S    
C11   H1    1.079523 S    
C9    N4    1.437043 S    
N8    H12   1.045350 S    
N9    O17   1.301669 A    
O4    Zn1   1.969562 S    
C7    N7    1.433973 S    
N8    H11   1.044983 S    
C1    C19   1.434125 S    
O8    Zn1   2.005718 S    
C20   C22   1.337325 D    
