data_mof_unit_25620.cif
_audit_creation_date              2012-10-26T21:01:03-0400
_audit_creation_method            fapswitch 2.2
_symmetry_space_group_name_H-M    P1
_symmetry_Int_Tables_number       1
_space_group_crystal_system       triclinic
_cell_length_a                    10.937578
_cell_length_b                    10.822476
_cell_length_c                    9.546625
_cell_angle_alpha                 89.831596
_cell_angle_beta                  90.014008
_cell_angle_gamma                 90.096358
_cell_volume                      1130.043484

loop_
_atom_site_label
_atom_site_type_symbol
_atom_type_description
_atom_site_fract_x
_atom_site_fract_y
_atom_site_fract_z
_atom_type_partial_charge
C1    C     C_R   0.502182 0.262371 0.500253 0.547942
C2    C     C_R   0.405389 0.450664 0.074524 -0.000186
C3    C     C_R   0.405345 0.450737 0.925739 0.023261
C4    C     C_R   0.265359 0.501366 0.500031 0.552710
C5    C     C_R   0.601231 0.536930 0.926140 0.181517
C6    C     C_3   0.662201 0.659950 0.918986 -0.276973
C7    C     C_3   0.661134 0.660966 0.078062 -0.279778
C8    C     C_R   0.501622 0.737721 0.499906 0.549974
C9    C     C_R   0.734644 0.498615 0.500134 0.555799
C10   C     C_2   0.932999 0.501749 0.385060 -0.155422
C11   C     C_2   0.866579 0.492717 0.502592 -0.112422
C12   C     C_R   0.513854 0.129348 0.501161 -0.006137
C13   C     C_2   0.066945 0.496518 0.385106 -0.153786
C14   C     C_2   0.133429 0.507363 0.502360 -0.114296
C15   C     C_R   0.504491 0.063391 0.626628 0.044411
C16   C     C_2   0.451840 0.123188 0.875214 0.574959
C17   C     C_R   0.539333 0.065059 0.376921 -0.150317
C18   C     C_R   0.538391 0.936314 0.376584 -0.146461
C19   C     C_R   0.512428 0.870973 0.500490 0.003436
C20   C     C_R   0.503193 0.936040 0.626070 -0.014684
C21   C     C_3   0.407092 0.929100 0.737274 -0.254219
C22   C     C_3   0.408221 0.069784 0.738197 -0.045406
C23   C     C_R   0.601117 0.537275 0.073400 0.169446
Cu1   Cu    Cu3+1 0.499990 0.499980 0.640670 0.974909
Cu2   Cu    Cu3+1 0.500010 0.500020 0.359330 0.948422
H1    H     H_    0.888321 0.511403 0.283992 0.145623
H2    H     H_    0.092616 0.523413 0.603845 0.098732
H3    H     H_    0.554718 0.113656 0.279185 0.150834
H4    H     H_    0.552683 0.888838 0.278587 0.135466
H5    H     H_    0.319737 0.889512 0.697927 0.126890
H6    H     H_    0.441958 0.885420 0.834958 0.146742
H7    H     H_    0.321531 0.111835 0.700249 0.097750
H8    H     H_    0.412027 0.158042 0.077436 0.329065
H9    H     H_    0.328037 0.412066 0.129995 0.120101
H10   H     H_    0.327998 0.412117 0.870491 0.125290
H11   H     H_    0.755747 0.653850 0.874091 0.131457
H12   H     H_    0.603291 0.732318 0.871582 0.152241
H13   H     H_    0.754077 0.656828 0.124870 0.125938
H14   H     H_    0.600453 0.733184 0.121806 0.146574
H15   H     H_    0.907448 0.478125 0.604457 0.103453
H16   H     H_    0.111584 0.485115 0.284322 0.144679
N1    N     N_R   0.500780 0.500930 0.147930 -0.236282
N2    N     N_R   0.500780 0.500890 0.852020 -0.228271
O1    O     O_R   0.500000 0.319640 0.618810 -0.470679
O2    O     O_R   0.374593 0.118069 0.991614 -0.717571
O3    O     O_R   0.500010 0.319680 0.381230 -0.508985
O4    O     O_R   0.321940 0.499980 0.618760 -0.517605
O5    O     O_R   0.321950 0.500020 0.381180 -0.506568
O6    O     O_R   0.499990 0.680320 0.618770 -0.506787
O7    O     O_R   0.500000 0.680360 0.381190 -0.507749
O8    O     O_R   0.678050 0.499980 0.618820 -0.496160
O9    O     O_R   0.678060 0.500020 0.381240 -0.499333
O10   O     O_2   0.552727 0.171494 0.884691 -0.501540

loop_
_geom_bond_atom_site_label_1
_geom_bond_atom_site_label_2
_ccdc_geom_bond_type
C12   C17   A    
Cu2   N1    S    
C6    C7    S    
C13   C14   D    
C14   H2    S    
H8    O2    S    
C21   H5    S    
C1    O1    A    
C19   C20   A    
C5    C23   A    
C12   C15   A    
C3    H10   S    
C2    H9    S    
Cu1   O8    S    
C13   H16   S    
C2    C3    A    
C5    N2    A    
Cu2   O9    S    
C18   H4    S    
C21   C22   S    
C20   C21   S    
C9    O9    A    
Cu2   O5    S    
C3    N2    A    
C21   H6    S    
C5    C6    S    
C23   N1    A    
C22   H7    S    
C2    N1    A    
C7    C23   S    
C8    O6    A    
C7    H13   S    
C6    H11   S    
C17   C18   A    
C9    C11   S    
C4    C14   S    
C15   C20   A    
Cu1   O1    S    
C1    O3    A    
C6    H12   S    
C8    C19   S    
C10   C11   D    
C16   O2    S    
C11   H15   S    
C8    O7    A    
Cu1   Cu2   S    
C18   C19   A    
C4    O5    A    
Cu1   O6    S    
Cu1   N2    S    
C7    H14   S    
Cu2   O7    S    
C16   C22   S    
C17   H3    S    
C16   O10   D    
Cu1   O4    S    
Cu2   O3    S    
C10   C13   S    
C15   C22   S    
C1    C12   S    
C10   H1    S    
C4    O4    A    
C9    O8    A    
