data_mof_unit_52252.cif
_audit_creation_date              2012-12-11T15:48:08-0500
_audit_creation_method            fapswitch 2.2
_symmetry_space_group_name_H-M    P1
_symmetry_Int_Tables_number       1
_space_group_crystal_system       triclinic
_cell_length_a                    6.930433
_cell_length_b                    17.591578
_cell_length_c                    19.439487
_cell_angle_alpha                 108.47612
_cell_angle_beta                  89.709345
_cell_angle_gamma                 90.595195
_cell_volume                      2247.72344002

loop_
_atom_site_label
_atom_site_type_symbol
_atom_type_description
_atom_site_fract_x
_atom_site_fract_y
_atom_site_fract_z
_atom_type_partial_charge
O1    O     O_R   0.494330 0.415710 0.413720 -0.539220
O2    O     O_R   0.819360 0.430070 0.560210 -0.542858
O3    O     O_R   0.994320 0.584290 0.586280 -0.542278
C1    C     C_R   0.650321 0.415214 0.582062 0.712623
O4    O     O_R   0.823740 0.406290 0.412670 -0.542153
O5    O     O_R   0.998730 0.560340 0.437690 -0.539879
C2    C     C_R   0.654456 0.383217 0.384789 0.698852
O6    O     O_R   0.489920 0.439660 0.562310 -0.539010
O7    O     O_3   0.662330 0.550570 0.508380 -0.371739
V1    V     V_3+5 0.935370 0.490620 0.498440 1.404695
O8    O     O_R   0.328720 0.569930 0.439790 -0.542210
C3    C     C_R   0.160574 0.585361 0.418385 0.706962
O9    O     O_R   0.324340 0.593710 0.587330 -0.543871
C4    C     C_R   0.155335 0.616896 0.615325 0.683248
V2    V     V_3+5 0.435940 0.509380 0.501560 1.402249
O10   O     O_3   0.159110 0.449430 0.491620 -0.366871
C5    C     C_R   0.312365 0.724035 0.718719 -0.157456
H1    H     H_    0.453288 0.705106 0.695740 0.116250
C6    C     C_R   0.300951 0.787814 0.783668 -0.153075
H2    H     H_    0.433754 0.816161 0.808590 0.117502
C7    C     C_R   0.121052 0.814648 0.815855 -0.043030
C8    C     C_R   0.952904 0.775915 0.781197 -0.157903
H3    H     H_    0.811973 0.794839 0.804169 0.115365
C9    C     C_R   0.964318 0.712143 0.716253 -0.152744
H4    H     H_    0.831502 0.683802 0.691337 0.118542
C10   C     C_R   0.144209 0.685301 0.684066 -0.046250
C11   C     C_R   0.307782 0.635266 0.322326 -0.223293
C12   C     C_R   0.153044 0.635290 0.369517 -0.083087
C13   C     C_R   0.990393 0.682486 0.369139 -0.191947
C14   C     C_R   0.982733 0.729934 0.323049 0.019421
C15   C     C_R   0.137141 0.728592 0.275157 0.053610
C16   C     C_R   0.299588 0.680534 0.274446 0.114408
C17   C     C_R   0.823009 0.778567 0.323982 -0.258515
C18   C     C_R   0.815313 0.826216 0.278214 0.428931
C19   C     C_R   0.966036 0.822883 0.228093 -0.027479
C20   C     C_R   0.128519 0.774719 0.227434 -0.003724
C21   C     C_R   0.282320 0.772223 0.178809 0.151755
C22   C     C_R   0.441619 0.723283 0.177881 -0.126631
C23   C     C_R   0.450375 0.678026 0.225367 -0.187562
C24   C     C_R   0.957866 0.866674 0.178770 -0.182020
C25   C     C_R   0.111963 0.865508 0.131065 -0.094845
C26   C     C_R   0.274381 0.818548 0.131877 -0.195851
H5    H     H_    0.432966 0.598595 0.321746 0.121305
H6    H     H_    0.870836 0.683187 0.405523 0.126341
H7    H     H_    0.702965 0.779547 0.360195 0.152176
H8    H     H_    0.833284 0.903196 0.178289 0.162241
H9    H     H_    0.393491 0.817071 0.095105 0.118802
H10   H     H_    0.560657 0.720592 0.140843 0.116360
H11   H     H_    0.575707 0.641200 0.223842 0.124208
C27   C     C_R   0.784465 0.181397 0.866064 -0.223527
C28   C     C_R   0.622396 0.133247 0.867893 -0.080956
C29   C     C_R   0.465279 0.131687 0.821735 -0.218613
C30   C     C_R   0.469346 0.177094 0.773989 0.088208
C31   C     C_R   0.630792 0.226330 0.773375 0.053241
C32   C     C_R   0.788508 0.228765 0.819822 0.090283
C33   C     C_R   0.314688 0.174163 0.726821 -0.185288
C34   C     C_R   0.318310 0.220628 0.680190 -0.185074
C35   C     C_R   0.476706 0.270843 0.679839 0.089424
C36   C     C_R   0.634438 0.273258 0.726274 0.053235
C37   C     C_R   0.795845 0.322527 0.725693 0.088812
C38   C     C_R   0.950603 0.325385 0.772795 -0.186267
C39   C     C_R   0.947001 0.278908 0.819410 -0.186747
C40   C     C_R   0.480597 0.318346 0.633708 -0.221560
C41   C     C_R   0.642518 0.366625 0.631999 -0.083003
C42   C     C_R   0.799742 0.368076 0.678074 -0.218283
H12   H     H_    0.905670 0.183190 0.901611 0.127167
H13   H     H_    0.340400 0.094239 0.822327 0.123566
H14   H     H_    0.189970 0.136341 0.726375 0.134612
H15   H     H_    0.196407 0.217670 0.644714 0.135860
H16   H     H_    0.359378 0.316585 0.598175 0.129114
H17   H     H_    0.924569 0.405570 0.677533 0.123949
H18   H     H_    0.075334 0.363198 0.773234 0.134074
H19   H     H_    0.068937 0.281843 0.854866 0.134374
C43   C     C_R   0.792673 0.258553 0.297559 -0.168145
H20   H     H_    0.916208 0.265191 0.332971 0.147088
C44   C     C_R   0.783303 0.192511 0.234193 0.141211
C45   C     C_R   0.623037 0.182330 0.186589 -0.083779
C46   C     C_R   0.472177 0.238102 0.206777 -0.155174
H21   H     H_    0.347058 0.232265 0.172262 0.146791
C47   C     C_R   0.481148 0.302738 0.271214 -0.140744
H22   H     H_    0.362608 0.344570 0.284712 0.124544
C48   C     C_R   0.642764 0.314210 0.316848 -0.083113
O11   O     O_R   0.774940 0.060470 0.937800 -0.540969
O12   O     O_R   0.440880 0.093730 0.087350 -0.531988
O13   O     O_R   0.266130 0.939630 0.062280 -0.533142
C49   C     C_R   0.610175 0.115246 0.116649 0.731805
O14   O     O_R   0.445480 0.069960 0.939820 -0.545821
O15   O     O_R   0.270770 0.915690 0.913690 -0.545713
C50   C     C_R   0.614526 0.084807 0.917959 0.701702
O16   O     O_R   0.770300 0.084410 0.086380 -0.521742
O17   O     O_3   0.602600 0.949510 0.991670 -0.376169
V3    V     V_3+5 0.329470 0.009370 0.001550 1.438408
O18   O     O_R   0.940760 0.906160 0.912560 -0.547266
C51   C     C_R   0.109828 0.883039 0.884602 0.669132
O19   O     O_R   0.936150 0.929930 0.060100 -0.539444
C52   C     C_R   0.104346 0.914437 0.081407 0.753417
V4    V     V_3+5 0.828930 0.990450 0.998310 1.431200
O20   O     O_3   0.105670 0.050490 0.008320 -0.358073
I1    I     I_    0.012664 0.109593 0.221042 -0.472838
O21   O     O_3   0.652356 0.871343 0.279262 -0.557298
C53   C     C_3   0.683531 0.951091 0.324579 0.099741
H23   H     H_    0.610961 0.991616 0.299332 0.162439
H24   H     H_    0.838564 0.970049 0.330971 0.121553
C54   C     C_3   0.592746 0.963428 0.398847 -0.727635
H25   H     H_    0.669566 0.927506 0.427681 0.208761
H26   H     H_    0.602911 0.027693 0.431795 0.189280
H27   H     H_    0.438324 0.945003 0.392702 0.235031

loop_
_geom_bond_atom_site_label_1
_geom_bond_atom_site_label_2
_ccdc_geom_bond_type
O18   C51   A    
C17   H7    S    
C25   C26   A    
O19   C52   A    
C1    O6    A    
C54   H26   S    
V4    O20   S    
V3    O20   S    
C45   C46   A    
C44   I1    S    
C24   H8    S    
C13   C14   A    
C43   C44   A    
C3    C12   S    
C5    C10   A    
C7    C8    A    
C20   C21   A    
C6    C7    A    
O12   C49   A    
C15   C20   A    
O5    C3    A    
C14   C15   A    
O13   C52   A    
C46   C47   A    
C25   C52   S    
C7    C51   S    
V2    O10   S    
C32   C39   A    
C33   C34   A    
C18   C19   A    
C16   C23   A    
C21   C26   A    
O8    V2    S    
O15   V3    S    
C18   O21   S    
C39   H19   S    
O1    V2    S    
O7    V1    S    
O16   V4    S    
C22   H10   S    
C36   C37   A    
C53   H24   S    
O9    C4    A    
C43   C48   A    
C54   H25   S    
O13   V3    S    
C5    H1    S    
C31   C36   A    
O11   C50   A    
O15   C51   A    
C43   H20   S    
C28   C29   A    
C53   H23   S    
C9    H4    S    
C47   C48   A    
C49   O16   A    
O17   V3    S    
O4    C2    A    
C46   H21   S    
C27   C28   A    
C35   C36   A    
C33   H14   S    
O17   V4    S    
C37   C38   A    
C19   C20   A    
O2    C1    A    
O5    V1    S    
C21   C22   A    
C15   C16   A    
C40   H16   S    
C17   C18   A    
C4    C10   S    
C27   H12   S    
O3    C4    A    
C38   H18   S    
C24   C25   A    
C23   H11   S    
C45   C49   S    
O6    V2    S    
O14   C50   A    
C13   H6    S    
C8    C9    A    
O2    V1    S    
O18   V4    S    
C29   C30   A    
C30   C33   A    
C35   C40   A    
C31   C32   A    
C12   C13   A    
C14   C17   A    
C11   C16   A    
O1    C2    A    
C9    C10   A    
C47   H22   S    
C37   C42   A    
O8    C3    A    
O19   V4    S    
C30   C31   A    
C53   C54   S    
C1    C41   S    
C27   C32   A    
C41   C42   A    
C6    H2    S    
O9    V2    S    
C19   C24   A    
O7    V2    S    
O4    V1    S    
O3    V1    S    
C42   H17   S    
C28   C50   S    
C44   C45   A    
C34   C35   A    
C22   C23   A    
C29   H13   S    
O21   C53   S    
C5    C6    A    
C26   H9    S    
C38   C39   A    
C40   C41   A    
C11   H5    S    
C2    C48   S    
O11   V4    S    
C11   C12   A    
C8    H3    S    
V1    O10   S    
O12   V3    S    
C34   H15   S    
O14   V3    S    
C54   H27   S    
