data_mof_unit_54804.cif
_audit_creation_date              2012-12-11T16:45:49-0500
_audit_creation_method            fapswitch 2.2
_symmetry_space_group_name_H-M    P1
_symmetry_Int_Tables_number       1
_space_group_crystal_system       triclinic
_cell_length_a                    20.045388
_cell_length_b                    17.019294
_cell_length_c                    15.557634
_cell_angle_alpha                 90.938922
_cell_angle_beta                  52.40223
_cell_angle_gamma                 91.028756
_cell_volume                      4204.51912363

loop_
_atom_site_label
_atom_site_type_symbol
_atom_type_description
_atom_site_fract_x
_atom_site_fract_y
_atom_site_fract_z
_atom_type_partial_charge
C1    C     C_R   0.868659 0.691604 0.003010 -0.120441
C2    C     C_R   0.167947 0.316774 0.042632 0.016860
C3    C     C_3   0.416290 0.323540 0.323503 -0.283411
C4    C     C_3   0.396710 0.410013 0.324233 -1.034052
C5    C     C_3   0.639158 0.249304 0.538678 0.208502
C6    C     C_3   0.587013 0.280005 0.655633 -0.289250
C7    C     C_3   0.567682 0.367260 0.662138 -0.994331
C8    C     C_3   0.625272 0.247966 0.291416 0.158895
C9    C     C_3   0.639977 0.332451 0.314696 -0.307143
C10   C     C_3   0.558747 0.369643 0.411415 -1.029747
C11   C     C_3   0.312439 0.229816 0.782352 0.233624
C12   C     C_3   0.397661 0.227938 0.668493 -0.343025
C13   C     C_R   0.286810 0.848400 0.026178 -0.067577
C14   C     C_3   0.440246 0.148058 0.638989 -0.856964
C15   C     C_3   0.125272 0.747966 0.291416 0.158895
C16   C     C_3   0.139976 0.832451 0.314696 -0.307144
C17   C     C_3   0.058747 0.869642 0.411416 -1.029749
C18   C     C_3   0.812438 0.729815 0.782353 0.233625
C19   C     C_3   0.897661 0.727939 0.668495 -0.343027
C20   C     C_3   0.940246 0.648059 0.638989 -0.856964
C21   C     C_1   0.149546 0.863993 0.057328 0.007366
C22   C     C_1   0.678947 0.720543 0.148919 -0.025215
C23   C     C_1   0.649546 0.363993 0.057328 0.007366
C24   C     C_R   0.667946 0.816773 0.042634 0.016858
C25   C     C_1   0.178948 0.220543 0.148917 -0.025214
C26   C     C_3   0.828516 0.348607 0.810053 0.182469
C27   C     C_3   0.889186 0.282876 0.790440 -0.372632
C28   C     C_3   0.893703 0.215524 0.721298 -0.955298
C29   C     C_3   0.118805 0.405330 0.253244 0.220826
C30   C     C_3   0.094706 0.476682 0.327583 -0.323525
C31   C     C_3   0.171707 0.519555 0.303989 -0.823606
C32   C     C_3   0.328516 0.848607 0.810053 0.182471
C33   C     C_3   0.389186 0.782875 0.790440 -0.372632
C34   C     C_3   0.393703 0.715524 0.721298 -0.955299
C35   C     C_R   0.809371 0.636862 0.321839 0.103186
C36   C     C_3   0.618806 0.905330 0.253245 0.220826
C37   C     C_3   0.594707 0.976683 0.327583 -0.323523
C38   C     C_3   0.671708 0.019555 0.303988 -0.823605
C39   C     C_R   0.193249 0.636250 0.679208 0.068425
C40   C     C_R   0.309371 0.136862 0.321839 0.103186
C41   C     C_R   0.693249 0.136250 0.679208 0.068425
C42   C     C_R   0.737603 0.653787 0.513884 -0.038757
C43   C     C_R   0.282224 0.644519 0.479937 -0.018550
C44   C     C_R   0.237603 0.153787 0.513884 -0.038756
C45   C     C_R   0.124511 0.695438 0.009006 -0.188322
C46   C     C_R   0.782224 0.144519 0.479937 -0.018549
C47   C     C_R   0.738530 0.666667 0.425296 0.038416
C48   C     C_R   0.267181 0.666842 0.576821 0.047058
C49   C     C_R   0.238530 0.166667 0.425296 0.038416
C50   C     C_R   0.767181 0.166842 0.576821 0.047058
C51   C     C_R   0.178613 0.216194 0.436971 -0.256966
C52   C     C_R   0.811684 0.231062 0.575653 -0.265822
C53   C     C_R   0.678613 0.716194 0.436971 -0.256966
C54   C     C_R   0.311684 0.731062 0.575653 -0.265823
C55   C     C_R   0.126246 0.260182 0.532763 0.052282
C56   C     C_R   0.368659 0.191604 0.003009 -0.120442
C57   C     C_R   0.858919 0.279770 0.484923 0.069261
C58   C     C_R   0.626246 0.760182 0.532763 0.052282
C59   C     C_R   0.358920 0.779770 0.484923 0.069261
C60   C     C_R   0.133895 0.253141 0.617292 -0.002643
C61   C     C_R   0.866483 0.260620 0.389173 -0.009833
C62   C     C_R   0.633895 0.753141 0.617292 -0.002643
C63   C     C_R   0.366483 0.760620 0.389172 -0.009833
C64   C     C_R   0.682955 0.692597 0.610658 0.098369
C65   C     C_R   0.334968 0.687310 0.385530 0.090386
C66   C     C_R   0.182955 0.192597 0.610658 0.098369
C67   C     C_R   0.624511 0.195437 0.009006 -0.188322
C68   C     C_R   0.834968 0.187310 0.385530 0.090387
C69   C     C_3   0.747204 0.698696 0.630721 -0.715172
C70   C     C_3   0.281215 0.669121 0.349761 -0.677841
C71   C     C_3   0.247204 0.198696 0.630721 -0.715175
C72   C     C_3   0.781216 0.169121 0.349761 -0.677843
C73   C     C_R   0.900077 0.302182 0.208870 -0.148313
C74   C     C_R   0.099488 0.301381 0.793122 -0.119771
C75   C     C_R   0.400077 0.802182 0.208870 -0.148312
C76   C     C_R   0.599488 0.801381 0.793122 -0.119770
C77   C     C_3   0.809405 0.661515 0.520102 0.467655
C78   C     C_R   0.888023 0.318254 0.305748 0.075755
C79   C     C_3   0.219988 0.629354 0.458077 0.435273
C80   C     C_3   0.309405 0.161515 0.520102 0.467656
C81   C     C_3   0.719988 0.129354 0.458077 0.435273
C82   C     C_2   0.676975 0.244950 0.114311 0.473187
C83   C     C_2   0.282726 0.229382 0.950208 0.455437
C84   C     C_2   0.176975 0.744950 0.114311 0.473187
C85   C     C_2   0.782725 0.729382 0.950209 0.455437
C86   C     C_2   0.204502 0.815244 0.064458 -0.124058
C87   C     C_2   0.716769 0.759115 0.045930 -0.103159
C88   C     C_2   0.704502 0.315244 0.064458 -0.124058
C89   C     C_R   0.109978 0.314297 0.698157 0.052779
C90   C     C_2   0.216770 0.259115 0.045928 -0.103160
C91   C     C_R   0.834068 0.405080 0.944553 0.569632
C92   C     C_R   0.142850 0.390850 0.089941 0.541332
C93   C     C_R   0.334068 0.905080 0.944553 0.569632
C94   C     C_R   0.642849 0.890850 0.089942 0.541332
C95   C     C_R   0.858822 0.577515 0.313012 -0.068461
C96   C     C_R   0.142934 0.576018 0.687513 -0.022481
C97   C     C_R   0.358822 0.077515 0.313012 -0.068461
C98   C     C_R   0.642934 0.076018 0.687513 -0.022481
C99   C     C_R   0.837892 0.322990 0.052571 -0.222978
C100  C     C_R   0.388023 0.818254 0.305748 0.075754
C101  C     C_R   0.132341 0.301910 0.992354 -0.219779
C102  C     C_R   0.337892 0.822990 0.052571 -0.222979
C103  C     C_R   0.632340 0.801910 0.992355 -0.219777
C104  C     C_R   0.849781 0.670106 0.220369 -0.161118
C105  C     C_R   0.151167 0.669860 0.781921 -0.176346
C106  C     C_R   0.349782 0.170105 0.220368 -0.161117
C107  C     C_R   0.651167 0.169860 0.781921 -0.176346
C108  C     C_R   0.906295 0.396795 0.303164 -0.183330
C109  C     C_R   0.093943 0.392795 0.696716 -0.181119
C110  C     C_R   0.406295 0.896795 0.303164 -0.183330
C111  C     C_R   0.609978 0.814297 0.698157 0.052779
C112  C     C_R   0.593943 0.892795 0.696716 -0.181119
C113  C     C_R   0.856105 0.598612 0.910108 -0.159633
C114  C     C_R   0.132131 0.605808 0.104794 -0.029143
C115  C     C_R   0.356106 0.098612 0.910107 -0.159633
C116  C     C_R   0.632131 0.105808 0.104794 -0.029143
C117  C     C_R   0.833004 0.673536 0.953803 0.017149
C118  C     C_R   0.148705 0.684071 0.073974 -0.032514
C119  C     C_R   0.333004 0.173536 0.953802 0.017150
C120  C     C_R   0.648705 0.184070 0.073975 -0.032515
C121  C     C_1   0.070862 0.315437 0.537873 0.013426
C122  C     C_R   0.786810 0.348400 0.026178 -0.067578
C123  C     C_1   0.882123 0.354270 0.505476 -0.016094
C124  C     C_1   0.570862 0.815437 0.537873 0.013426
C125  C     C_1   0.382124 0.854270 0.505475 -0.016094
C126  C     C_3   0.861359 0.789926 0.438318 0.221005
C127  C     C_3   0.916290 0.823540 0.323503 -0.283413
C128  C     C_3   0.896710 0.910013 0.324233 -1.034052
C129  C     C_3   0.139158 0.749304 0.538679 0.208502
C130  C     C_3   0.087012 0.780005 0.655634 -0.289249
C131  C     C_3   0.067682 0.867260 0.662138 -0.994331
C132  C     C_3   0.361359 0.289926 0.438318 0.221004
H1    H     H_    0.871982 0.748666 0.031972 0.105875
H2    H     H_    0.312815 0.626600 0.280848 0.194770
H3    H     H_    0.897267 0.600826 0.648479 0.243357
H4    H     H_    0.846084 0.365367 0.729976 0.152686
H5    H     H_    0.763545 0.324972 0.855841 0.102213
H6    H     H_    0.952427 0.308337 0.751686 0.223498
H7    H     H_    0.868459 0.255806 0.867353 0.209899
H8    H     H_    0.830385 0.188372 0.761765 0.264543
H9    H     H_    0.937072 0.169942 0.710999 0.274641
H10   H     H_    0.918205 0.236476 0.639794 0.275780
H11   H     H_    0.157265 0.364967 0.262004 0.121362
H12   H     H_    0.059453 0.373473 0.281674 0.035790
H13   H     H_    0.230187 0.159564 0.698027 0.175861
H14   H     H_    0.055711 0.517227 0.320281 0.179041
H15   H     H_    0.055092 0.458038 0.412810 0.187919
H16   H     H_    0.205902 0.480722 0.321643 0.231492
H17   H     H_    0.150463 0.572467 0.356600 0.244924
H18   H     H_    0.215407 0.538450 0.218143 0.290521
H19   H     H_    0.346084 0.865367 0.729976 0.152686
H20   H     H_    0.263545 0.824972 0.855841 0.102213
H21   H     H_    0.452427 0.808337 0.751686 0.223498
H22   H     H_    0.368458 0.755806 0.867353 0.209899
H23   H     H_    0.330385 0.688372 0.761766 0.264543
H24   H     H_    0.812815 0.126600 0.280847 0.194771
H25   H     H_    0.437072 0.669942 0.710999 0.274641
H26   H     H_    0.418205 0.736475 0.639794 0.275781
H27   H     H_    0.657266 0.864967 0.262004 0.121362
H28   H     H_    0.559453 0.873473 0.281675 0.035790
H29   H     H_    0.555711 0.017227 0.320282 0.179040
H30   H     H_    0.555093 0.958038 0.412810 0.187918
H31   H     H_    0.705904 0.980723 0.321641 0.231491
H32   H     H_    0.650465 0.072467 0.356597 0.244924
H33   H     H_    0.715408 0.038450 0.218141 0.290521
H34   H     H_    0.831056 0.603477 0.525643 0.057539
H35   H     H_    0.213107 0.565547 0.448924 0.052801
H36   H     H_    0.331056 0.103477 0.525643 0.057539
H37   H     H_    0.713108 0.065547 0.448924 0.052801
H38   H     H_    0.905627 0.244668 0.174721 0.120918
H39   H     H_    0.096313 0.244964 0.826539 0.107581
H40   H     H_    0.405627 0.744668 0.174720 0.120918
H41   H     H_    0.117971 0.750542 0.981985 0.113501
H42   H     H_    0.596313 0.744964 0.826539 0.107581
H43   H     H_    0.845529 0.539513 0.376603 0.077552
H44   H     H_    0.157038 0.535367 0.624951 0.083753
H45   H     H_    0.345529 0.039513 0.376603 0.077552
H46   H     H_    0.657038 0.035367 0.624951 0.083753
H47   H     H_    0.825797 0.277371 0.107680 0.199677
H48   H     H_    0.129961 0.246765 0.958656 0.111543
H49   H     H_    0.325797 0.777371 0.107680 0.199677
H50   H     H_    0.629959 0.746765 0.958658 0.111542
H51   H     H_    0.828980 0.719722 0.200411 0.105324
H52   H     H_    0.371982 0.248666 0.031971 0.105876
H53   H     H_    0.171438 0.719144 0.805485 0.102206
H54   H     H_    0.328980 0.219722 0.200411 0.105324
H55   H     H_    0.671438 0.219144 0.805485 0.102206
H56   H     H_    0.918359 0.428872 0.352036 0.114542
H57   H     H_    0.087969 0.421441 0.640516 0.124323
H58   H     H_    0.418359 0.928872 0.352036 0.114542
H59   H     H_    0.587969 0.921441 0.640516 0.124322
H60   H     H_    0.845338 0.570136 0.856978 0.158346
H61   H     H_    0.134531 0.580765 0.165481 0.159960
H62   H     H_    0.345339 0.070136 0.856977 0.158346
H63   H     H_    0.617971 0.250542 0.981985 0.113501
H64   H     H_    0.634531 0.080765 0.165481 0.159959
H65   H     H_    0.177879 0.226005 0.369051 0.146032
H66   H     H_    0.799117 0.250624 0.650641 0.135775
H67   H     H_    0.677879 0.726005 0.369051 0.146032
H68   H     H_    0.299117 0.750624 0.650641 0.135775
H69   H     H_    0.875733 0.822534 0.487774 0.099551
H70   H     H_    0.795204 0.801115 0.472269 0.119171
H71   H     H_    0.983811 0.817997 0.286527 0.198587
H72   H     H_    0.904726 0.790343 0.271969 0.210196
H73   H     H_    0.829873 0.916749 0.357319 0.260849
H74   H     H_    0.761210 0.760107 0.639697 0.190286
H75   H     H_    0.937446 0.932970 0.240189 0.284233
H76   H     H_    0.908640 0.945331 0.374357 0.270124
H77   H     H_    0.109779 0.768586 0.501711 0.133304
H78   H     H_    0.201645 0.778064 0.495075 0.106211
H79   H     H_    0.027545 0.745892 0.708685 0.235056
H80   H     H_    0.123442 0.773795 0.686860 0.202051
H81   H     H_    0.127151 0.902134 0.613286 0.263063
H82   H     H_    0.030155 0.887520 0.747842 0.282050
H83   H     H_    0.031055 0.877953 0.631643 0.270329
H84   H     H_    0.375733 0.322534 0.487774 0.099551
H85   H     H_    0.256221 0.720527 0.335398 0.201349
H86   H     H_    0.295204 0.301115 0.472268 0.119171
H87   H     H_    0.483811 0.317997 0.286527 0.198587
H88   H     H_    0.404726 0.290343 0.271969 0.210195
H89   H     H_    0.329873 0.416749 0.357319 0.260849
H90   H     H_    0.437446 0.432970 0.240189 0.284232
H91   H     H_    0.408640 0.445331 0.374356 0.270124
H92   H     H_    0.609779 0.268585 0.501711 0.133304
H93   H     H_    0.701645 0.278063 0.495074 0.106211
H94   H     H_    0.527545 0.245892 0.708685 0.235057
H95   H     H_    0.623442 0.273795 0.686859 0.202052
H96   H     H_    0.261210 0.260107 0.639696 0.190287
H97   H     H_    0.627151 0.402134 0.613285 0.263063
H98   H     H_    0.530156 0.387520 0.747842 0.282050
H99   H     H_    0.531055 0.377953 0.631643 0.270330
H100  H     H_    0.621412 0.208320 0.350173 0.126962
H101  H     H_    0.563025 0.241397 0.307889 0.126141
H102  H     H_    0.687290 0.331697 0.329998 0.182562
H103  H     H_    0.665492 0.371450 0.244664 0.224255
H104  H     H_    0.520462 0.389643 0.386652 0.279008
H105  H     H_    0.574085 0.421599 0.440746 0.278626
H106  H     H_    0.520690 0.327416 0.478741 0.258117
H107  H     H_    0.756221 0.220527 0.335398 0.201350
H108  H     H_    0.268133 0.263759 0.777818 0.095351
H109  H     H_    0.284708 0.169413 0.808649 0.059024
H110  H     H_    0.388968 0.241996 0.606802 0.185912
H111  H     H_    0.440091 0.274086 0.661808 0.227689
H112  H     H_    0.459531 0.135341 0.690575 0.275579
H113  H     H_    0.497310 0.148440 0.552916 0.268564
H114  H     H_    0.397266 0.100825 0.648482 0.243357
H115  H     H_    0.121412 0.708320 0.350173 0.126962
H116  H     H_    0.063025 0.741397 0.307889 0.126142
H117  H     H_    0.187290 0.831698 0.329997 0.182563
H118  H     H_    0.730187 0.659563 0.698027 0.175860
H119  H     H_    0.165491 0.871450 0.244664 0.224255
H120  H     H_    0.020462 0.889643 0.386653 0.279008
H121  H     H_    0.074084 0.921598 0.440747 0.278626
H122  H     H_    0.020690 0.827416 0.478741 0.258118
H123  H     H_    0.768131 0.763757 0.777820 0.095350
H124  H     H_    0.784709 0.669412 0.808649 0.059024
H125  H     H_    0.888967 0.741997 0.606803 0.185912
H126  H     H_    0.940090 0.774088 0.661811 0.227690
H127  H     H_    0.959530 0.635342 0.690576 0.275578
H128  H     H_    0.997311 0.648443 0.552916 0.268564
N1    N     N_R   0.908660 0.628630 0.995840 -0.042647
N2    N     N_R   0.096530 0.421430 0.063580 -0.093914
N3    N     N_R   0.403470 0.921430 0.936420 -0.090143
N4    N     N_R   0.596530 0.921430 0.063580 -0.093913
N5    N     N_R   0.927500 0.575670 0.211370 -0.047505
N6    N     N_R   0.072500 0.575670 0.788630 -0.047669
N7    N     N_R   0.427500 0.075670 0.211370 -0.047505
N8    N     N_R   0.572500 0.075670 0.788630 -0.047669
N9    N     N_R   0.908660 0.365680 0.995820 -0.076968
N10   N     N_R   0.091340 0.365680 0.004180 -0.066277
N11   N     N_R   0.408660 0.865680 0.995820 -0.076968
N12   N     N_R   0.091340 0.628630 0.004160 -0.034226
N13   N     N_R   0.591340 0.865680 0.004180 -0.066277
N14   N     N_R   0.922310 0.631420 0.151980 -0.043164
N15   N     N_R   0.077690 0.631420 0.848020 -0.041387
N16   N     N_R   0.422310 0.131420 0.151980 -0.043164
N17   N     N_R   0.577690 0.131420 0.848020 -0.041387
N18   N     N_R   0.927500 0.426330 0.211360 -0.045984
N19   N     N_R   0.072500 0.426330 0.788640 -0.042582
N20   N     N_R   0.427500 0.926330 0.211360 -0.045984
N21   N     N_R   0.572500 0.926330 0.788640 -0.042582
N22   N     N_R   0.903470 0.570760 0.936440 -0.043068
N23   N     N_R   0.408660 0.128630 0.995840 -0.042647
N24   N     N_R   0.096530 0.570760 0.063560 -0.048832
N25   N     N_R   0.403470 0.070760 0.936440 -0.043068
N26   N     N_R   0.596530 0.070760 0.063560 -0.048832
N27   N     N_1   0.025538 0.359837 0.543399 -0.100136
N28   N     N_1   0.898113 0.414236 0.525390 -0.116636
N29   N     N_1   0.525538 0.859837 0.543399 -0.100136
N30   N     N_1   0.398115 0.914236 0.525389 -0.116636
N31   N     N_1   0.105848 0.903309 0.051689 -0.084741
N32   N     N_1   0.648315 0.689324 0.230797 -0.088283
N33   N     N_1   0.605848 0.403309 0.051689 -0.084741
N34   N     N_R   0.591340 0.128630 0.004160 -0.034226
N35   N     N_1   0.148316 0.189325 0.230795 -0.088284
N36   N     N_R   0.922310 0.368460 0.151950 -0.039373
N37   N     N_R   0.077690 0.368460 0.848050 -0.037489
N38   N     N_R   0.422310 0.868460 0.151950 -0.039373
N39   N     N_R   0.577690 0.868460 0.848050 -0.037489
N40   N     N_R   0.903470 0.421430 0.936420 -0.090143
Ni1   Ni    Ni4+2 0.000000 0.630300 0.000000 0.210224
Ni2   Ni    Ni4+2 0.500000 0.130300 0.000000 0.210224
Ni3   Ni    Ni4+2 0.000000 0.369700 0.000000 0.193024
Ni4   Ni    Ni4+2 0.500000 0.869700 0.000000 0.193024
Ni5   Ni    Ni4+2 0.988090 0.497570 0.863760 0.235320
Ni6   Ni    Ni4+2 0.011910 0.497570 0.136240 0.217895
Ni7   Ni    Ni4+2 0.488090 0.997570 0.863760 0.235320
Ni8   Ni    Ni4+2 0.511910 0.997570 0.136240 0.217896
O1    O     O_3   0.878714 0.708823 0.435910 -0.658174
O2    O     O_3   0.167018 0.430969 0.144603 -0.658891
O3    O     O_3   0.330931 0.919256 0.859422 -0.685659
O4    O     O_3   0.667018 0.930969 0.144604 -0.658891
O5    O     O_3   0.139878 0.665601 0.535540 -0.659120
O6    O     O_3   0.378714 0.208822 0.435910 -0.658174
O7    O     O_3   0.639878 0.165600 0.535540 -0.659119
O8    O     O_3   0.692679 0.222288 0.185536 -0.678547
O9    O     O_3   0.320145 0.271408 0.855242 -0.634925
O10   O     O_3   0.192679 0.722288 0.185536 -0.678547
O11   O     O_3   0.820144 0.771408 0.855244 -0.634925
O12   O     O_3   0.830931 0.419256 0.859422 -0.685658

loop_
_geom_bond_atom_site_label_1
_geom_bond_atom_site_label_2
_ccdc_geom_bond_type
C45   C118  A    
N20   Ni8   S    
N36   Ni3   S    
C94   N4    A    
C63   C65   A    
C126  C127  S    
C36   O4    S    
C104  N14   A    
N20   N38   A    
C19   C20   S    
C82   C120  S    
C35   C47   S    
C34   H23   S    
C126  H70   S    
C69   H74   S    
C84   C86   D    
N25   Ni7   S    
C5    C6    S    
C108  N18   A    
C78   C108  A    
C132  O6    S    
C2    C90   S    
C80   O6    S    
C126  O1    S    
C62   C64   A    
N7    Ni8   S    
C51   H65   S    
C49   C51   A    
C91   C122  A    
C50   C52   A    
C132  H84   S    
C81   H37   S    
C67   C120  A    
C47   C53   A    
C8    H101  S    
C8    O8    S    
C9    C10   S    
C96   N6    A    
C27   H6    S    
C102  N11   A    
C131  H83   S    
C106  H54   S    
C88   C122  S    
C35   C104  A    
N22   Ni5   S    
C31   H18   S    
C56   H52   S    
C18   H124  S    
C29   H12   S    
N8    N17   A    
C83   O9    S    
C37   C38   S    
C45   H41   S    
C57   C123  S    
C91   O12   S    
N6    N15   A    
C68   C72   S    
N18   N36   A    
C6    H95   S    
C22   C87   S    
C85   C117  S    
C6    C7    S    
C14   H112  S    
C12   H110  S    
C18   O11   S    
C52   H66   S    
C29   O2    S    
C129  H77   S    
C42   C64   A    
N17   Ni2   S    
C26   O12   S    
C21   C86   S    
C41   C107  A    
C70   C79   S    
C108  H56   S    
C19   H125  S    
C53   C58   A    
C57   C61   A    
N10   Ni3   S    
C17   H120  S    
C59   C63   A    
C75   N38   A    
C130  C131  S    
C112  H59   S    
C91   N40   A    
C115  N25   A    
C5    H93   S    
C132  H86   S    
C24   C87   S    
C26   H4    S    
C123  N28   T    
C104  H51   S    
C15   H116  S    
C70   H2    S    
C128  H76   S    
C79   H35   S    
C73   H38   S    
C80   H36   S    
C37   H30   S    
C7    H98   S    
N40   Ni5   S    
N12   N24   A    
C38   H33   S    
C77   O1    S    
C55   C121  S    
C72   H24   S    
C131  H81   S    
C69   C77   S    
C111  C112  A    
C26   H5    S    
C30   H15   S    
C46   C68   A    
C25   C90   S    
C56   N23   A    
C36   C37   S    
C33   H21   S    
N19   Ni5   S    
C83   C119  S    
C65   C70   S    
N26   N34   A    
C42   C77   S    
C95   H43   S    
N24   Ni6   S    
C97   N7    A    
C62   C111  S    
C98   N8    A    
C3    H88   S    
C98   H46   S    
N39   Ni4   S    
C51   C55   A    
C113  N22   A    
N3    N11   A    
C25   N35   T    
C130  H79   S    
C1    H1    S    
C15   O10   S    
C54   C59   A    
C17   H122  S    
C53   H67   S    
C11   H108  S    
C27   H7    S    
C116  C120  A    
N21   Ni7   S    
C84   O10   S    
C29   C30   S    
C85   O11   S    
C32   H20   S    
C72   H107  S    
C1    C117  A    
C64   C69   S    
C74   H39   S    
C113  C117  A    
C38   H31   S    
C71   H13   S    
C115  H62   S    
C115  C119  A    
C23   C88   S    
C11   H109  S    
C56   C119  A    
C3    C4    S    
N8    Ni7   S    
C40   C106  A    
C129  C130  S    
C113  H60   S    
N5    Ni6   S    
C76   N39   A    
C16   H117  S    
C129  O5    S    
C59   C125  S    
C4    H91   S    
C10   H104  S    
N19   N37   A    
C24   C103  A    
C76   H42   S    
C101  H48   S    
C76   C111  A    
C82   C88   D    
C67   N34   A    
C5    O7    S    
C20   H127  S    
C116  H64   S    
C34   H25   S    
C5    H92   S    
C10   H105  S    
C84   C118  S    
C75   H40   S    
C28   H9    S    
C13   C102  A    
N9    N40   A    
C58   C62   A    
C45   N12   A    
C100  C110  A    
C71   H96   S    
N13   Ni4   S    
C7    H99   S    
C26   C27   S    
C73   N36   A    
C30   C31   S    
C31   H17   S    
C95   N5    A    
C9    H103  S    
C29   H11   S    
C18   C19   S    
C36   H27   S    
C130  H80   S    
C16   C17   S    
C72   C81   S    
C14   H113  S    
C60   C66   A    
C55   C60   A    
N11   Ni4   S    
C109  N19   A    
C16   H119  S    
C110  N20   A    
C126  H69   S    
N7    N16   A    
C70   H85   S    
C3    C132  S    
C105  N15   A    
C44   C80   S    
C106  N16   A    
C103  N13   A    
C124  N29   T    
C40   C97   A    
N9    Ni3   S    
C99   N9    A    
C13   C93   A    
C99   H47   S    
N2    N10   A    
C97   H45   S    
C66   C71   S    
C43   C65   A    
N37   Ni3   S    
N2    Ni6   S    
C69   H118  S    
C99   C122  A    
C31   H16   S    
N23   Ni2   S    
C15   H115  S    
C128  H73   S    
C127  C128  S    
N14   Ni1   S    
C41   C50   S    
C37   H29   S    
C7    H97   S    
N26   Ni8   S    
C96   H44   S    
C9    H102  S    
C102  H49   S    
N12   Ni1   S    
C35   C95   A    
C18   H123  S    
N4    N13   A    
C32   C33   S    
C4    H90   S    
C6    H94   S    
C110  H58   S    
C112  N21   A    
N34   Ni2   S    
C52   C57   A    
C3    H87   S    
C79   O5    S    
C129  H78   S    
C23   N33   T    
N6    Ni5   S    
C127  H71   S    
N16   Ni2   S    
C40   C49   S    
C39   C48   S    
C44   C49   A    
C114  H61   S    
C107  H55   S    
N23   N25   A    
C103  H50   S    
C44   C66   A    
C28   H8    S    
N21   N39   A    
C19   H126  S    
C92   O2    S    
C60   C89   S    
C48   C54   A    
C93   O3    S    
C17   H121  S    
C94   O4    S    
C74   C89   A    
C43   C79   S    
C15   C16   S    
C89   C109  A    
C54   H68   S    
C121  N27   T    
C105  H53   S    
C81   O7    S    
C82   O8    S    
C8    C9    S    
C11   O9    S    
C13   C86   S    
C73   C78   A    
C116  N26   A    
C21   N31   T    
C128  H75   S    
C22   N32   T    
C43   C48   A    
N4    Ni8   S    
C125  N30   T    
N18   Ni6   S    
C38   H32   S    
C131  H82   S    
C67   H63   S    
C71   C80   S    
C30   H14   S    
C85   C87   D    
C109  H57   S    
C33   H22   S    
C2    C101  A    
C77   H34   S    
N1    Ni1   S    
C63   C100  S    
C24   C94   A    
C46   C81   S    
C61   C78   S    
C12   H111  S    
C33   C34   S    
N38   Ni4   S    
C2    C92   A    
C114  C118  A    
C20   H128  S    
C1    N1    A    
C34   H26   S    
C114  N24   A    
C12   C14   S    
C10   H106  S    
C28   H10   S    
C107  N17   A    
C127  H72   S    
C39   C105  A    
C83   C90   D    
C11   C12   S    
N15   Ni1   S    
C101  N10   A    
C46   C50   A    
C32   O3    S    
C58   C124  S    
N3    Ni7   S    
C8    H100  S    
C61   C68   A    
C4    H89   S    
C32   H19   S    
C75   C100  A    
C42   C47   A    
C20   H3    S    
C39   C96   A    
C36   H28   S    
N1    N22   A    
N5    N14   A    
C27   C28   S    
C41   C98   A    
C74   N37   A    
C93   N3    A    
C92   N2    A    
C14   H114  S    
