data_mof_unit_21493.cif
_audit_creation_date              2012-12-11T15:59:41-0500
_audit_creation_method            fapswitch 2.2
_symmetry_space_group_name_H-M    P1
_symmetry_Int_Tables_number       1
_space_group_crystal_system       triclinic
_cell_length_a                    10.729113
_cell_length_b                    10.740844
_cell_length_c                    17.054995
_cell_angle_alpha                 99.696393
_cell_angle_beta                  99.997753
_cell_angle_gamma                 60.520525
_cell_volume                      1677.05971217

loop_
_atom_site_label
_atom_site_type_symbol
_atom_type_description
_atom_site_fract_x
_atom_site_fract_y
_atom_site_fract_z
_atom_type_partial_charge
C1    C     C_R   0.354988 0.770772 0.398440 0.588758
C2    C     C_R   0.833878 0.214346 0.191680 -0.044263
C3    C     C_R   0.853916 0.219959 0.275993 -0.088914
C4    C     C_R   0.776503 0.476008 0.282050 0.355541
C5    C     C_R   0.777439 0.465208 0.200916 -0.107824
C6    C     C_R   0.840853 0.086887 0.147478 0.299449
C7    C     C_R   0.904555 0.959968 0.184645 0.376984
C8    C     C_R   0.944158 0.962307 0.266923 -0.127106
C9    C     C_R   0.914245 0.091721 0.312833 -0.129172
C10   C     C_R   0.813834 0.354009 0.320941 0.021178
C11   C     C_R   0.353510 0.817575 0.158311 -0.002355
C12   C     C_R   0.369028 0.346315 0.357481 0.572394
C13   C     C_R   0.445109 0.851740 0.217646 -0.026274
C14   C     C_R   0.424614 0.866698 0.299173 -0.003410
C15   C     C_R   0.276895 0.747172 0.258187 -0.154719
C16   C     C_R   0.279133 0.754837 0.179107 -0.132380
C17   C     C_R   0.558144 0.867818 0.198261 -0.137612
C18   C     C_R   0.641845 0.906724 0.257760 -0.076104
C19   C     C_R   0.610049 0.939989 0.336445 0.468767
C20   C     C_R   0.495869 0.928913 0.357092 0.287457
C21   C     C_R   0.341249 0.810048 0.318978 0.020833
C22   C     C_R   0.293344 0.273716 0.797824 -0.052920
C23   C     C_R   0.772658 0.379469 0.401724 0.550936
C24   C     C_R   0.420987 0.175834 0.761885 -0.021229
C25   C     C_R   0.472635 0.227870 0.712874 -0.010360
C26   C     C_R   0.238470 0.446321 0.705707 0.238101
C27   C     C_R   0.200624 0.405986 0.767105 0.387081
C28   C     C_R   0.503605 0.029904 0.777441 -0.056843
C29   C     C_R   0.644083 0.946757 0.757310 -0.060947
C30   C     C_R   0.704851 0.008252 0.721874 -0.060215
C31   C     C_R   0.620246 0.147748 0.700086 -0.053786
C32   C     C_R   0.374293 0.355374 0.676333 -0.068446
C33   C     C_1   0.846712 0.328847 0.705534 -0.015281
C34   C     C_R   0.381441 0.715148 0.631513 0.531834
C35   C     C_1   0.893436 0.293641 0.772192 -0.017090
C36   C     C_1   0.358768 0.764773 0.713783 -0.019780
C37   C     C_1   0.325749 0.811376 0.780695 -0.021422
C38   C     C_R   0.887296 0.310671 0.085362 0.567887
C39   C     C_R   0.319685 0.300323 0.119969 0.569991
C40   C     C_R   0.298468 0.886941 0.084113 0.537682
C41   C     C_R   0.943246 0.273360 0.854666 0.531914
C42   C     C_R   0.277309 0.251337 0.877057 0.532381
C43   C     C_R   0.280968 0.880841 0.857796 0.528631
C44   C     C_R   0.405639 0.375121 0.600314 0.532135
C45   C     C_R   0.777929 0.378410 0.629022 0.527039
C46   C     C_1   0.342902 0.336745 0.274081 -0.045889
C47   C     C_1   0.332145 0.326868 0.203264 -0.032914
C48   C     C_R   0.815353 0.333809 0.155796 -0.040088
Cr1   Cr    Cr6+3 0.608100 0.610860 0.522250 1.146574
Cr2   Cr    Cr6+3 0.288890 0.599990 0.488420 1.113662
Cr3   Cr    Cr6+3 0.603040 0.289190 0.489390 1.121938
Cr4   Cr    Cr6+3 0.053960 0.052250 0.967380 1.121613
Cr5   Cr    Cr6+3 0.059890 0.373160 0.992710 1.128634
Cr6   Cr    Cr6+3 0.373370 0.061690 0.991710 1.068733
H1    H     H_    0.730618 0.912498 0.242296 0.172786
H2    H     H_    0.461068 0.980149 0.806227 0.144602
H3    H     H_    0.706976 0.836446 0.771632 0.166841
H4    H     H_    0.816221 0.947056 0.709500 0.172982
H5    H     H_    0.670894 0.191698 0.672792 0.142409
H6    H     H_    0.758909 0.558374 0.174210 0.169388
H7    H     H_    0.988356 0.865104 0.296158 0.166418
H8    H     H_    0.941854 0.090081 0.376912 0.173381
H9    H     H_    0.223916 0.690609 0.271391 0.155126
H10   H     H_    0.589626 0.840816 0.138268 0.180566
H11   H     H_    0.216186 0.718365 0.134242 0.193743
O1    O     O_R   0.749810 0.499790 0.438040 -0.415518
O2    O     O_R   0.298970 0.468800 0.557390 -0.436429
O3    O     O_R   0.489400 0.255930 0.561910 -0.440031
O4    O     O_R   0.723890 0.306050 0.584610 -0.539366
O5    O     O_3   0.500010 0.500010 0.500020 -0.338803
O6    O     O_R   0.171100 0.914680 0.053100 -0.478266
O7    O     O_R   0.941680 0.184840 0.050710 -0.450252
O8    O     O_R   0.922080 0.403420 0.072610 -0.508631
O9    O     O_R   0.196880 0.369150 0.083850 -0.482644
O10   O     O_R   0.411730 0.181020 0.091530 -0.468651
O11   O     O_R   0.365010 0.944360 0.063320 -0.511406
O12   O     O_R   0.477660 0.726260 0.439290 -0.428042
O13   O     O_R   0.159380 0.906670 0.876210 -0.470300
O14   O     O_R   0.930820 0.177420 0.886730 -0.480693
O15   O     O_R   0.910360 0.395420 0.895720 -0.462427
O16   O     O_R   0.186010 0.361730 0.919870 -0.424918
O17   O     O_R   0.400000 0.173010 0.914630 -0.480970
O18   O     O_R   0.354140 0.936940 0.899340 -0.544925
O19   O     O_3   0.162410 0.162370 0.983930 -0.326676
O20   O     O_R   0.260150 0.743000 0.412270 -0.531746
O21   O     O_R   0.297740 0.466550 0.394720 -0.494102
O22   O     O_R   0.488080 0.253500 0.386430 -0.432668
O23   O     O_R   0.722670 0.303800 0.421940 -0.498324
O24   O     O_R   0.751130 0.502220 0.613520 -0.473409
O25   O     O_R   0.478890 0.728510 0.601960 -0.478839
O26   O     O_R   0.261470 0.745430 0.587750 -0.452469
F1    F     F_    0.740935 0.607429 0.322149 -0.619065
F2    F     F_    0.692280 0.980860 0.392898 -0.586011
Cl1   Cl    Cl    0.436077 0.010208 0.451973 -0.504825
Cl2   Cl    Cl    0.113384 0.616209 0.672337 -0.501190
F3    F     F_    0.073182 0.497392 0.797194 -0.575640
Cl3   Cl    Cl    0.746133 0.088356 0.051452 -0.495767
F4    F     F_    0.919476 0.835545 0.142030 -0.626025

loop_
_geom_bond_atom_site_label_1
_geom_bond_atom_site_label_2
_ccdc_geom_bond_type
C25   C31   A    
C1    C21   S    
C7    F4    S    
C43   O18   A    
C19   C20   A    
C42   O17   A    
Cr1   O25   S    
C41   O15   A    
Cr6   O19   S    
C28   H2    S    
C7    C8    A    
C43   O13   A    
C26   C32   A    
C26   C27   A    
Cr5   O19   S    
Cr4   O7    S    
C14   C21   A    
C28   C29   A    
C40   O6    A    
C17   H10   S    
C30   C31   A    
C15   C16   A    
C33   C45   S    
Cr5   O16   S    
C18   C19   A    
C39   O9    A    
C31   H5    S    
Cr4   O19   S    
C34   O26   A    
Cr2   O20   S    
Cr5   O9    S    
C8    C9    A    
Cr3   O5    S    
C39   O10   A    
Cr4   O14   S    
C45   O24   A    
Cr2   O2    S    
C38   C48   S    
C19   F2    S    
C8    H7    S    
C25   C32   A    
C13   C14   A    
C27   F3    S    
C2    C6    A    
C42   O16   A    
Cr4   O13   S    
Cr6   O18   S    
C1    O20   A    
C5    C48   A    
C38   O7    A    
Cr1   O1    S    
C45   O4    A    
C9    H8    S    
C6    Cl3   S    
C14   C20   A    
Cr5   O15   S    
C24   C25   A    
C12   C46   S    
Cr3   O22   S    
C2    C48   A    
C40   O11   A    
C37   C43   S    
C34   O25   A    
C29   C30   A    
C3    C9    A    
C11   C16   A    
C17   C18   A    
C32   C44   S    
C18   H1    S    
Cr6   O11   S    
C29   H3    S    
C23   O23   A    
C22   C27   A    
C22   C24   A    
C44   O3    A    
C4    C10   A    
Cr6   O17   S    
C23   O1    A    
C39   C47   S    
C26   Cl2   S    
C20   Cl1   S    
C46   C47   T    
C36   C37   T    
C12   O22   A    
Cr5   O8    S    
C24   C28   A    
Cr1   O24   S    
C4    C5    A    
Cr3   O23   S    
C41   O14   A    
C6    C7    A    
C12   O21   A    
C10   C23   S    
Cr3   O4    S    
C13   C17   A    
Cr1   O5    S    
C2    C3    A    
Cr2   O5    S    
Cr4   O6    S    
C11   C13   A    
C22   C42   S    
C30   H4    S    
C33   C35   T    
Cr1   O12   S    
C34   C36   S    
Cr3   O3    S    
C5    H6    S    
C11   C40   S    
C35   C41   S    
Cr2   O21   S    
Cr6   O10   S    
Cr2   O26   S    
C15   C21   A    
C3    C10   A    
C15   H9    S    
C44   O2    A    
C16   H11   S    
C1    O12   A    
C4    F1    S    
C38   O8    A    
