data_mof_unit_57778.cif
_audit_creation_date              2013-03-05T15:56:12-0500
_audit_creation_method            fapswitch 2.2
_symmetry_space_group_name_H-M    P1
_symmetry_Int_Tables_number       1
_space_group_crystal_system       triclinic
_cell_length_a                    6.924758
_cell_length_b                    14.47821
_cell_length_c                    16.200492
_cell_angle_alpha                 89.99999
_cell_angle_beta                  90.000751
_cell_angle_gamma                 89.999925
_cell_volume                      1624.23055532

loop_
_atom_site_label
_atom_site_type_symbol
_atom_site_description
_atom_site_fract_x
_atom_site_fract_y
_atom_site_fract_z
_atom_type_partial_charge
O1    O     O_R   0.638140 0.833910 0.163320 -0.563008
O2    O     O_R   0.361860 0.166090 0.836680 -0.562987
O3    O     O_R   0.361860 0.166090 0.663320 -0.563028
O4    O     O_R   0.638140 0.833910 0.336680 -0.563005
O5    O     O_R   0.138140 0.666090 0.336680 -0.563006
O6    O     O_R   0.861860 0.333910 0.663320 -0.563029
O7    O     O_R   0.861860 0.333910 0.836680 -0.562991
O8    O     O_R   0.138140 0.666090 0.163320 -0.563007
O9    O     O_R   0.308390 0.844930 0.336080 -0.575468
O10   O     O_R   0.691610 0.155070 0.663920 -0.575570
O11   O     O_R   0.691610 0.155070 0.836080 -0.575467
O12   O     O_R   0.308390 0.844930 0.163920 -0.575494
O13   O     O_R   0.808390 0.655070 0.163920 -0.575583
O14   O     O_R   0.191610 0.344930 0.836080 -0.575420
O15   O     O_R   0.191610 0.344930 0.663920 -0.575590
O16   O     O_R   0.808390 0.655070 0.336080 -0.575445
C1    C     C_R   0.476839 0.867617 0.364629 1.139273
C2    C     C_R   0.523159 0.132393 0.635363 1.139285
C3    C     C_R   0.523164 0.132387 0.864633 1.139330
C4    C     C_R   0.476838 0.867615 0.135370 1.139259
C5    C     C_R   0.976841 0.632392 0.135365 1.139297
C6    C     C_R   0.023165 0.367618 0.864629 1.139312
C7    C     C_R   0.023156 0.367608 0.635365 1.139269
C8    C     C_R   0.976837 0.632384 0.364631 1.139302
O17   O     O_3   0.471620 0.691320 0.250000 -0.251690
O18   O     O_3   0.528380 0.308680 0.750000 -0.251682
O19   O     O_3   0.971620 0.808680 0.250000 -0.251659
O20   O     O_3   0.028380 0.191320 0.750000 -0.251692
V1    V     V_3+5 0.196770 0.760880 0.250000 1.400056
V2    V     V_3+5 0.803230 0.239120 0.750000 1.400033
V3    V     V_3+5 0.696770 0.739120 0.250000 1.400043
V4    V     V_3+5 0.303230 0.260880 0.750000 1.400040
C9    C     C_R   0.850095 0.491730 0.441828 0.151756
C10   C     C_R   0.149832 0.508256 0.558177 0.151837
C11   C     C_R   0.149914 0.508270 0.941832 0.151729
C12   C     C_R   0.850142 0.491752 0.058164 0.151851
C13   C     C_R   0.350125 0.008267 0.058173 0.151777
C14   C     C_R   0.649899 0.991743 0.941840 0.151771
C15   C     C_R   0.649870 0.991752 0.558162 0.151865
C16   C     C_R   0.350124 0.008278 0.441817 0.151768
C17   C     C_R   0.866085 0.428117 0.506985 0.789847
C18   C     C_R   0.133875 0.571863 0.493018 0.789783
C19   C     C_R   0.133918 0.571881 0.006989 0.789884
C20   C     C_R   0.866114 0.428144 0.993006 0.789757
C21   C     C_R   0.366112 0.071875 0.993015 0.789806
C22   C     C_R   0.633902 0.928132 0.006996 0.789803
C23   C     C_R   0.633896 0.928142 0.493007 0.789766
C24   C     C_R   0.366106 0.071887 0.506975 0.789859
C25   C     C_R   0.014260 0.435509 0.566131 -0.623324
C26   C     C_R   0.985702 0.564474 0.433865 -0.623299
C27   C     C_R   0.985730 0.564493 0.066128 -0.623355
C28   C     C_R   0.014303 0.435528 0.933863 -0.623291
C29   C     C_R   0.514296 0.064485 0.933872 -0.623324
C30   C     C_R   0.485714 0.935521 0.066136 -0.623306
C31   C     C_R   0.485716 0.935529 0.433859 -0.623309
C32   C     C_R   0.514278 0.064494 0.566124 -0.623336
N1    N     N_R   0.698395 0.479160 0.382850 0.273442
O21   O     O_R   0.544399 0.530320 0.387529 -0.307548
O22   O     O_R   0.691733 0.403140 0.340175 -0.249693
N2    N     N_R   0.301374 0.520870 0.617215 0.273483
O23   O     O_R   0.455777 0.470000 0.612425 -0.307511
O24   O     O_R   0.307212 0.596664 0.660244 -0.250221
N3    N     N_R   0.301628 0.520839 0.882861 0.273419
O25   O     O_R   0.455567 0.469635 0.887517 -0.307538
O26   O     O_R   0.308408 0.596907 0.840248 -0.249607
N4    N     N_R   0.698545 0.479152 0.117183 0.273515
O27   O     O_R   0.544184 0.530046 0.112383 -0.307495
O28   O     O_R   0.692610 0.403366 0.160196 -0.250201
N5    N     N_R   0.198482 0.020856 0.117171 0.273445
O29   O     O_R   0.044358 0.969790 0.112464 -0.307531
O30   O     O_R   0.192092 0.096801 0.159957 -0.249951
N6    N     N_R   0.801581 0.979164 0.882859 0.273455
O31   O     O_R   0.955640 0.030277 0.887557 -0.307536
O32   O     O_R   0.808116 0.903179 0.840131 -0.249769
N7    N     N_R   0.801476 0.979158 0.617174 0.273516
O33   O     O_R   0.955771 0.030087 0.612399 -0.307519
O34   O     O_R   0.807522 0.903341 0.660120 -0.250134
N8    N     N_R   0.198465 0.020858 0.382822 0.273428
O35   O     O_R   0.044391 0.969753 0.387516 -0.307541
O36   O     O_R   0.191973 0.096833 0.340074 -0.249884
F1    F     F_    0.736724 0.357664 0.511466 -0.609273
F2    F     F_    0.263202 0.642333 0.488568 -0.609257
F3    F     F_    0.263287 0.642332 0.011477 -0.609236
F4    F     F_    0.736776 0.357679 0.988547 -0.609255
F5    F     F_    0.236767 0.142337 0.988542 -0.609228
F6    F     F_    0.763253 0.857674 0.011473 -0.609245
F7    F     F_    0.763228 0.857675 0.488548 -0.609256
F8    F     F_    0.236757 0.142347 0.511448 -0.609270

loop_
_geom_bond_atom_site_label_1
_geom_bond_atom_site_label_2
_geom_bond_distance
_ccdc_geom_bond_type
O17   V3    1.705805 S    
N4    O28   1.300464 A    
N3    O26   1.300657 A    
O18   V4    1.705805 S    
C13   N5    1.431600 S    
O12   V1    2.005750 S    
O19   V1    1.705804 S    
N6    O32   1.300563 A    
C19   F3    1.359495 S    
C18   F2    1.359485 S    
C19   C27   1.407980 A    
O15   V4    2.005735 S    
O16   V3    2.005734 S    
C14   C29   1.416898 A    
O11   C3    1.297091 A    
O3    C2    1.300291 A    
O8    V1    2.005048 S    
N2    O24   1.300680 A    
N8    O36   1.300613 A    
N1    O22   1.300570 A    
O1    V3    2.005047 S    
O17   V1    2.153297 S    
O2    V4    2.005046 S    
N5    O30   1.300544 A    
C16   C24   1.405236 A    
O11   V2    2.005749 S    
O1    C4    1.300304 A    
C10   C18   1.405198 A    
C24   F8    1.359488 S    
C15   N7    1.431552 S    
C11   C19   1.405242 A    
C1    C31   1.492797 S    
C2    C32   1.492784 S    
C20   C28   1.408029 A    
O15   C7    1.297118 A    
N4    O27   1.300598 A    
C21   C29   1.408014 A    
O16   C8    1.297088 A    
O7    V2    2.005047 S    
C10   N2    1.431556 S    
O12   C4    1.297094 A    
O3    V4    2.005055 S    
C17   C25   1.407978 A    
O5    V1    2.005054 S    
C8    C26   1.492821 S    
C14   N6    1.431610 S    
O19   V3    2.153300 S    
O20   V4    2.153300 S    
C4    C30   1.492779 S    
N8    O35   1.300609 A    
C9    C26   1.416935 A    
C15   C23   1.405200 A    
N2    O23   1.300636 A    
C23   F7    1.359487 S    
C21   F5    1.359489 S    
N7    O33   1.300504 A    
O10   V2    2.005737 S    
C15   C32   1.416837 A    
C16   C31   1.416899 A    
C17   F1    1.359488 S    
C22   C30   1.407994 A    
O8    C5    1.300275 A    
O13   C5    1.297114 A    
N7    O34   1.300286 A    
C12   C27   1.416813 A    
C18   C26   1.408031 A    
C13   C30   1.416874 A    
O9    C1    1.297094 A    
O6    V2    2.005055 S    
O18   V2    2.153297 S    
C16   N8    1.431615 S    
C12   C20   1.405198 A    
O4    C1    1.300313 A    
C13   C21   1.405225 A    
C5    C27   1.492764 S    
C23   C31   1.408010 A    
C24   C32   1.407997 A    
C10   C25   1.416790 A    
C9    N1    1.431624 S    
O2    C3    1.300319 A    
O13   V3    2.005749 S    
O14   V4    2.005748 S    
N6    O31   1.300593 A    
C20   F4    1.359481 S    
O9    V1    2.005735 S    
O7    C6    1.300334 A    
C9    C17   1.405240 A    
O14   C6    1.297083 A    
O20   V2    1.705804 S    
C3    C29   1.492802 S    
N1    O21   1.300598 A    
O5    C8    1.300331 A    
O10   C2    1.297107 A    
O6    C7    1.300265 A    
C6    C28   1.492817 S    
C12   N4    1.431613 S    
N5    O29   1.300586 A    
C14   C22   1.405218 A    
O4    V3    2.005054 S    
C7    C25   1.492758 S    
N3    O25   1.300619 A    
C11   C28   1.416938 A    
C11   N3    1.431631 S    
C22   F6    1.359490 S    
