data_mof_unit_14318.cif
_audit_creation_date              2012-10-26T18:40:11-0400
_audit_creation_method            fapswitch 2.2
_symmetry_space_group_name_H-M    P1
_symmetry_Int_Tables_number       1
_space_group_crystal_system       triclinic
_cell_length_a                    8.81365
_cell_length_b                    15.200089
_cell_length_c                    13.808983
_cell_angle_alpha                 90.084963
_cell_angle_beta                  97.803565
_cell_angle_gamma                 90.42526
_cell_volume                      1832.77740887

loop_
_atom_site_label
_atom_site_type_symbol
_atom_type_description
_atom_site_fract_x
_atom_site_fract_y
_atom_site_fract_z
_atom_type_partial_charge
C1    C     C_R   0.500581 0.329868 0.499938 0.590207
C2    C     C_R   0.610461 0.553878 0.901322 0.047579
C3    C     C_R   0.496062 0.502660 0.054119 0.019585
C4    C     C_R   0.502994 0.502518 0.945691 0.019714
C5    C     C_R   0.204211 0.497469 0.475645 0.585081
C6    C     C_R   0.795968 0.498780 0.524877 0.609136
C7    C     C_2   0.040602 0.484323 0.464868 -0.018180
C8    C     C_2   0.960277 0.508441 0.538207 0.018505
C9    C     C_R   0.578233 0.095112 0.579964 -0.106701
C10   C     C_R   0.370636 0.904517 0.457182 -0.102660
C11   C     C_R   0.585696 0.186820 0.578669 0.030877
C12   C     C_R   0.497015 0.669809 0.499703 0.621388
C13   C     C_R   0.368245 0.812656 0.454102 0.027448
C14   C     C_R   0.501964 0.233170 0.499764 -0.027305
C15   C     C_R   0.497344 0.766018 0.499502 -0.016056
C16   C     C_R   0.419708 0.185439 0.420691 0.025161
C17   C     C_R   0.628275 0.812656 0.544165 0.026236
C18   C     C_R   0.426466 0.093865 0.420417 -0.106004
C19   C     C_R   0.627801 0.904412 0.544103 -0.098409
C20   C     C_R   0.501401 0.048062 0.500641 -0.014525
C21   C     C_R   0.499692 0.950900 0.501169 -0.009256
C22   C     C_2   0.974951 0.427626 0.381250 0.602729
C23   C     C_R   0.581682 0.440219 0.112918 -0.115065
C24   C     C_2   0.027198 0.556169 0.629095 0.611735
C25   C     C_2   0.688345 0.230691 0.658922 0.593246
C26   C     C_2   0.227984 0.768655 0.403791 0.596730
C27   C     C_2   0.319489 0.227549 0.338895 0.587396
C28   C     C_2   0.770855 0.768334 0.587182 0.590749
C29   C     C_2   0.311669 0.632878 0.045902 0.582809
C30   C     C_2   0.729551 0.610715 0.958391 0.585429
C31   C     C_R   0.397575 0.450248 0.884746 -0.121018
C32   C     C_R   0.581995 0.439903 0.214686 0.085154
C33   C     C_R   0.397891 0.449828 0.783032 0.072716
C34   C     C_R   0.413812 0.560715 0.203685 0.078303
C35   C     C_R   0.604522 0.551012 0.798238 0.080140
C36   C     C_R   0.408547 0.564280 0.100658 0.054852
Cu1   Cu    Cu3+1 0.500000 0.499990 0.596430 1.088012
Cu2   Cu    Cu3+1 0.500000 0.500010 0.403570 1.082434
H1    H     H_    0.636287 0.060224 0.642458 0.165346
H2    H     H_    0.683917 0.589961 0.762620 0.191693
H3    H     H_    0.864232 0.314666 0.337711 0.338404
H4    H     H_    0.049642 0.562873 0.776301 0.364393
H5    H     H_    0.771456 0.233154 0.802427 0.349429
H6    H     H_    0.080027 0.666707 0.397555 0.354427
H7    H     H_    0.242635 0.228565 0.194477 0.350665
H8    H     H_    0.956294 0.769698 0.690537 0.379229
H9    H     H_    0.176933 0.739081 0.052506 0.360010
H10   H     H_    0.908180 0.694379 0.955856 0.364327
H11   H     H_    0.269259 0.940020 0.426586 0.153719
H12   H     H_    0.368978 0.058064 0.357924 0.165191
H13   H     H_    0.730546 0.939683 0.574606 0.158813
H14   H     H_    0.649174 0.392102 0.080080 0.127156
H15   H     H_    0.314268 0.410282 0.915897 0.128746
H16   H     H_    0.647991 0.391241 0.258515 0.146770
H17   H     H_    0.315640 0.409387 0.737299 0.148878
H18   H     H_    0.347963 0.606610 0.240689 0.186871
N1    N     N_R   0.500000 0.500020 0.258690 -0.253065
N2    N     N_R   0.500000 0.499980 0.741310 -0.251740
O1    O     O_R   0.500010 0.371450 0.581430 -0.496508
O2    O     O_R   0.895350 0.350673 0.399118 -0.669791
O3    O     O_2   0.102485 0.623507 0.623860 -0.446143
O4    O     O_R   0.999722 0.524830 0.720317 -0.675089
O5    O     O_2   0.769988 0.292457 0.641352 -0.471667
O6    O     O_R   0.696544 0.198585 0.754320 -0.688201
O7    O     O_2   0.152487 0.804416 0.334106 -0.474432
O8    O     O_R   0.178787 0.688195 0.437063 -0.656615
O9    O     O_2   0.235505 0.287991 0.354848 -0.479281
O10   O     O_R   0.316315 0.195216 0.243783 -0.688671
O11   O     O_2   0.811909 0.701129 0.550204 -0.508276
O12   O     O_R   0.499990 0.628550 0.418570 -0.498440
O13   O     O_R   0.861504 0.805530 0.668115 -0.666945
O14   O     O_2   0.293820 0.634754 0.956587 -0.502745
O15   O     O_R   0.239201 0.695911 0.097240 -0.669502
O16   O     O_2   0.739285 0.616071 0.047353 -0.476540
O17   O     O_R   0.832393 0.658509 0.909687 -0.685997
O18   O     O_R   0.500010 0.371460 0.418560 -0.487367
O19   O     O_R   0.499990 0.628540 0.581440 -0.478276
O20   O     O_R   0.274840 0.499990 0.562640 -0.499991
O21   O     O_R   0.725160 0.500010 0.437360 -0.499338
O22   O     O_R   0.274840 0.500000 0.399770 -0.457308
O23   O     O_R   0.725160 0.500000 0.600230 -0.458161
O24   O     O_2   0.995327 0.446533 0.297909 -0.472144

loop_
_geom_bond_atom_site_label_1
_geom_bond_atom_site_label_2
_ccdc_geom_bond_type
C2    C35   A    
C33   H17   S    
Cu2   O12   S    
C34   H18   S    
C24   O3    D    
C3    C23   A    
C28   O11   D    
C23   H14   S    
C7    C8    D    
Cu2   O18   S    
C29   C36   S    
C33   N2    A    
C35   N2    A    
C22   O24   D    
C19   C21   A    
C1    O1    A    
C22   O2    S    
C30   O16   D    
C11   C14   A    
C29   O15   S    
Cu2   O21   S    
C11   C25   S    
C9    H1    S    
C25   O5    D    
C27   O10   S    
C17   C19   A    
H6    O8    S    
C34   N1    A    
C31   C33   A    
H4    O4    S    
C34   C36   A    
Cu1   N2    S    
C29   O14   D    
C16   C27   S    
C6    O23   A    
C1    O18   A    
H10   O17   S    
Cu1   O23   S    
C32   N1    A    
C32   H16   S    
H5    O6    S    
C10   C21   A    
C26   O8    S    
H9    O15   S    
C5    C7    S    
C6    C8    S    
Cu1   O19   S    
C25   O6    S    
C2    C4    A    
Cu1   Cu2   S    
Cu2   N1    S    
C9    C20   A    
C12   C15   S    
C12   O19   A    
C17   C28   S    
H7    O10   S    
C31   H15   S    
C5    O22   A    
C9    C11   A    
H8    O13   S    
Cu1   O1    S    
C13   C15   A    
C14   C16   A    
C13   C26   S    
C28   O13   S    
C3    C4    S    
C18   H12   S    
C15   C17   A    
C12   O12   A    
C24   O4    S    
C26   O7    D    
H3    O2    S    
C10   C13   A    
C7    C22   S    
Cu1   O20   S    
C2    C30   S    
C23   C32   A    
C35   H2    S    
C30   O17   S    
C6    O21   A    
Cu2   O22   S    
C3    C36   A    
C8    C24   S    
C18   C20   A    
C4    C31   A    
C27   O9    D    
C19   H13   S    
C20   C21   S    
C16   C18   A    
C1    C14   S    
C5    O20   A    
C10   H11   S    
