data_mof_unit_50583.cif
_audit_creation_date              2012-12-11T15:08:57-0500
_audit_creation_method            fapswitch 2.2
_symmetry_space_group_name_H-M    P1
_symmetry_Int_Tables_number       1
_space_group_crystal_system       triclinic
_cell_length_a                    19.608308
_cell_length_b                    11.234829
_cell_length_c                    18.688036
_cell_angle_alpha                 90.719236
_cell_angle_beta                  90.26831
_cell_angle_gamma                 89.886111
_cell_volume                      4116.52218181

loop_
_atom_site_label
_atom_site_type_symbol
_atom_type_description
_atom_site_fract_x
_atom_site_fract_y
_atom_site_fract_z
_atom_type_partial_charge
C1    C     C_R   0.272746 0.043925 0.853983 0.539739
C2    C     C_R   0.727217 0.043161 0.145852 0.531441
C3    C     C_R   0.772746 0.543925 0.853983 0.539739
C4    C     C_R   0.227216 0.543161 0.145852 0.531441
C5    C     C_3   0.519096 0.721546 0.963927 -0.110469
C6    C     C_3   0.479926 0.722042 0.034824 -0.113652
C7    C     C_3   0.019096 0.221546 0.963927 -0.110469
C8    C     C_3   0.979926 0.222042 0.034824 -0.113652
C9    C     C_3   0.311225 0.528458 0.043689 -0.235050
C10   C     C_3   0.688852 0.528839 0.955312 -0.234865
C11   C     C_3   0.811225 0.028458 0.043689 -0.235050
C12   C     C_3   0.188852 0.028839 0.955312 -0.234865
C13   C     C_3   0.320563 0.552882 0.963361 -0.234114
C14   C     C_3   0.679434 0.552062 0.035992 -0.236206
C15   C     C_3   0.820563 0.052882 0.963361 -0.234114
C16   C     C_3   0.179434 0.052062 0.035992 -0.236206
C17   C     C_3   0.180119 0.524291 0.024987 -0.208878
C18   C     C_3   0.820117 0.523520 0.973794 -0.209600
C19   C     C_3   0.680119 0.024291 0.024987 -0.208878
C20   C     C_3   0.320117 0.023520 0.973794 -0.209600
C21   C     C_3   0.241023 0.708461 0.057783 -0.256751
C22   C     C_3   0.759276 0.708622 0.944520 -0.258815
C23   C     C_3   0.741023 0.208462 0.057783 -0.256751
C24   C     C_3   0.259276 0.208621 0.944520 -0.258815
C25   C     C_3   0.240890 0.574732 0.070291 0.065345
C26   C     C_3   0.759324 0.575143 0.929707 0.064212
C27   C     C_3   0.740890 0.074732 0.070291 0.065345
C28   C     C_3   0.259324 0.075143 0.929707 0.064212
C29   C     C_3   0.255133 0.610715 0.932296 0.054952
C30   C     C_3   0.744839 0.609233 0.067905 0.055622
C31   C     C_3   0.755133 0.110715 0.932296 0.054953
C32   C     C_3   0.244840 0.109233 0.067905 0.055623
C33   C     C_3   0.195336 0.525631 0.944196 -0.252515
C34   C     C_3   0.804751 0.524059 0.054528 -0.254863
C35   C     C_3   0.695336 0.025631 0.944196 -0.252515
C36   C     C_3   0.304751 0.024059 0.054528 -0.254863
C37   C     C_3   0.238998 0.726816 0.975865 -0.223271
C38   C     C_3   0.760849 0.725821 0.026664 -0.221039
C39   C     C_3   0.738998 0.226816 0.975865 -0.223271
C40   C     C_3   0.260849 0.225821 0.026664 -0.221039
C41   C     C_3   0.498736 0.693828 0.456293 0.050184
C42   C     C_3   0.480544 0.696124 0.534909 0.062573
C43   C     C_3   0.998736 0.193828 0.456293 0.050184
C44   C     C_3   0.980544 0.196124 0.534909 0.062574
C45   C     C_R   0.444217 0.817620 0.862570 0.539489
C46   C     C_R   0.555871 0.816445 0.137480 0.540607
C47   C     C_R   0.944217 0.317620 0.862570 0.539490
C48   C     C_R   0.055871 0.316445 0.137480 0.540607
C49   C     C_3   0.576268 0.864325 0.474635 -0.256771
C50   C     C_3   0.452946 0.920056 0.532324 -0.259554
C51   C     C_3   0.076268 0.364325 0.474635 -0.256771
C52   C     C_3   0.952946 0.420056 0.532324 -0.259554
C53   C     C_3   0.454460 0.906628 0.450197 -0.277208
C54   C     C_3   0.568568 0.851432 0.557109 -0.272771
C55   C     C_3   0.954460 0.406628 0.450197 -0.277208
C56   C     C_3   0.068568 0.351431 0.557109 -0.272772
C57   C     C_3   0.513122 0.823627 0.431355 0.039097
C58   C     C_3   0.494548 0.821733 0.570609 0.046457
C59   C     C_3   0.013122 0.323627 0.431355 0.039097
C60   C     C_3   0.994548 0.321733 0.570609 0.046458
C61   C     C_3   0.175283 0.648986 0.461144 -0.226663
C62   C     C_3   0.828285 0.628939 0.536547 -0.231315
C63   C     C_3   0.675283 0.148986 0.461144 -0.226663
C64   C     C_3   0.328285 0.128939 0.536547 -0.231315
C65   C     C_3   0.176701 0.650615 0.541655 -0.220728
C66   C     C_3   0.823923 0.640329 0.456554 -0.232716
C67   C     C_3   0.676701 0.150615 0.541655 -0.220728
C68   C     C_3   0.323923 0.140329 0.456554 -0.232716
C69   C     C_3   0.240901 0.450257 0.471532 -0.221174
C70   C     C_3   0.771253 0.427322 0.508907 -0.259522
C71   C     C_3   0.740901 0.950257 0.471532 -0.221174
C72   C     C_3   0.271252 0.927322 0.508907 -0.259522
C73   C     C_3   0.299057 0.636426 0.447470 -0.267825
C74   C     C_3   0.704976 0.593039 0.557390 -0.233409
C75   C     C_3   0.799057 0.136426 0.447470 -0.267825
C76   C     C_3   0.204975 0.093039 0.557390 -0.233409
C77   C     C_3   0.234696 0.570408 0.431725 0.056411
C78   C     C_3   0.774933 0.535845 0.562327 0.060026
C79   C     C_3   0.734696 0.070408 0.431725 0.056411
C80   C     C_3   0.274933 0.035845 0.562327 0.060026
C81   C     C_3   0.245819 0.596898 0.570592 0.068258
C82   C     C_3   0.752259 0.597435 0.429683 0.069258
C83   C     C_3   0.745819 0.096898 0.570592 0.068258
C84   C     C_3   0.252259 0.097435 0.429683 0.069258
C85   C     C_3   0.241955 0.463316 0.554546 -0.269008
C86   C     C_3   0.749829 0.462821 0.432522 -0.241909
C87   C     C_3   0.741955 0.963316 0.554546 -0.269009
C88   C     C_3   0.249829 0.962821 0.432522 -0.241910
C89   C     C_R   0.262407 0.642678 0.855125 0.534217
C90   C     C_R   0.737815 0.641104 0.145247 0.534980
C91   C     C_R   0.762407 0.142679 0.855125 0.534217
C92   C     C_R   0.237815 0.141104 0.145247 0.534980
C93   C     C_3   0.308221 0.641054 0.528950 -0.209529
C94   C     C_3   0.697307 0.642576 0.482249 -0.256607
C95   C     C_3   0.808221 0.141054 0.528950 -0.209529
C96   C     C_3   0.197307 0.142576 0.482249 -0.256607
C97   C     C_R   0.288889 0.003611 0.638272 0.542881
C98   C     C_R   0.725591 0.043248 0.354623 0.533959
C99   C     C_R   0.788889 0.503611 0.638272 0.542881
C100  C     C_R   0.225591 0.543248 0.354623 0.533959
C101  C     C_R   0.472111 0.821886 0.647261 0.550188
C102  C     C_R   0.531337 0.822853 0.354410 0.544449
C103  C     C_R   0.972110 0.321886 0.647261 0.550189
C104  C     C_R   0.031337 0.322853 0.354410 0.544449
C105  C     C_R   0.258532 0.633755 0.646262 0.531472
C106  C     C_R   0.738815 0.642573 0.356853 0.542954
C107  C     C_R   0.758532 0.133755 0.646262 0.531472
C108  C     C_R   0.238815 0.142573 0.356853 0.542953
C109  C     C_3   0.480404 0.916783 0.036602 -0.108592
C110  C     C_3   0.520539 0.916271 0.965219 -0.109710
C111  C     C_3   0.980404 0.416783 0.036602 -0.108592
C112  C     C_3   0.020539 0.416271 0.965219 -0.109710
C113  C     C_3   0.432126 0.819333 0.006650 -0.159465
C114  C     C_3   0.567817 0.816885 0.993633 -0.158842
C115  C     C_3   0.932126 0.319333 0.006650 -0.159466
C116  C     C_3   0.067817 0.316885 0.993633 -0.158842
C117  C     C_3   0.472214 0.820562 0.936114 0.058453
C118  C     C_3   0.527742 0.818961 0.064119 0.058789
C119  C     C_3   0.972214 0.320562 0.936114 0.058453
C120  C     C_3   0.027742 0.318961 0.064119 0.058789
Cr1   Cr    Cr6+3 0.229620 0.836040 0.749110 0.991130
Cr2   Cr    Cr6+3 0.770380 0.836040 0.250890 0.981365
Cr3   Cr    Cr6+3 0.729620 0.336040 0.749110 0.991130
Cr4   Cr    Cr6+3 0.270380 0.336040 0.250890 0.981366
Cr5   Cr    Cr6+3 0.387630 0.990680 0.750730 0.989851
Cr6   Cr    Cr6+3 0.612370 0.990680 0.249270 0.992429
Cr7   Cr    Cr6+3 0.887630 0.490680 0.750730 0.989851
Cr8   Cr    Cr6+3 0.112370 0.490680 0.249270 0.992429
Cr9   Cr    Cr6+3 0.386020 0.676590 0.749210 0.989368
Cr10  Cr    Cr6+3 0.613980 0.676590 0.250790 0.980326
Cr11  Cr    Cr6+3 0.886020 0.176590 0.749210 0.989366
Cr12  Cr    Cr6+3 0.113980 0.176590 0.250790 0.980325
H1    H     H_    0.377716 0.807230 0.017670 0.092058
H2    H     H_    0.622130 0.802340 0.982906 0.091287
H3    H     H_    0.877716 0.307230 0.017670 0.092058
H4    H     H_    0.122130 0.302340 0.982906 0.091287
H5    H     H_    0.196290 0.752922 0.083058 0.126627
H6    H     H_    0.804228 0.752809 0.920367 0.126493
H7    H     H_    0.696290 0.252922 0.083058 0.126627
H8    H     H_    0.304228 0.252809 0.920367 0.126493
H9    H     H_    0.287500 0.746625 0.082666 0.103600
H10   H     H_    0.713048 0.747415 0.920071 0.104806
H11   H     H_    0.787500 0.246625 0.082666 0.103600
H12   H     H_    0.213048 0.247415 0.920071 0.104806
H13   H     H_    0.273622 0.796723 0.960470 0.109425
H14   H     H_    0.726089 0.795618 0.043631 0.110963
H15   H     H_    0.773622 0.296723 0.960470 0.109425
H16   H     H_    0.226089 0.295618 0.043631 0.110963
H17   H     H_    0.186133 0.753389 0.961979 0.130160
H18   H     H_    0.813693 0.751663 0.041320 0.132534
H19   H     H_    0.686133 0.253389 0.961979 0.130160
H20   H     H_    0.313693 0.251663 0.041320 0.132534
H21   H     H_    0.633956 0.080466 0.034159 0.136732
H22   H     H_    0.366286 0.079531 0.965820 0.136686
H23   H     H_    0.133956 0.580466 0.034159 0.136732
H24   H     H_    0.866286 0.579531 0.965820 0.136686
H25   H     H_    0.149314 0.555519 0.914429 0.125431
H26   H     H_    0.850718 0.553233 0.084976 0.124815
H27   H     H_    0.649314 0.055519 0.914429 0.125431
H28   H     H_    0.350718 0.053233 0.084976 0.124815
H29   H     H_    0.546403 0.644149 0.450900 0.160717
H30   H     H_    0.427230 0.687469 0.538657 0.163023
H31   H     H_    0.046403 0.144148 0.450900 0.160717
H32   H     H_    0.927230 0.187469 0.538657 0.163023
H33   H     H_    0.615282 0.805654 0.455020 0.099085
H34   H     H_    0.402147 0.920613 0.554496 0.117402
H35   H     H_    0.115282 0.305653 0.455020 0.099086
H36   H     H_    0.902147 0.420613 0.554496 0.117402
H37   H     H_    0.602681 0.781271 0.577987 0.121900
H38   H     H_    0.406107 0.870413 0.428426 0.107516
H39   H     H_    0.102681 0.281270 0.577987 0.121902
H40   H     H_    0.906107 0.370412 0.428426 0.107516
H41   H     H_    0.465579 0.998052 0.067041 0.113981
H42   H     H_    0.536021 0.997144 0.936108 0.112961
H43   H     H_    0.965578 0.498052 0.067041 0.113981
H44   H     H_    0.036021 0.497144 0.936108 0.112961
H45   H     H_    0.463646 0.994962 0.425979 0.122651
H46   H     H_    0.581287 0.935049 0.585876 0.109051
H47   H     H_    0.963646 0.494962 0.425979 0.122651
H48   H     H_    0.081287 0.435048 0.585876 0.109050
H49   H     H_    0.475242 0.008328 0.546764 0.127791
H50   H     H_    0.587954 0.956479 0.461975 0.139970
H51   H     H_    0.975243 0.508328 0.546764 0.127790
H52   H     H_    0.087954 0.456479 0.461975 0.139970
H53   H     H_    0.123737 0.623887 0.442686 0.131249
H54   H     H_    0.881235 0.610873 0.552306 0.123230
H55   H     H_    0.623737 0.123887 0.442686 0.131249
H56   H     H_    0.381235 0.110874 0.552306 0.123230
H57   H     H_    0.180898 0.740552 0.441050 0.112354
H58   H     H_    0.816880 0.716969 0.561714 0.129749
H59   H     H_    0.680898 0.240552 0.441050 0.112354
H60   H     H_    0.316880 0.216969 0.561714 0.129749
H61   H     H_    0.163466 0.741670 0.559894 0.135386
H62   H     H_    0.835806 0.733937 0.444252 0.126925
H63   H     H_    0.663466 0.241670 0.559894 0.135386
H64   H     H_    0.335806 0.233937 0.444252 0.126924
H65   H     H_    0.133431 0.598150 0.561815 0.108418
H66   H     H_    0.863959 0.586592 0.430117 0.125432
H67   H     H_    0.633431 0.098150 0.561815 0.108418
H68   H     H_    0.363959 0.086592 0.430117 0.125432
H69   H     H_    0.699871 0.899059 0.450828 0.114149
H70   H     H_    0.319495 0.885827 0.500398 0.102779
H71   H     H_    0.199871 0.399059 0.450828 0.114149
H72   H     H_    0.819495 0.385827 0.500398 0.102779
H73   H     H_    0.696657 0.922740 0.578985 0.112651
H74   H     H_    0.284475 0.923443 0.391505 0.100726
H75   H     H_    0.196657 0.422739 0.578985 0.112650
H76   H     H_    0.784475 0.423443 0.391505 0.100726
H77   H     H_    0.338251 0.580417 0.423727 0.162265
H78   H     H_    0.665854 0.523919 0.566956 0.127084
H79   H     H_    0.838251 0.080417 0.423727 0.162266
H80   H     H_    0.165854 0.023919 0.566957 0.127084
H81   H     H_    0.300205 0.725217 0.422644 0.104593
H82   H     H_    0.698809 0.664621 0.598699 0.123678
H83   H     H_    0.800205 0.225216 0.422644 0.104593
H84   H     H_    0.198809 0.164622 0.598699 0.123679
H85   H     H_    0.534207 0.639659 0.934228 0.123835
H86   H     H_    0.464353 0.640658 0.063394 0.120706
H87   H     H_    0.034207 0.139659 0.934228 0.123835
H88   H     H_    0.964353 0.140658 0.063394 0.120706
H89   H     H_    0.324410 0.727912 0.549597 0.100518
H90   H     H_    0.705370 0.736083 0.490434 0.114003
H91   H     H_    0.824410 0.227912 0.549597 0.100518
H92   H     H_    0.205370 0.236083 0.490434 0.114003
H93   H     H_    0.348810 0.575707 0.541327 0.129609
H94   H     H_    0.647296 0.618628 0.461093 0.109980
H95   H     H_    0.848809 0.075707 0.541327 0.129610
H96   H     H_    0.147295 0.118628 0.461093 0.109979
H97   H     H_    0.288250 0.404190 0.455057 0.123099
H98   H     H_    0.736214 0.361615 0.529613 0.127122
H99   H     H_    0.788250 0.904190 0.455057 0.123100
H100  H     H_    0.236214 0.861615 0.529613 0.127122
H101  H     H_    0.286971 0.416586 0.577285 0.102854
H102  H     H_    0.697271 0.431632 0.420242 0.120650
H103  H     H_    0.786971 0.916586 0.577285 0.102854
H104  H     H_    0.197271 0.931632 0.420243 0.120650
H105  H     H_    0.317555 0.433929 0.053976 0.129936
H106  H     H_    0.682471 0.434335 0.943008 0.133134
H107  H     H_    0.817555 0.933929 0.053976 0.129936
H108  H     H_    0.182471 0.934334 0.943008 0.133134
H109  H     H_    0.352638 0.572734 0.074760 0.109055
H110  H     H_    0.647467 0.573978 0.925168 0.110721
H111  H     H_    0.852637 0.072735 0.074760 0.109055
H112  H     H_    0.147467 0.073978 0.925168 0.110721
H113  H     H_    0.364868 0.612731 0.955957 0.135678
H114  H     H_    0.635030 0.611897 0.044598 0.135788
H115  H     H_    0.864868 0.112731 0.955957 0.135678
H116  H     H_    0.135030 0.111897 0.044598 0.135788
H117  H     H_    0.332109 0.468160 0.934443 0.117640
H118  H     H_    0.668075 0.466974 0.063231 0.116187
H119  H     H_    0.832110 0.968160 0.934443 0.117640
H120  H     H_    0.168075 0.966974 0.063231 0.116187
H121  H     H_    0.664434 0.938676 0.045082 0.099519
H122  H     H_    0.335836 0.937921 0.951692 0.098750
H123  H     H_    0.164434 0.438676 0.045082 0.099519
H124  H     H_    0.835836 0.437921 0.951692 0.098750
H125  H     H_    0.708457 0.936358 0.923901 0.111790
H126  H     H_    0.291520 0.934753 0.072992 0.110525
H127  H     H_    0.208457 0.436358 0.923901 0.111790
H128  H     H_    0.791520 0.434753 0.072992 0.110525
O1    O     O_R   0.214130 0.708570 0.829890 -0.527818
O2    O     O_R   0.785870 0.708570 0.170110 -0.527862
O3    O     O_R   0.714130 0.208570 0.829890 -0.527818
O4    O     O_R   0.285870 0.208570 0.170110 -0.527862
O5    O     O_R   0.446360 0.919990 0.675230 -0.526145
O6    O     O_R   0.553640 0.919990 0.324770 -0.508512
O7    O     O_R   0.946360 0.419990 0.675230 -0.526145
O8    O     O_R   0.053640 0.419990 0.324770 -0.508512
O9    O     O_R   0.457170 0.717300 0.668380 -0.488376
O10   O     O_R   0.542830 0.717300 0.331620 -0.524749
O11   O     O_R   0.957170 0.217300 0.668380 -0.488378
O12   O     O_R   0.042830 0.217300 0.331620 -0.524752
O13   O     O_R   0.320870 0.624890 0.673130 -0.524143
O14   O     O_R   0.679130 0.624890 0.326870 -0.514466
O15   O     O_R   0.820870 0.124890 0.673130 -0.524144
O16   O     O_R   0.179130 0.124890 0.326870 -0.514467
O17   O     O_3   0.334430 0.834430 0.749680 -0.298852
O18   O     O_3   0.665570 0.834430 0.250320 -0.282571
O19   O     O_3   0.834430 0.334430 0.749680 -0.298852
O20   O     O_3   0.165570 0.334430 0.250320 -0.282571
O21   O     O_R   0.236050 0.959150 0.825270 -0.509320
O22   O     O_R   0.763950 0.959150 0.174730 -0.513465
O23   O     O_R   0.736050 0.459150 0.825270 -0.509320
O24   O     O_R   0.263950 0.459150 0.174730 -0.513466
O25   O     O_R   0.332100 0.076650 0.832310 -0.530022
O26   O     O_R   0.667900 0.076650 0.167690 -0.533986
O27   O     O_R   0.832100 0.576650 0.832310 -0.530022
O28   O     O_R   0.167900 0.576650 0.167690 -0.533986
O29   O     O_R   0.446500 0.918620 0.826240 -0.503850
O30   O     O_R   0.553500 0.918620 0.173760 -0.504567
O31   O     O_R   0.946500 0.418620 0.826240 -0.503849
O32   O     O_R   0.053500 0.418620 0.173760 -0.504567
O33   O     O_R   0.457310 0.715830 0.831280 -0.523419
O34   O     O_R   0.542690 0.715830 0.168720 -0.528276
O35   O     O_R   0.957310 0.215830 0.831280 -0.523419
O36   O     O_R   0.042690 0.215830 0.168720 -0.528275
O37   O     O_R   0.321000 0.623520 0.824130 -0.520255
O38   O     O_R   0.679000 0.623520 0.175870 -0.519823
O39   O     O_R   0.821000 0.123520 0.824130 -0.520255
O40   O     O_R   0.179000 0.123520 0.175870 -0.519823
O41   O     O_R   0.213990 0.710040 0.667000 -0.535112
O42   O     O_R   0.786010 0.710040 0.333000 -0.535325
O43   O     O_R   0.713990 0.210040 0.667000 -0.535112
O44   O     O_R   0.286010 0.210040 0.333000 -0.535325
O45   O     O_R   0.235920 0.960520 0.674260 -0.505070
O46   O     O_R   0.764080 0.960520 0.325740 -0.516577
O47   O     O_R   0.735920 0.460520 0.674260 -0.505070
O48   O     O_R   0.264080 0.460520 0.325740 -0.516576
O49   O     O_R   0.331960 0.078120 0.669410 -0.530103
O50   O     O_R   0.668040 0.078120 0.330590 -0.532524
O51   O     O_R   0.831960 0.578120 0.669410 -0.530103
O52   O     O_R   0.168040 0.578120 0.330590 -0.532524
N1    N     N_2   0.448465 0.630891 0.412678 -0.542085
H129  H     H_    0.422005 0.681705 0.376210 0.254358
C121  C     C_3   0.466042 0.512586 0.385470 -0.300393
H130  H     H_    0.419272 0.458143 0.378845 0.130357
H131  H     H_    0.501188 0.465072 0.422056 0.129862
H132  H     H_    0.490663 0.518516 0.332341 0.173951
N2    N     N_2   0.514206 0.598130 0.572098 -0.498639
H133  H     H_    0.564921 0.586685 0.561881 0.230670
C122  C     C_3   0.476359 0.489026 0.582363 -0.296017
H134  H     H_    0.510588 0.419991 0.604937 0.124311
H135  H     H_    0.454760 0.455222 0.531271 0.128363
H136  H     H_    0.434260 0.504388 0.620784 0.183939
N3    N     N_2   0.948465 0.130891 0.412678 -0.542085
H137  H     H_    0.922006 0.181704 0.376210 0.254358
C123  C     C_3   0.966042 0.012586 0.385471 -0.300397
H138  H     H_    0.919270 0.958146 0.378837 0.130361
H139  H     H_    0.001182 0.965066 0.422061 0.129863
H140  H     H_    0.990671 0.018515 0.332345 0.173954
N4    N     N_2   0.014206 0.098130 0.572098 -0.498639
H141  H     H_    0.064921 0.086682 0.561880 0.230669
C124  C     C_3   0.976358 0.989027 0.582365 -0.296015
H142  H     H_    0.010587 0.919992 0.604939 0.124311
H143  H     H_    0.954758 0.955221 0.531274 0.128359
H144  H     H_    0.934260 0.004392 0.620787 0.183942

loop_
_geom_bond_atom_site_label_1
_geom_bond_atom_site_label_2
_ccdc_geom_bond_type
C82   C94   S    
C55   C59   S    
C35   H125  S    
C83   C87   S    
C73   C93   S    
C47   O31   A    
C42   C58   S    
C29   C89   S    
C16   H120  S    
C75   C95   S    
C48   C120  S    
C124  H142  S    
C24   H8    S    
C57   C102  S    
Cr6   O18   S    
Cr7   O7    S    
C85   H101  S    
C59   C104  S    
C63   H55   S    
Cr1   O17   S    
C5    C6    S    
Cr10  O10   S    
C109  H41   S    
Cr4   O4    S    
Cr12  O16   S    
C29   C33   S    
C87   H103  S    
C30   C38   S    
C77   C100  S    
C9    C13   S    
C87   H73   S    
C11   C15   S    
C5    H85   S    
C12   C16   S    
C98   O50   A    
C99   O47   A    
C103  O7    A    
C60   C103  S    
C107  O15   A    
Cr4   O24   S    
C83   C107  S    
C113  H1    S    
C74   H82   S    
C61   H57   S    
C54   H37   S    
C23   H11   S    
C66   H62   S    
C109  C118  S    
C16   H116  S    
C70   H72   S    
Cr5   O25   S    
C50   C53   S    
C89   O37   A    
C7    C119  S    
Cr8   O28   S    
C62   H58   S    
C62   C66   S    
Cr2   O2    S    
C20   C28   S    
C18   H124  S    
C42   N2    S    
Cr12  O36   S    
C43   C44   S    
C66   C82   S    
Cr9   O33   S    
C58   C101  S    
C105  O41   A    
C92   O4    A    
C107  O43   A    
C53   H38   S    
C116  H4    S    
C108  O44   A    
C56   H39   S    
C19   H21   S    
C89   O1    A    
Cr5   O49   S    
C17   H23   S    
C55   H40   S    
C91   O3    A    
C124  H144  S    
Cr1   O45   S    
Cr5   O5    S    
Cr2   O42   S    
C3    C26   S    
C84   C88   S    
C31   C91   S    
C53   H45   S    
Cr12  O12   S    
C13   H117  S    
Cr10  O34   S    
C17   C25   S    
C19   C35   S    
C76   C96   S    
C1    O21   A    
C32   C92   S    
C75   H83   S    
Cr3   O19   S    
C95   H95   S    
C41   C57   S    
C61   C65   S    
C12   H108  S    
C122  H134  S    
C78   C99   S    
C45   O29   A    
C75   C79   S    
Cr5   O29   S    
C22   C38   S    
C44   N4    S    
N2    C122  S    
C67   C83   S    
C80   C97   S    
C11   H111  S    
C69   C77   S    
C111  C112  S    
C9    H109  S    
C71   C79   S    
C4    C25   S    
Cr4   O20   S    
C7    C8    S    
Cr10  O38   S    
C8    H88   S    
C96   H96   S    
C73   H77   S    
C24   H12   S    
C100  O52   A    
N1    C121  S    
C39   H19   S    
C49   C57   S    
C40   H20   S    
Cr11  O11   S    
Cr9   O37   S    
N3    C123  S    
C38   H14   S    
C52   C60   S    
C19   H121  S    
C61   C77   S    
C12   H112  S    
C11   C27   S    
C93   H93   S    
C36   H126  S    
C47   O35   A    
C110  C114  S    
C48   O36   A    
C43   C59   S    
C62   H54   S    
C76   H80   S    
C10   H106  S    
C41   N1    S    
C6    H86   S    
C88   H74   S    
C22   H10   S    
Cr1   O21   S    
Cr2   O18   S    
C110  H42   S    
Cr12  O20   S    
C81   C105  S    
C30   C34   S    
C10   C14   S    
C123  H139  S    
C101  O9    A    
C95   H91   S    
C116  C120  S    
C103  O11   A    
C7    C116  S    
C69   H97   S    
N4    C124  S    
C122  H136  S    
C33   H127  S    
C61   H53   S    
C114  H2    S    
C34   H128  S    
C66   H66   S    
C64   H56   S    
C113  C117  S    
C112  H44   S    
C115  C119  S    
Cr6   O26   S    
C9    H105  S    
Cr4   O48   S    
C112  C116  S    
C69   C85   S    
C85   H75   S    
C72   H70   S    
C56   H48   S    
C45   C117  S    
C21   C25   S    
C121  H132  S    
C71   H99   S    
Cr12  O40   S    
C55   H47   S    
C62   C78   S    
C76   C80   S    
C32   C36   S    
C15   C31   S    
C16   C32   S    
C97   O45   A    
C105  O13   A    
C106  O42   A    
C72   C80   S    
C115  H3    S    
C4    O24   A    
C82   C106  S    
C90   O2    A    
Cr6   O50   S    
Cr8   O32   S    
C94   H90   S    
Cr6   O6    S    
C46   O34   A    
Cr7   O19   S    
Cr8   O20   S    
C81   C85   S    
C13   H113  S    
C41   H29   S    
C41   C42   S    
C74   C94   S    
Cr9   O13   S    
C18   C26   S    
C30   C90   S    
Cr11  O39   S    
C1    O25   A    
C9    C25   S    
C2    O22   A    
C3    O27   A    
C75   H79   S    
C86   H102  S    
C12   C28   S    
C13   C29   S    
C67   H67   S    
C98   O46   A    
C46   C118  S    
C73   C77   S    
C22   C26   S    
C64   H60   S    
Cr6   O30   S    
C51   H35   S    
C106  O14   A    
C50   H34   S    
C1    C28   S    
C2    C27   S    
Cr10  O14   S    
C72   H100  S    
Cr11  O19   S    
C52   C55   S    
C121  H130  S    
C64   C80   S    
C73   H81   S    
C17   C33   S    
C110  C117  S    
C38   H18   S    
C33   H25   S    
C65   H61   S    
C124  H143  S    
C40   H16   S    
C68   C84   S    
C24   C28   S    
C51   H52   S    
C86   H76   S    
C53   C57   S    
C82   C86   S    
C56   C60   S    
C50   C58   S    
N4    H141  S    
C104  O12   A    
C49   H33   S    
C48   O32   A    
Cr7   O27   S    
C76   H84   S    
C65   C81   S    
C91   O39   A    
C42   H30   S    
Cr8   O8    S    
C68   H64   S    
C20   H122  S    
Cr2   O22   S    
C71   C87   S    
C92   O40   A    
C31   C35   S    
C64   C68   S    
C101  O5    A    
C102  O10   A    
C37   H17   S    
C108  O16   A    
C112  C119  S    
C14   H118  S    
C22   H6    S    
C21   H9    S    
C123  H138  S    
C43   N3    S    
C109  C110  S    
N1    H129  S    
Cr5   O17   S    
C44   C60   S    
C63   H59   S    
C84   C108  S    
N3    H137  S    
C94   H94   S    
N2    H133  S    
C20   C36   S    
C54   H46   S    
C21   C37   S    
C74   C78   S    
C29   C37   S    
C44   H32   S    
C43   H31   S    
C97   O49   A    
C5    C114  S    
C70   C78   S    
C79   C98   S    
C99   O51   A    
C10   H110  S    
C52   H51   S    
C63   C79   S    
C4    O28   A    
C20   H22   S    
C74   H78   S    
C111  H43   S    
C23   H7    S    
C46   O30   A    
C11   H107  S    
C49   C54   S    
Cr3   O47   S    
C51   C56   S    
C84   C96   S    
C8    C115  S    
Cr1   O1    S    
Cr3   O3    S    
C122  H135  S    
Cr9   O17   S    
C23   C27   S    
C19   C27   S    
C109  C113  S    
C2    O26   A    
C7    H87   S    
C10   C26   S    
C47   C119  S    
C14   C30   S    
C67   H63   S    
C72   C88   S    
C88   H104  S    
C63   C67   S    
C121  H131  S    
Cr7   O31   S    
C96   H92   S    
Cr1   O41   S    
C21   H5    S    
C5    C117  S    
C111  C120  S    
Cr10  O18   S    
Cr3   O43   S    
C70   H98   S    
C6    C113  S    
Cr11  O15   S    
Cr4   O44   S    
C81   C93   S    
C83   C95   S    
Cr11  O35   S    
C18   C34   S    
C114  C118  S    
C65   H65   S    
C34   H26   S    
C69   H71   S    
C50   H49   S    
C51   C59   S    
C70   C86   S    
C8    C120  S    
Cr2   O46   S    
C54   C58   S    
C71   H69   S    
C17   H123  S    
C45   O33   A    
C104  O8    A    
C18   H24   S    
C15   H115  S    
C123  H140  S    
C111  C115  S    
Cr7   O51   S    
Cr8   O52   S    
C68   H68   S    
Cr3   O23   S    
C52   H36   S    
C90   O38   A    
C15   H119  S    
C23   C39   S    
C3    O23   A    
C24   C40   S    
C31   C39   S    
C32   C40   S    
C35   H27   S    
Cr9   O9    S    
C36   H28   S    
C49   H50   S    
C100  O48   A    
C102  O6    A    
C39   H15   S    
C93   H89   S    
C37   H13   S    
C6    C118  S    
C14   H114  S    
