data_mof_unit_34560.cif
_audit_creation_date              2012-12-10T17:38:12-0500
_audit_creation_method            fapswitch 2.2
_symmetry_space_group_name_H-M    P1
_symmetry_Int_Tables_number       1
_space_group_crystal_system       triclinic
_cell_length_a                    12.035462
_cell_length_b                    12.872649
_cell_length_c                    18.593833
_cell_angle_alpha                 90.379957
_cell_angle_beta                  87.391969
_cell_angle_gamma                 93.139335
_cell_volume                      2873.38336644

loop_
_atom_site_label
_atom_site_type_symbol
_atom_type_description
_atom_site_fract_x
_atom_site_fract_y
_atom_site_fract_z
_atom_type_partial_charge
C1    C     C_R   0.521756 0.700244 0.500266 0.935328
C2    C     C_R   0.478293 0.300321 0.501544 0.939332
C3    C     C_R   0.466231 0.190188 0.508491 -0.276809
C4    C     C_R   0.534547 0.811693 0.497956 -0.269701
C5    C     C_R   0.614499 0.965808 0.439026 -0.260652
C6    C     C_R   0.401173 0.040381 0.577550 -0.285383
C7    C     C_R   0.613807 0.859306 0.449038 0.370952
C8    C     C_R   0.401603 0.146632 0.566441 0.401575
C9    C     C_R   0.459519 0.870181 0.539459 0.388862
C10   C     C_R   0.534030 0.129976 0.463830 0.395959
C11   C     C_R   0.466079 0.978179 0.532162 -0.073148
C12   C     C_R   0.538329 0.024688 0.477966 -0.059495
C13   C     C_R   0.952732 0.418223 0.423837 -0.301723
C14   C     C_R   0.045860 0.565060 0.583654 -0.310562
C15   C     C_R   0.837394 0.423781 0.432629 -0.064668
C16   C     C_R   0.161414 0.560422 0.573932 -0.097678
C17   C     C_R   0.857918 0.531128 0.536350 0.571273
C18   C     C_R   0.141545 0.475373 0.461201 0.583471
C19   C     C_R   0.975514 0.524261 0.530819 -0.067226
C20   C     C_R   0.023505 0.472616 0.471157 -0.068295
C21   C     C_R   0.501687 0.504341 0.635314 0.897344
C22   C     C_R   0.499775 0.503992 0.364685 0.891581
C23   C     C_R   0.428775 0.596539 0.742340 -0.282325
C24   C     C_R   0.582349 0.490610 0.241280 -0.317095
C25   C     C_R   0.442312 0.638664 0.810756 0.438540
C26   C     C_R   0.595325 0.526384 0.170636 0.445252
C27   C     C_R   0.534379 0.612969 0.850187 -0.151362
C28   C     C_R   0.532362 0.608902 0.148578 -0.148514
C29   C     C_R   0.617439 0.552454 0.817212 0.432445
C30   C     C_R   0.456903 0.654482 0.197556 0.448154
C31   C     C_R   0.602953 0.512356 0.748072 -0.274247
C32   C     C_R   0.441729 0.614774 0.267164 -0.327933
C33   C     C_R   0.508790 0.533697 0.710799 -0.170533
C34   C     C_R   0.503740 0.532666 0.289025 -0.151666
C35   C     C_R   0.535426 0.637577 0.072687 0.328509
C36   C     C_R   0.536311 0.637944 0.927415 0.328129
H1    H     H_    0.674974 0.001873 0.400683 0.206733
H2    H     H_    0.350909 0.007814 0.622367 0.198517
N1    N     N_R   0.439035 0.638791 0.967128 -0.114901
N2    N     N_R   0.633069 0.642506 0.033270 -0.130466
N3    N     N_R   0.438549 0.638666 0.038512 -0.133049
N4    N     N_R   0.633435 0.643043 0.961829 -0.138924
N5    N     N_R   0.207800 0.519350 0.512860 -0.137626
N6    N     N_R   0.792200 0.480650 0.487140 -0.133051
O1    O     O_R   0.421690 0.658830 0.503430 -0.634020
O2    O     O_R   0.578310 0.341170 0.496570 -0.592827
O3    O     O_R   0.609320 0.646410 0.495180 -0.578935
O4    O     O_R   0.390680 0.353590 0.504820 -0.552326
O5    O     O_R   0.406160 0.506220 0.605990 -0.625296
O6    O     O_R   0.593840 0.493780 0.394010 -0.625481
O7    O     O_R   0.593780 0.493810 0.597740 -0.574691
O8    O     O_R   0.406220 0.506190 0.402260 -0.591882
Zn1   Zn    Zn3+2 0.374720 0.508290 0.505510 0.982843
Zn2   Zn    Zn3+2 0.625280 0.491710 0.494490 0.993259
H3    H     H_    0.357165 0.616427 0.713077 0.179705
H4    H     H_    0.634065 0.430328 0.258810 0.170066
H5    H     H_    0.985706 0.371588 0.380030 0.193274
H6    H     H_    0.012435 0.598232 0.633149 0.182878
O9    O     O_3   0.362384 0.701690 0.839959 -0.589671
C37   C     C_3   0.386023 0.803822 0.814170 0.085796
H7    H     H_    0.387751 0.806291 0.754200 0.173510
H8    H     H_    0.467555 0.835653 0.833232 0.135579
C38   C     C_3   0.295619 0.873275 0.842617 -0.799833
H9    H     H_    0.292683 0.874244 0.902412 0.265751
H10   H     H_    0.313482 0.953856 0.822644 0.199881
H11   H     H_    0.213402 0.843895 0.823755 0.255497
O10   O     O_3   0.672586 0.482862 0.123896 -0.590294
C39   C     C_3   0.622896 0.392113 0.093268 0.094897
H12   H     H_    0.543124 0.408240 0.068281 0.140370
H13   H     H_    0.606937 0.330551 0.134767 0.132995
C40   C     C_3   0.701680 0.351734 0.034574 -0.761124
H14   H     H_    0.781653 0.333097 0.057716 0.249280
H15   H     H_    0.663622 0.280206 0.010036 0.197979
H16   H     H_    0.718268 0.411521 0.992053 0.293714
O11   O     O_3   0.706775 0.523102 0.855127 -0.603455
C41   C     C_3   0.804404 0.578206 0.828159 0.094026
H17   H     H_    0.794187 0.663801 0.829319 0.135306
H18   H     H_    0.826636 0.553433 0.772092 0.159808
C42   C     C_3   0.900318 0.555520 0.875120 -0.779117
H19   H     H_    0.913642 0.470824 0.874515 0.253905
H20   H     H_    0.977755 0.598220 0.854400 0.211335
H21   H     H_    0.881383 0.580776 0.931378 0.271303
O12   O     O_3   0.396261 0.736476 0.176661 -0.587151
C43   C     C_3   0.444559 0.829688 0.204908 0.089120
H22   H     H_    0.535643 0.838236 0.190586 0.127229
H23   H     H_    0.431169 0.832302 0.264516 0.119046
C44   C     C_3   0.389733 0.921808 0.173559 -0.801368
H24   H     H_    0.298916 0.916665 0.187598 0.257743
H25   H     H_    0.426777 0.995467 0.195812 0.194882
H26   H     H_    0.402944 0.922363 0.114044 0.259604
H27   H     H_    0.665251 0.463856 0.723695 0.188263
H28   H     H_    0.386429 0.652578 0.305228 0.150309
O13   O     O_3   0.600360 0.174961 0.408264 -0.599287
C45   C     C_3   0.537044 0.179232 0.346277 0.091657
H29   H     H_    0.486046 0.248768 0.349190 0.141701
H30   H     H_    0.480945 0.108184 0.339282 0.126190
C46   C     C_3   0.615812 0.188109 0.280091 -0.855613
H31   H     H_    0.663016 0.116577 0.274016 0.248601
H32   H     H_    0.567434 0.197527 0.231356 0.199383
H33   H     H_    0.675642 0.256119 0.285427 0.257439
O14   O     O_3   0.387534 0.821932 0.591239 -0.620816
C47   C     C_3   0.275660 0.822112 0.569974 0.117023
H34   H     H_    0.256076 0.752810 0.536356 0.174768
H35   H     H_    0.256998 0.891210 0.537803 0.131915
C48   C     C_3   0.197344 0.818372 0.636782 -0.880446
H36   H     H_    0.207070 0.891776 0.668020 0.252224
H37   H     H_    0.109700 0.807983 0.620684 0.212484
H38   H     H_    0.215907 0.752868 0.671972 0.254738
O15   O     O_3   0.336536 0.207405 0.611139 -0.579479
C49   C     C_3   0.393909 0.230460 0.674381 0.102715
H39   H     H_    0.473595 0.276055 0.661453 0.121302
H40   H     H_    0.411846 0.158133 0.703303 0.130172
C50   C     C_3   0.321903 0.295203 0.724652 -0.783486
H41   H     H_    0.244454 0.249314 0.741677 0.249658
H42   H     H_    0.368259 0.317913 0.773125 0.206274
H43   H     H_    0.299241 0.366675 0.696987 0.271368
O16   O     O_3   0.692504 0.801927 0.412435 -0.597584
C51   C     C_3   0.663115 0.789300 0.340187 0.086434
H44   H     H_    0.667657 0.865280 0.311662 0.123626
H45   H     H_    0.577627 0.752675 0.337391 0.119517
C52   C     C_3   0.743950 0.718768 0.301544 -0.770159
H46   H     H_    0.741064 0.641790 0.328353 0.269388
H47   H     H_    0.721090 0.707712 0.244716 0.207152
H48   H     H_    0.830050 0.754330 0.302437 0.245766
O17   O     O_3   0.190464 0.426827 0.402276 -0.595898
C53   C     C_3   0.181833 0.489275 0.340579 0.090714
H49   H     H_    0.232224 0.563302 0.345851 0.149548
H50   H     H_    0.095118 0.509992 0.331625 0.119956
C54   C     C_3   0.222864 0.430219 0.274254 -0.784159
H51   H     H_    0.165540 0.361429 0.264779 0.238434
H52   H     H_    0.225568 0.481545 0.226364 0.222487
H53   H     H_    0.307445 0.403100 0.281841 0.256584
O18   O     O_3   0.807608 0.583082 0.593348 -0.616536
C55   C     C_3   0.819217 0.691580 0.581147 0.097593
H54   H     H_    0.796856 0.712274 0.525837 0.196947
H55   H     H_    0.906001 0.722084 0.588576 0.116736
C56   C     C_3   0.743577 0.746407 0.635288 -0.792683
H56   H     H_    0.769209 0.732177 0.690844 0.226160
H57   H     H_    0.749307 0.831445 0.624976 0.209560
H58   H     H_    0.655782 0.716917 0.630731 0.261712
H59   H     H_    0.214454 0.589161 0.615723 0.165946
H60   H     H_    0.783596 0.383225 0.395374 0.175666

loop_
_geom_bond_atom_site_label_1
_geom_bond_atom_site_label_2
_ccdc_geom_bond_type
C44   H24   S    
C38   H10   S    
C53   H49   S    
C5    H1    S    
C27   C29   A    
C16   H59   S    
C7    O16   S    
C36   N4    A    
C19   C20   A    
C43   C44   S    
C55   C56   S    
C21   O5    A    
C46   H31   S    
N1    N3    A    
C32   H28   S    
O16   C51   S    
C2    O2    A    
C56   H57   S    
O13   C45   S    
C37   C38   S    
C26   O10   S    
C22   O8    A    
C41   H18   S    
C15   N6    A    
C54   H51   S    
C18   O17   S    
C21   C33   S    
C47   C48   S    
C37   H8    S    
C30   O12   S    
C49   H39   S    
C52   H48   S    
C51   H44   S    
N5    Zn1   S    
C28   C35   S    
C39   H12   S    
C23   C33   A    
C41   C42   S    
C54   H53   S    
C22   O6    A    
C50   H43   S    
N2    N4    A    
C38   H11   S    
O1    Zn1   S    
O9    C37   S    
C45   C46   S    
C4    C7    A    
C14   H6    S    
C46   H32   S    
C49   H40   S    
O4    Zn1   S    
C22   C34   S    
C48   H38   S    
O10   C39   S    
O14   C47   S    
C41   H17   S    
C5    C12   A    
C3    C8    A    
C6    C11   A    
C40   H15   S    
C1    O3    A    
C55   H55   S    
C53   C54   S    
C2    O4    A    
C24   C34   A    
C38   H9    S    
C37   H7    S    
C51   C52   S    
C32   C34   A    
C45   H30   S    
O11   C41   S    
C42   H21   S    
C15   H60   S    
C48   H37   S    
O12   C43   S    
C49   C50   S    
O2    Zn2   S    
C31   C33   A    
C45   H29   S    
O6    Zn2   S    
C43   H22   S    
C47   H35   S    
C9    C11   A    
C16   N5    A    
C52   H46   S    
C10   C12   A    
O3    Zn2   S    
C9    O14   S    
C31   H27   S    
C13   C15   A    
C17   O18   S    
O17   C53   S    
C14   C16   A    
C24   H4    S    
C21   O7    A    
C46   H33   S    
O8    Zn1   S    
C5    C7    A    
C50   H41   S    
C48   H36   S    
C53   H50   S    
C13   C20   A    
C14   C19   A    
C36   N1    A    
C24   C26   A    
C40   H16   S    
C6    C8    A    
C11   C12   A    
C42   H20   S    
C23   H3    S    
C55   H54   S    
C29   O11   S    
C27   C36   S    
C25   C27   A    
C56   H56   S    
C26   C28   A    
C10   O13   S    
O7    Zn2   S    
C1    C4    S    
C28   C30   A    
C35   N2    A    
C17   N6    A    
C40   H14   S    
C29   C31   A    
C3    C10   A    
C8    O15   S    
C30   C32   A    
C1    O1    A    
O18   C55   S    
C39   C40   S    
O5    Zn1   S    
C56   H58   S    
C17   C19   A    
C2    C3    S    
C18   C20   A    
C23   C25   A    
C47   H34   S    
C35   N3    A    
C51   H45   S    
C52   H47   S    
C42   H19   S    
N6    Zn2   S    
C13   H5    S    
C39   H13   S    
C44   H26   S    
O15   C49   S    
C44   H25   S    
C43   H23   S    
C25   O9    S    
C54   H52   S    
C4    C9    A    
C18   N5    A    
C6    H2    S    
C50   H42   S    
