data_mof_unit_34418.cif
_audit_creation_date              2012-10-26T19:02:37-0400
_audit_creation_method            fapswitch 2.2
_symmetry_space_group_name_H-M    P1
_symmetry_Int_Tables_number       1
_space_group_crystal_system       triclinic
_cell_length_a                    17.241626
_cell_length_b                    8.684762
_cell_length_c                    7.439008
_cell_angle_alpha                 103.084021
_cell_angle_beta                  89.264929
_cell_angle_gamma                 92.89541
_cell_volume                      1083.60838846

loop_
_atom_site_label
_atom_site_type_symbol
_atom_type_description
_atom_site_fract_x
_atom_site_fract_y
_atom_site_fract_z
_atom_type_partial_charge
C1    C     C_R   0.497622 0.199743 0.453578 0.545403
C2    C     C_R   0.778742 0.618389 0.554904 0.079295
C3    C     C_R   0.140742 0.384707 0.457618 -0.098155
C4    C     C_R   0.859256 0.615318 0.542354 -0.098154
C5    C     C_R   0.105733 0.512003 0.574190 -0.007283
C6    C     C_R   0.894267 0.488019 0.425790 -0.007286
C7    C     C_R   0.151385 0.632211 0.686939 -0.083266
C8    C     C_R   0.848616 0.367796 0.313061 -0.083264
C9    C     C_R   0.232552 0.632886 0.675654 -0.020601
C10   C     C_R   0.767448 0.367111 0.324357 -0.020604
C11   C     C_2   0.021333 0.524553 0.576771 -0.129622
C12   C     C_R   0.502377 0.800257 0.546422 0.545407
C13   C     C_2   0.978667 0.475477 0.423204 -0.129622
C14   C     C_2   0.720781 0.230000 0.214130 0.227907
C15   C     C_2   0.279221 0.769978 0.785908 0.227911
C16   C     C_2   0.496556 0.031781 0.427488 -0.144854
C17   C     C_2   0.503444 0.968219 0.572512 -0.144857
C18   C     C_R   0.351436 0.504335 0.528211 0.555362
C19   C     C_R   0.648564 0.495665 0.471789 0.555363
C20   C     C_R   0.267443 0.506826 0.551350 0.027495
C21   C     C_R   0.732556 0.493179 0.448648 0.027497
C22   C     C_R   0.221256 0.381627 0.445078 0.079295
Cu1   Cu    Cu3+1 0.508700 0.517250 0.683000 0.990492
Cu2   Cu    Cu3+1 0.491300 0.482750 0.317000 0.990495
H1    H     H_    0.005535 0.418866 0.293830 0.125064
H2    H     H_    0.560793 0.620226 0.041170 0.248804
H3    H     H_    0.237253 0.146994 0.365200 0.243848
H4    H     H_    0.236291 0.242549 0.190954 0.254431
H5    H     H_    0.762735 0.853020 0.634758 0.243844
H6    H     H_    0.763711 0.757484 0.809019 0.254440
H7    H     H_    0.659109 0.214572 0.238609 0.131788
H8    H     H_    0.340891 0.785423 0.761416 0.131790
H9    H     H_    0.994465 0.581163 0.706145 0.125065
H10   H     H_    0.123280 0.729419 0.777334 0.159547
H11   H     H_    0.876722 0.270584 0.222675 0.159551
H12   H     H_    0.894139 0.712733 0.624211 0.117011
H13   H     H_    0.105858 0.287300 0.375749 0.117007
H14   H     H_    0.490113 0.960102 0.287773 0.142284
H15   H     H_    0.509887 0.039898 0.712227 0.142281
H16   H     H_    0.439207 0.379774 0.958830 0.248802
N1    N     N_2   0.478180 0.456750 0.041980 -0.255882
N2    N     N_2   0.521820 0.543250 0.958020 -0.255882
N3    N     N_3   0.256308 0.250409 0.324982 -0.591324
N4    N     N_3   0.743688 0.749609 0.674993 -0.591327
O1    O     O_R   0.505650 0.286040 0.618880 -0.508714
O2    O     O_2   0.248976 0.869168 0.905505 -0.521008
O3    O     O_R   0.494350 0.713960 0.381120 -0.508710
O4    O     O_R   0.490960 0.256910 0.309800 -0.496450
O5    O     O_R   0.509040 0.743090 0.690200 -0.496449
O6    O     O_R   0.394600 0.516230 0.672450 -0.526891
O7    O     O_R   0.605400 0.483770 0.327550 -0.526890
O8    O     O_R   0.379910 0.487100 0.363380 -0.464683
O9    O     O_R   0.620090 0.512900 0.636620 -0.464687
O10   O     O_2   0.751030 0.130775 0.094580 -0.521014

loop_
_geom_bond_atom_site_label_1
_geom_bond_atom_site_label_2
_ccdc_geom_bond_type
C12   C17   S    
Cu2   O8    S    
C2    C4    A    
Cu1   Cu2   S    
C4    H12   S    
C1    O4    A    
Cu1   O9    S    
Cu1   O1    S    
H3    N3    S    
N1    N2    D    
H4    N3    S    
C22   N3    S    
C18   O6    A    
C14   H7    S    
C3    C5    A    
C1    O1    A    
C7    C9    A    
C19   O9    A    
Cu2   O7    S    
C12   O5    A    
C9    C15   S    
C18   O8    A    
C15   H8    S    
C10   C21   A    
C1    C16   S    
C6    C13   S    
Cu2   N1    S    
C11   C13   D    
H6    N4    S    
Cu1   N2    S    
C2    C21   A    
C12   O3    A    
C4    C6    A    
H16   N1    S    
C14   O10   D    
C20   C22   A    
C5    C11   S    
C18   C20   S    
H5    N4    S    
C10   C14   S    
C7    H10   S    
Cu1   O5    S    
H2    N2    S    
Cu2   O4    S    
C19   O7    A    
C11   H9    S    
C3    H13   S    
C8    C10   A    
C17   H15   S    
C16   H14   S    
C5    C7    A    
C3    C22   A    
C6    C8    A    
C9    C20   A    
C15   O2    D    
C19   C21   S    
Cu2   O3    S    
C13   H1    S    
C2    N4    S    
C16   C17   D    
Cu1   O6    S    
C8    H11   S    
