data_mof_unit_7336.cif
_audit_creation_date              2012-12-10T18:38:30-0500
_audit_creation_method            fapswitch 2.2
_symmetry_space_group_name_H-M    P1
_symmetry_Int_Tables_number       1
_space_group_crystal_system       triclinic
_cell_length_a                    15.865448
_cell_length_b                    15.136081
_cell_length_c                    13.824601
_cell_angle_alpha                 89.749079
_cell_angle_beta                  90.418097
_cell_angle_gamma                 90.2669
_cell_volume                      3319.69369288

loop_
_atom_site_label
_atom_site_type_symbol
_atom_type_description
_atom_site_fract_x
_atom_site_fract_y
_atom_site_fract_z
_atom_type_partial_charge
C1    C     C_R   0.500670 0.330422 0.500183 0.893806
C2    C     C_R   0.476509 0.905744 0.586445 0.344678
C3    C     C_R   0.503087 0.050418 0.504053 -0.032695
C4    C     C_R   0.502028 0.953508 0.504177 -0.027570
C5    C     C_R   0.571068 0.472790 0.107555 -0.130199
C6    C     C_R   0.454186 0.435355 0.891961 -0.143376
C7    C     C_R   0.569439 0.472688 0.209493 0.007432
C8    C     C_R   0.455390 0.437104 0.790135 0.005767
C9    C     C_R   0.430214 0.527090 0.208513 -0.015534
C10   C     C_R   0.543125 0.563684 0.790714 -0.022297
C11   C     C_R   0.428265 0.527810 0.106344 0.346075
C12   C     C_R   0.500427 0.670534 0.499816 0.830446
C13   C     C_R   0.541521 0.567168 0.893329 0.345789
C14   C     C_R   0.499458 0.500136 0.054277 0.034962
C15   C     C_R   0.498509 0.500402 0.945041 0.027158
C16   C     C_R   0.339775 0.499851 0.499674 0.815526
C17   C     C_R   0.660239 0.500167 0.500351 0.838275
C18   C     C_3   0.973191 0.461026 0.581736 0.350739
C19   C     C_3   0.026916 0.538684 0.418976 0.345659
C20   C     C_3   0.026227 0.414754 0.503980 -0.251724
C21   C     C_3   0.973896 0.584972 0.496749 -0.247467
C22   C     C_1   0.250302 0.499140 0.498973 -0.149490
C23   C     C_R   0.429220 0.187620 0.531176 -0.114335
C24   C     C_1   0.749738 0.500762 0.501204 -0.162206
C25   C     C_3   0.029683 0.544167 0.576999 0.344243
C26   C     C_3   0.970441 0.455534 0.423728 0.345839
C27   C     C_3   0.083363 0.498100 0.499195 -0.085926
C28   C     C_3   0.916706 0.501592 0.501509 -0.084402
C29   C     C_1   0.174895 0.498505 0.498734 0.099986
C30   C     C_1   0.825158 0.501248 0.501699 0.094844
C31   C     C_R   0.430281 0.095824 0.530990 -0.189804
C32   C     C_R   0.526575 0.908904 0.420824 -0.211078
C33   C     C_1   0.057372 0.323633 0.507657 0.259051
C34   C     C_R   0.527416 0.817127 0.418255 -0.104267
C35   C     C_1   0.942627 0.676060 0.493211 0.242128
C36   C     C_3   0.347028 0.640952 0.051767 0.067164
C37   C     C_3   0.264093 0.663529 0.001822 -0.785736
C38   C     C_3   0.567855 0.717074 0.907848 0.045575
C39   C     C_3   0.581678 0.784494 0.987672 -0.764496
C40   C     C_3   0.000820 0.386866 0.725370 0.087316
C41   C     C_3   0.968121 0.379488 0.828250 -0.769947
C42   C     C_3   0.999982 0.612274 0.274832 0.093748
C43   C     C_3   0.034679 0.622949 0.173157 -0.797672
C44   C     C_3   0.992296 0.371553 0.286525 0.078875
C45   C     C_R   0.500908 0.234680 0.500690 -0.224324
C46   C     C_3   0.955019 0.356258 0.186291 -0.781796
C47   C     C_3   0.008619 0.627549 0.714891 0.086105
C48   C     C_3   0.047426 0.644525 0.814082 -0.802824
C49   C     C_1   0.353403 0.232331 0.560846 0.262897
C50   C     C_1   0.558513 0.776248 0.331228 0.301319
C51   C     C_3   0.652930 0.239314 0.344352 0.072418
C52   C     C_3   0.731802 0.291269 0.317694 -0.721673
C53   C     C_3   0.357423 0.755419 0.657395 0.130253
C54   C     C_3   0.328100 0.701376 0.743881 -0.779813
C55   C     C_3   0.699101 0.039811 0.531684 0.088966
C56   C     C_R   0.500253 0.767989 0.499888 -0.251505
C57   C     C_3   0.783193 0.001928 0.500571 -0.731243
C58   C     C_3   0.518789 0.959707 0.732186 0.096554
C59   C     C_3   0.487464 0.996457 0.827488 -0.766531
C60   C     C_1   0.646055 0.442866 0.059411 0.270272
C61   C     C_1   0.407974 0.365952 0.940312 0.285281
C62   C     C_R   0.573477 0.190042 0.470306 0.323641
C63   C     C_R   0.472398 0.813438 0.583106 0.320877
C64   C     C_R   0.575888 0.097573 0.475980 0.341125
Cu1   Cu    Cu3+1 0.500000 0.499990 0.596430 0.972318
Cu2   Cu    Cu3+1 0.500000 0.500010 0.403570 0.961606
H1    H     H_    0.374937 0.547960 0.247265 0.151175
H2    H     H_    0.258703 0.736245 0.993034 0.198231
H3    H     H_    0.261073 0.632132 0.929435 0.257665
H4    H     H_    0.501581 0.724014 0.881320 0.152760
H5    H     H_    0.611927 0.732625 0.847929 0.153504
H6    H     H_    0.647607 0.781033 0.014932 0.262458
H7    H     H_    0.569698 0.851987 0.959195 0.195284
H8    H     H_    0.537844 0.771011 0.048317 0.247947
H9    H     H_    0.059559 0.427442 0.727360 0.173485
H10   H     H_    0.016261 0.319462 0.699733 0.168684
H11   H     H_    0.910753 0.337184 0.829890 0.261523
H12   H     H_    0.578917 0.611965 0.750185 0.141768
H13   H     H_    0.017104 0.349647 0.875800 0.203084
H14   H     H_    0.952381 0.446085 0.856095 0.247503
H15   H     H_    0.982067 0.678583 0.301652 0.166297
H16   H     H_    0.942562 0.569875 0.270214 0.173645
H17   H     H_    0.053302 0.557579 0.144242 0.249864
H18   H     H_    0.985789 0.651966 0.124871 0.205123
H19   H     H_    0.090603 0.667357 0.174273 0.252918
H20   H     H_    0.009447 0.306423 0.318080 0.165857
H21   H     H_    0.050494 0.412198 0.277999 0.176834
H22   H     H_    0.936831 0.420352 0.152931 0.251830
H23   H     H_    0.374020 0.059463 0.551322 0.191986
H24   H     H_    0.002276 0.323816 0.139601 0.206291
H25   H     H_    0.898413 0.313101 0.191265 0.252661
H26   H     H_    0.951330 0.585884 0.725179 0.175056
H27   H     H_    0.989793 0.692030 0.683002 0.164964
H28   H     H_    0.103283 0.688563 0.807291 0.250205
H29   H     H_    0.000516 0.676637 0.861499 0.205830
H30   H     H_    0.067225 0.581111 0.847797 0.250695
H31   H     H_    0.597564 0.272277 0.310161 0.145581
H32   H     H_    0.658941 0.171577 0.314218 0.178445
H33   H     H_    0.788590 0.257968 0.347616 0.264793
H34   H     H_    0.545510 0.946164 0.357300 0.185967
H35   H     H_    0.737266 0.295521 0.237770 0.190122
H36   H     H_    0.728540 0.359150 0.347409 0.257556
H37   H     H_    0.339969 0.718695 0.590395 0.124434
H38   H     H_    0.323993 0.819968 0.657944 0.164868
H39   H     H_    0.258911 0.690624 0.739306 0.215911
H40   H     H_    0.359955 0.636189 0.744963 0.263385
H41   H     H_    0.343328 0.737008 0.811900 0.232930
H42   H     H_    0.668735 0.991417 0.581293 0.117818
H43   H     H_    0.711627 0.102756 0.571001 0.166850
H44   H     H_    0.815666 0.049074 0.451410 0.252639
H45   H     H_    0.624156 0.450120 0.249279 0.144589
H46   H     H_    0.823755 0.990099 0.565095 0.199240
H47   H     H_    0.773008 0.938319 0.462336 0.253413
H48   H     H_    0.564875 0.007583 0.701522 0.121287
H49   H     H_    0.550841 0.895669 0.747492 0.147277
H50   H     H_    0.442393 0.949273 0.861069 0.248149
H51   H     H_    0.541500 0.006880 0.877711 0.190834
H52   H     H_    0.455454 0.060655 0.814942 0.257521
H53   H     H_    0.420841 0.387571 0.749573 0.152776
H54   H     H_    0.399408 0.669452 0.008316 0.151791
H55   H     H_    0.347111 0.671708 0.124862 0.137613
H56   H     H_    0.210444 0.639068 0.045759 0.254129
N1    N     N_R   0.500000 0.500020 0.258690 -0.193916
N2    N     N_R   0.500000 0.499980 0.741310 -0.199537
N3    N     N_1   0.081973 0.251823 0.510543 -0.276509
N4    N     N_1   0.917883 0.747825 0.490433 -0.305134
N5    N     N_1   0.292778 0.268234 0.584616 -0.284311
N6    N     N_1   0.583434 0.743684 0.261502 -0.287224
N7    N     N_1   0.706202 0.418884 0.020826 -0.283056
N8    N     N_1   0.370915 0.310321 0.979157 -0.276421
O1    O     O_R   0.500010 0.371450 0.581430 -0.582788
O2    O     O_3   0.584797 0.631715 0.945066 -0.576744
O3    O     O_3   0.937357 0.423727 0.665809 -0.570624
O4    O     O_3   0.063170 0.575960 0.335128 -0.574974
O5    O     O_3   0.931287 0.412462 0.344798 -0.581641
O6    O     O_3   0.069260 0.587124 0.655749 -0.578673
O7    O     O_3   0.645299 0.237269 0.446046 -0.573160
O8    O     O_3   0.445445 0.768110 0.664395 -0.573778
O9    O     O_3   0.648245 0.053712 0.448951 -0.585711
O10   O     O_3   0.449612 0.948890 0.668571 -0.576237
O11   O     O_R   0.499990 0.628550 0.418570 -0.576160
O12   O     O_R   0.500010 0.371460 0.418560 -0.582619
O13   O     O_R   0.499990 0.628540 0.581440 -0.546874
O14   O     O_R   0.379080 0.499990 0.581420 -0.575765
O15   O     O_R   0.620920 0.500010 0.418580 -0.588105
O16   O     O_R   0.379080 0.500000 0.418550 -0.589658
O17   O     O_R   0.620920 0.500000 0.581450 -0.569078
O18   O     O_3   0.354348 0.548285 0.057968 -0.575133

loop_
_geom_bond_atom_site_label_1
_geom_bond_atom_site_label_2
_ccdc_geom_bond_type
C51   H31   S    
C38   H4    S    
C34   C56   A    
C23   C45   A    
C48   H29   S    
C37   H3    S    
C47   O6    S    
C27   C29   S    
C43   H17   S    
C47   H26   S    
C17   O15   A    
C42   H16   S    
C41   H14   S    
C10   H12   S    
Cu2   O11   S    
C3    C64   A    
C19   O4    S    
C42   H15   S    
C52   H36   S    
C48   H28   S    
C54   H41   S    
C6    C61   S    
C36   C37   S    
C22   C29   T    
C10   N2    A    
C41   H11   S    
C38   C39   S    
Cu1   O13   S    
C11   C14   A    
C11   O18   S    
C23   C49   S    
C57   H46   S    
C53   H38   S    
C37   H2    S    
C45   C62   A    
C44   O5    S    
C55   O9    S    
C12   O11   A    
C18   O3    S    
C16   O16   A    
C39   H8    S    
C25   O6    S    
C19   C26   S    
Cu2   O15   S    
C62   C64   A    
C1    O12   A    
C6    C15   A    
C36   O18   S    
C47   C48   S    
C59   H50   S    
C31   H23   S    
C38   O2    S    
C39   H6    S    
C26   O5    S    
Cu1   O17   S    
C44   H21   S    
C19   C27   S    
C54   H39   S    
C51   H32   S    
C59   H51   S    
C55   H43   S    
C43   H18   S    
C18   C25   S    
C44   H20   S    
Cu1   O1    S    
C44   C46   S    
C46   H22   S    
C49   N5    T    
C32   H34   S    
C52   H35   S    
C34   C50   S    
C17   C24   S    
C54   H40   S    
C51   C52   S    
C43   H19   S    
C18   C28   S    
C16   O14   A    
C5    C7    A    
Cu1   O14   S    
C8    N2    A    
C57   H47   S    
C46   H25   S    
C58   C59   S    
C53   C54   S    
C53   O8    S    
C23   C31   A    
C35   N4    T    
C2    C4    A    
C9    H1    S    
C57   H44   S    
C33   N3    T    
C47   H27   S    
C56   C63   A    
C4    C32   A    
C3    C31   A    
C9    C11   A    
C5    C14   A    
C12   C56   S    
C61   N8    T    
C46   H24   S    
C20   C33   S    
C51   O7    S    
C40   C41   S    
C21   C28   S    
C59   H52   S    
C55   C57   S    
C58   H49   S    
C63   O8    S    
C50   N6    T    
C42   C43   S    
C3    C4    S    
C2    C63   A    
C58   O10   S    
C21   C25   S    
C38   H5    S    
C16   C22   S    
C48   H30   S    
C5    C60   S    
C17   O17   A    
C14   C15   S    
C7    N1    A    
C1    O1    A    
C10   C13   A    
C60   N7    T    
C41   H13   S    
C6    C8    A    
C40   H9    S    
Cu2   O12   S    
C20   C27   S    
C25   C27   S    
C40   O3    S    
C52   H33   S    
C26   C28   S    
C12   O13   A    
C55   H42   S    
C42   O4    S    
C2    O10   S    
C13   C15   A    
C21   C35   S    
C1    C45   S    
C20   C26   S    
C53   H37   S    
C28   C30   S    
C9    N1    A    
C13   O2    S    
C7    H45   S    
C36   H55   S    
C18   C20   S    
C39   H7    S    
C62   O7    S    
C36   H54   S    
C24   C30   T    
Cu2   O16   S    
C37   H56   S    
Cu1   N2    S    
C40   H10   S    
Cu1   Cu2   S    
C58   H48   S    
Cu2   N1    S    
C8    H53   S    
C32   C34   A    
C19   C21   S    
C64   O9    S    
