data_mof_unit_57216.cif
_audit_creation_date              2012-12-11T17:43:27-0500
_audit_creation_method            fapswitch 2.2
_symmetry_space_group_name_H-M    P1
_symmetry_Int_Tables_number       1
_space_group_crystal_system       triclinic
_cell_length_a                    15.053921
_cell_length_b                    14.962044
_cell_length_c                    16.917236
_cell_angle_alpha                 108.736052
_cell_angle_beta                  106.30635
_cell_angle_gamma                 109.029027
_cell_volume                      3078.82312904

loop_
_atom_site_label
_atom_site_type_symbol
_atom_type_description
_atom_site_fract_x
_atom_site_fract_y
_atom_site_fract_z
_atom_type_partial_charge
C1    C     C_R   0.083976 0.288357 0.081023 -0.140202
C2    C     C_R   0.083204 0.113559 0.132765 -0.231244
C3    C     C_R   0.992014 0.924456 0.078879 0.054446
C4    C     C_R   0.990065 0.111615 0.083284 0.054599
C5    C     C_R   0.084181 0.021816 0.136290 0.029954
C6    C     C_R   0.894989 0.022193 0.054287 0.029534
C7    C     C_R   0.704718 0.950215 0.954988 -0.180605
C8    C     C_R   0.165462 0.983618 0.264239 -0.140370
C9    C     C_R   0.605160 0.035357 0.005768 -0.096887
C10   C     C_R   0.352526 0.065074 0.350559 -0.088375
C11   C     C_R   0.489851 0.587394 0.272386 -0.122882
C12   C     C_R   0.908546 0.722476 0.977509 -0.121216
C13   C     C_R   0.500343 0.291445 0.644110 -0.116778
C14   C     C_R   0.479364 0.563317 0.182307 -0.116725
C15   C     C_R   0.493267 0.309491 0.727981 -0.133820
C16   C     C_R   0.935563 0.519193 0.746505 -0.139920
C17   C     C_R   0.064149 0.549104 0.265319 -0.128397
C18   C     C_R   0.448528 0.458773 0.119775 0.113811
C19   C     C_R   0.469019 0.390425 0.769865 0.117083
C20   C     C_R   0.429382 0.379078 0.148781 -0.192814
C21   C     C_R   0.450929 0.451988 0.725518 -0.170781
C22   C     C_R   0.438276 0.403325 0.238510 -0.122575
C23   C     C_R   0.026472 0.579077 0.744343 0.066711
C24   C     C_R   0.457855 0.433439 0.641487 -0.106705
C25   C     C_R   0.468588 0.507496 0.300321 -0.100276
C26   C     C_R   0.482584 0.353319 0.600860 -0.094449
C27   C     C_R   0.523146 0.418000 0.012672 -0.235225
C28   C     C_R   0.378435 0.422957 0.871289 -0.242027
C29   C     C_R   0.537386 0.413613 0.933896 0.058178
C30   C     C_R   0.370749 0.438156 0.954853 0.069831
C31   C     C_R   0.462277 0.409884 0.859430 0.022265
C32   C     C_R   0.443139 0.433680 0.025797 0.015631
C33   C     C_R   0.610604 0.955285 0.939415 -0.111925
C34   C     C_R   0.971966 0.535059 0.274449 0.058141
C35   C     C_R   0.252648 0.999679 0.335512 -0.092683
C36   C     C_R   0.962804 0.580033 0.360971 0.129036
C37   C     C_R   0.034133 0.620448 0.677382 0.132101
C38   C     C_R   0.138231 0.694432 0.606856 -0.227867
C39   C     C_R   0.858032 0.561572 0.445755 -0.225752
C40   C     C_R   0.776327 0.202098 0.812460 -0.134246
C41   C     C_R   0.279677 0.785326 0.176817 -0.124586
C42   C     C_R   0.131807 0.676739 0.681266 -0.176941
C43   C     C_R   0.864832 0.546855 0.362665 -0.170798
C44   C     C_R   0.943219 0.594206 0.603302 -0.283180
C45   C     C_R   0.759884 0.196246 0.725632 0.054227
C46   C     C_R   0.053157 0.643538 0.444494 -0.282215
C47   C     C_R   0.948974 0.606475 0.526619 0.188507
C48   C     C_R   0.047244 0.652588 0.526956 0.192009
C49   C     C_R   0.718999 0.099997 0.639595 0.132851
C50   C     C_R   0.444135 0.855773 0.322545 0.131387
C51   C     C_R   0.593788 0.027756 0.392198 -0.244401
C52   C     C_R   0.611757 0.910044 0.555074 -0.234703
C53   C     C_R   0.501382 0.946960 0.316926 -0.178168
C54   C     C_R   0.681343 0.999991 0.638023 -0.170346
C55   C     C_R   0.487665 0.839899 0.398495 -0.314309
C56   C     C_R   0.335524 0.782685 0.255673 0.064883
C57   C     C_R   0.701958 0.106579 0.556179 -0.291096
C58   C     C_R   0.578354 0.920560 0.474270 0.199262
C59   C     C_R   0.628256 0.017747 0.473326 0.192380
C60   C     C_R   0.693713 0.110316 0.088052 -0.123000
C61   C     C_R   0.365581 0.112548 0.292994 -0.136950
C62   C     C_R   0.787945 0.105480 0.104086 -0.143375
C63   C     C_R   0.278638 0.096481 0.221371 -0.178286
C64   C     C_R   0.262206 0.536050 0.951911 -0.137590
C65   C     C_R   0.699440 0.401033 0.993855 -0.154974
C66   C     C_R   0.794484 0.025941 0.037212 0.112490
C67   C     C_R   0.289814 0.461907 0.969287 0.045864
C68   C     C_R   0.177499 0.032494 0.206776 0.113394
C69   C     C_R   0.782083 0.297669 0.734594 -0.128166
C70   C     C_R   0.273439 0.689459 0.253218 -0.146873
C71   C     C_R   0.245945 0.433550 0.023862 -0.108379
C72   C     C_R   0.703606 0.498945 0.919270 -0.129375
C73   C     C_R   0.108124 0.602669 0.823333 -0.141324
C74   C     C_R   0.890341 0.464136 0.187550 -0.135382
C75   C     C_R   0.912692 0.203417 0.000287 -0.145037
C76   C     C_R   0.082553 0.807008 0.051676 -0.131585
C77   C     C_R   0.995333 0.196646 0.054914 0.063898
C78   C     C_R   0.640444 0.432665 0.942944 0.059460
C79   C     C_R   0.994100 0.821625 0.040884 0.053478
C80   C     C_R   0.897112 0.927572 0.047429 -0.230826
H1    H     H_    0.161135 0.316887 0.133022 0.096255
H2    H     H_    0.506427 0.260124 0.760102 0.112959
H3    H     H_    0.406936 0.298327 0.101669 0.113889
H4    H     H_    0.432806 0.515178 0.756452 0.106881
H5    H     H_    0.422567 0.341613 0.260373 0.106173
H6    H     H_    0.444268 0.481414 0.607941 0.103392
H7    H     H_    0.581645 0.422013 0.070414 0.129891
H8    H     H_    0.319617 0.422130 0.816172 0.131820
H9    H     H_    0.129162 0.675084 0.445177 0.116831
H10   H     H_    0.867218 0.554242 0.600111 0.115208
H11   H     H_    0.793316 0.502369 0.299817 0.117528
H12   H     H_    0.827261 0.703571 0.951033 0.092822
H13   H     H_    0.203598 0.701206 0.738560 0.111806
H14   H     H_    0.214201 0.731612 0.608526 0.124104
H15   H     H_    0.781975 0.528294 0.445010 0.126771
H16   H     H_    0.857098 0.499667 0.703552 0.087715
H17   H     H_    0.142825 0.598503 0.318396 0.094354
H18   H     H_    0.541925 0.897302 0.875727 0.103421
H19   H     H_    0.242743 0.962372 0.379785 0.112640
H20   H     H_    0.735511 0.182230 0.555804 0.120380
H21   H     H_    0.446679 0.769655 0.403986 0.114717
H22   H     H_    0.697585 0.991325 0.700778 0.116187
H23   H     H_    0.707987 0.888434 0.902464 0.109579
H24   H     H_    0.471658 0.960021 0.257867 0.122817
H25   H     H_    0.632609 0.101268 0.389860 0.127827
H26   H     H_    0.576213 0.834754 0.555823 0.122956
H27   H     H_    0.532294 0.039276 0.993445 0.098747
H28   H     H_    0.419801 0.078842 0.406825 0.114619
H29   H     H_    0.689381 0.172257 0.139400 0.105714
H30   H     H_    0.443132 0.162412 0.304270 0.104548
H31   H     H_    0.856006 0.164143 0.168132 0.117129
H32   H     H_    0.290299 0.134148 0.177620 0.105590
H33   H     H_    0.766186 0.138350 0.831088 0.095983
H34   H     H_    0.088545 0.934645 0.254948 0.116874
H35   H     H_    0.309514 0.838112 0.149217 0.088861
H36   H     H_    0.285201 0.576539 0.912978 0.099239
H37   H     H_    0.672196 0.339452 0.014195 0.095409
H38   H     H_    0.777089 0.323178 0.681431 0.094722
H39   H     H_    0.296537 0.652166 0.294658 0.092169
H40   H     H_    0.248838 0.375724 0.048107 0.113735
H41   H     H_    0.680094 0.530906 0.872762 0.104155
H42   H     H_    0.188436 0.660346 0.851275 0.084396
H43   H     H_    0.808068 0.435449 0.168525 0.092582
H44   H     H_    0.831066 0.153134 0.974132 0.118501
H45   H     H_    0.476535 0.526511 0.370096 0.097043
H46   H     H_    0.162906 0.865681 0.091046 0.115520
H47   H     H_    0.824287 0.856428 0.016760 0.122926
H48   H     H_    0.155322 0.186344 0.169076 0.120475
H49   H     H_    0.487895 0.339114 0.535834 0.101018
H50   H     H_    0.515772 0.668205 0.320859 0.121767
H51   H     H_    0.519395 0.229313 0.612555 0.110811
H52   H     H_    0.496415 0.626003 0.161583 0.114768
N1    N     N_R   0.055660 0.348550 0.045620 -0.039997
N2    N     N_R   0.185200 0.638170 0.176300 -0.038720
N3    N     N_R   0.201680 0.494570 0.045620 -0.041549
N4    N     N_R   0.798320 0.505430 0.954380 -0.040636
N5    N     N_R   0.068420 0.560530 0.871650 -0.037226
N6    N     N_R   0.931580 0.439470 0.128350 -0.039068
N7    N     N_R   0.948070 0.295860 0.997670 -0.040002
N8    N     N_R   0.051930 0.704140 0.002330 -0.043093
N9    N     N_R   0.944340 0.651450 0.954380 -0.041281
N10   N     N_R   0.960830 0.507850 0.823700 -0.038217
N11   N     N_R   0.039170 0.492150 0.176300 -0.040542
N12   N     N_R   0.811290 0.303410 0.871650 -0.039670
N13   N     N_R   0.188710 0.696590 0.128350 -0.041070
N14   N     N_R   0.205200 0.552990 0.997670 -0.041122
N15   N     N_R   0.794800 0.447010 0.002330 -0.037027
N16   N     N_R   0.814800 0.361830 0.823700 -0.038952
Ni1   Ni    Ni4+2 0.119340 0.493420 0.109960 0.215139
Ni2   Ni    Ni4+2 0.880660 0.506580 0.890040 0.214515
Ni3   Ni    Ni4+2 0.872590 0.372590 0.000000 0.214612
Ni4   Ni    Ni4+2 0.127410 0.627410 0.000000 0.208878

loop_
_geom_bond_atom_site_label_1
_geom_bond_atom_site_label_2
_ccdc_geom_bond_type
N5    N10   A    
C64   H36   S    
C72   H41   S    
C27   C29   A    
C42   H13   S    
C76   H46   S    
C14   C18   A    
C16   N10   A    
C76   C79   A    
N12   N16   A    
C19   C31   S    
C49   C57   A    
C46   H9    S    
C14   H52   S    
C15   C19   A    
C74   N6    A    
C71   H40   S    
C19   C21   A    
N16   Ni2   S    
C38   C42   A    
N12   Ni3   S    
N6    N11   A    
C71   N3    A    
C11   C14   A    
C1    N1    A    
C57   C59   A    
C11   C25   A    
C53   H24   S    
C1    H1    S    
C49   C54   A    
C12   C79   A    
C69   H38   S    
C63   H32   S    
C1    C77   A    
C12   N9    A    
C60   C62   A    
C33   H18   S    
C22   H5    S    
C37   C42   A    
C61   C63   A    
C25   H45   S    
C72   C78   A    
C60   H29   S    
C10   H28   S    
C29   C78   S    
C47   C48   A    
C22   C25   A    
C28   H8    S    
N11   Ni1   S    
N5    Ni4   S    
C36   C46   A    
C10   C35   A    
C65   N15   A    
N8    Ni4   S    
C67   C71   A    
C30   C67   S    
C44   C47   A    
C8    H34   S    
C74   H43   S    
C52   H26   S    
C7    H23   S    
C9    C33   A    
C7    C33   A    
C23   C73   A    
C5    C68   S    
C35   H19   S    
C3    C80   A    
C52   C54   A    
N9    Ni2   S    
C15   H2    S    
C76   N8    A    
C40   C45   A    
C46   C48   A    
C16   H16   S    
C50   C53   A    
C62   C66   A    
C45   C69   A    
C75   H44   S    
N4    N15   A    
C64   C67   A    
N1    Ni1   S    
N8    N9    A    
C4    C6    A    
C39   C43   A    
C58   C59   A    
N3    Ni1   S    
N2    Ni1   S    
C50   C56   S    
C24   H6    S    
C51   C53   A    
C8    C35   A    
C2    C4    A    
C41   C56   A    
C6    C80   A    
C40   H33   S    
C21   H4    S    
C45   C49   S    
C70   H39   S    
C51   H25   S    
N3    N14   A    
C38   H14   S    
C13   H51   S    
C41   N13   A    
C62   H31   S    
C27   H7    S    
C75   C77   A    
C39   H15   S    
C3    C79   S    
C26   H49   S    
C52   C58   A    
C61   H30   S    
C34   C74   A    
N14   Ni4   S    
C20   C22   A    
C8    C68   A    
C16   C23   A    
C56   C70   A    
C40   N12   A    
C13   C15   A    
C13   C26   A    
C55   C58   A    
C10   C61   A    
C51   C59   A    
C17   C34   A    
C21   C24   A    
C41   H35   S    
C11   H50   S    
C44   H10   S    
C39   C47   A    
N2    N13   A    
C63   C68   A    
C65   C78   A    
C64   N14   A    
C27   C32   A    
C38   C48   A    
C12   H12   S    
C28   C31   A    
C24   C26   A    
C3    C5    A    
N4    Ni2   S    
N1    N7    A    
C80   H47   S    
N6    Ni3   S    
C9    H27   S    
C55   H21   S    
C50   C55   A    
C17   N11   A    
C9    C60   A    
C54   H22   S    
N10   Ni2   S    
C37   C44   A    
C28   C30   A    
C4    C77   S    
C29   C31   A    
C23   C37   S    
C7    C66   A    
C30   C32   A    
C57   H20   S    
C73   N5    A    
N15   Ni3   S    
N7    Ni3   S    
C34   C36   S    
C18   C20   A    
C43   H11   S    
N13   Ni4   S    
C72   N4    A    
C2    C5    A    
C6    C66   S    
C18   C32   S    
C73   H42   S    
C20   H3    S    
C70   N2    A    
C69   N16   A    
C65   H37   S    
C36   C43   A    
C75   N7    A    
C17   H17   S    
C2    H48   S    
