data_mof_unit_26122.cif
_audit_creation_date              2012-12-11T14:34:03-0500
_audit_creation_method            fapswitch 2.2
_symmetry_space_group_name_H-M    P1
_symmetry_Int_Tables_number       1
_space_group_crystal_system       triclinic
_cell_length_a                    13.961305
_cell_length_b                    14.013414
_cell_length_c                    27.403488
_cell_angle_alpha                 89.844757
_cell_angle_beta                  90.154236
_cell_angle_gamma                 120.097955
_cell_volume                      4638.47064763

loop_
_atom_site_label
_atom_site_type_symbol
_atom_type_description
_atom_site_fract_x
_atom_site_fract_y
_atom_site_fract_z
_atom_type_partial_charge
C1    C     C_R   0.234412 0.787325 0.568915 0.550195
C2    C     C_R   0.212582 0.446976 0.568846 0.547012
C3    C     C_R   0.552134 0.764901 0.569160 0.547786
C4    C     C_3   0.761252 0.810134 0.783626 -0.194739
C5    C     C_3   0.246918 0.965792 0.783654 -0.172422
C6    C     C_3   0.015533 0.213031 0.774304 -0.177360
C7    C     C_3   0.738542 0.789706 0.727793 0.141561
C8    C     C_3   0.270845 0.948237 0.729865 0.176947
C9    C     C_3   0.030322 0.249535 0.719790 0.169427
C10   C     C_1   0.704469 0.858082 0.860546 -0.070832
C11   C     C_1   0.113720 0.888105 0.851881 -0.070744
C12   C     C_1   0.112695 0.229948 0.852215 -0.068817
C13   C     C_1   0.626576 0.808205 0.659415 0.010847
C14   C     C_1   0.183751 0.824789 0.656655 0.000025
C15   C     C_1   0.175643 0.358316 0.656395 -0.006560
C16   C     C_1   0.599374 0.793752 0.617074 0.066083
C17   C     C_1   0.201798 0.808038 0.615465 0.056409
C18   C     C_1   0.192141 0.393498 0.615291 0.049888
C19   C     C_R   0.107487 0.222734 0.087671 0.571723
C20   C     C_R   0.777281 0.884455 0.087636 0.558446
C21   C     C_R   0.115824 0.892581 0.087490 0.571101
C22   C     C_R   0.069490 0.160888 0.943440 0.530674
C23   C     C_R   0.779764 0.886763 0.950765 0.542752
C24   C     C_R   0.090526 0.930740 0.943493 0.530742
C25   C     C_R   0.640148 0.897845 0.361960 -0.095123
C26   C     C_R   0.101409 0.741667 0.362008 -0.095445
C27   C     C_R   0.257364 0.359463 0.362400 -0.095350
C28   C     C_R   0.665140 0.915728 0.311870 0.001726
C29   C     C_R   0.083636 0.748760 0.311880 0.001508
C30   C     C_R   0.250396 0.334402 0.312352 0.001574
C31   C     C_R   0.707216 0.942061 0.210954 -0.018127
C32   C     C_R   0.057728 0.764314 0.210868 -0.018281
C33   C     C_R   0.234607 0.291709 0.211503 -0.017226
C34   C     C_R   0.234800 0.787478 0.430825 0.540015
C35   C     C_R   0.212426 0.447621 0.430787 0.541473
C36   C     C_R   0.552269 0.764916 0.430772 0.541444
C37   C     C_R   0.727747 0.032683 0.239819 -0.051551
C38   C     C_R   0.966743 0.693407 0.239675 -0.052040
C39   C     C_R   0.304730 0.271191 0.240718 -0.050958
C40   C     C_R   0.705619 0.020710 0.289954 0.252516
C41   C     C_R   0.978548 0.683226 0.289855 0.251337
C42   C     C_R   0.315198 0.293959 0.290787 0.252824
C43   C     C_R   0.734216 0.956376 0.161546 -0.086444
C44   C     C_R   0.043583 0.776854 0.161392 -0.086335
C45   C     C_R   0.222125 0.264733 0.162090 -0.086502
C46   C     C_R   0.720001 0.866594 0.133730 -0.017265
C47   C     C_R   0.133703 0.853187 0.133634 -0.017780
C48   C     C_R   0.146919 0.279530 0.133873 -0.017645
C49   C     C_R   0.591983 0.706679 0.353157 -0.082573
C50   C     C_R   0.292770 0.886909 0.353392 -0.082187
C51   C     C_R   0.114358 0.408168 0.352912 -0.082003
C52   C     C_R   0.610916 0.720448 0.303641 -0.027181
C53   C     C_R   0.279254 0.891874 0.303826 -0.027393
C54   C     C_R   0.109199 0.388929 0.303419 -0.026231
C55   C     C_R   0.647061 0.824525 0.282539 0.005058
C56   C     C_R   0.175137 0.822848 0.282614 0.004904
C57   C     C_R   0.177143 0.352401 0.282691 0.005042
C58   C     C_R   0.590893 0.629676 0.275153 -0.071877
C59   C     C_R   0.370391 0.963409 0.275398 -0.072070
C60   C     C_R   0.038421 0.408946 0.274577 -0.071148
C61   C     C_R   0.607683 0.640156 0.224976 0.264254
C62   C     C_R   0.360239 0.969489 0.225168 0.263154
C63   C     C_R   0.031965 0.391662 0.224442 0.264430
C64   C     C_R   0.645288 0.744555 0.203162 0.009316
C65   C     C_R   0.255769 0.901651 0.203245 0.008784
C66   C     C_R   0.099044 0.354045 0.202987 0.008976
C67   C     C_3   0.539576 0.743939 0.740710 -0.199988
C68   C     C_3   0.143660 0.740561 0.739412 -0.189446
C69   C     C_3   0.208988 0.426726 0.741637 -0.201547
C70   C     C_R   0.665430 0.836821 0.232164 0.004776
C71   C     C_R   0.163116 0.828738 0.232191 0.004576
C72   C     C_R   0.171122 0.333789 0.232340 0.004791
C73   C     C_R   0.669175 0.760896 0.153547 -0.085118
C74   C     C_R   0.239658 0.908928 0.153563 -0.084972
C75   C     C_R   0.091937 0.330444 0.153373 -0.084246
C76   C     C_R   0.601462 0.793215 0.382183 -0.008718
C77   C     C_R   0.206159 0.808649 0.382322 -0.009007
C78   C     C_R   0.191331 0.398396 0.382260 -0.008451
C79   C     C_3   0.689443 0.940145 0.727861 -0.227987
C80   C     C_3   0.066991 0.860524 0.712748 -0.264237
C81   C     C_3   0.214409 0.256519 0.719736 -0.262938
C82   C     C_3   0.702481 0.952650 0.784067 -0.213737
C83   C     C_3   0.042299 0.870091 0.767103 -0.240219
C84   C     C_3   0.199927 0.223728 0.774436 -0.237095
C85   C     C_1   0.733087 0.871135 0.902734 -0.013451
C86   C     C_1   0.101783 0.905475 0.893872 -0.013276
C87   C     C_1   0.095430 0.199587 0.894101 -0.014424
C88   C     C_3   0.648370 0.819045 0.712376 0.025602
C89   C     C_3   0.167951 0.843171 0.708291 0.035977
C90   C     C_3   0.156590 0.323845 0.707896 0.042974
C91   C     C_3   0.561231 0.752551 0.796645 -0.217016
C92   C     C_3   0.129723 0.760145 0.794010 -0.207409
C93   C     C_3   0.187375 0.391445 0.796029 -0.207319
C94   C     C_3   0.681852 0.843463 0.807681 0.017779
C95   C     C_3   0.132417 0.871308 0.800489 0.019165
C96   C     C_3   0.128961 0.264217 0.800631 0.024800
Cr1   Cr    Cr6+3 0.164410 0.584450 0.499910 1.099318
Cr2   Cr    Cr6+3 0.415550 0.579960 0.499910 1.092426
Cr3   Cr    Cr6+3 0.420040 0.835590 0.499910 1.098246
Cr4   Cr    Cr6+3 0.155170 0.075460 0.019960 1.056706
Cr5   Cr    Cr6+3 0.924540 0.079710 0.019960 1.050191
Cr6   Cr    Cr6+3 0.920290 0.844830 0.019960 1.055328
H1    H     H_    0.502097 0.771152 0.815478 0.151537
H2    H     H_    0.049895 0.691044 0.807725 0.140707
H3    H     H_    0.267430 0.430245 0.816192 0.123642
H4    H     H_    0.501352 0.656943 0.728681 0.181651
H5    H     H_    0.211016 0.720780 0.735364 0.186663
H6    H     H_    0.176492 0.482661 0.732917 0.184641
H7    H     H_    0.546414 0.671885 0.810926 0.140616
H8    H     H_    0.196999 0.760209 0.815886 0.161361
H9    H     H_    0.135113 0.421893 0.812699 0.164542
H10   H     H_    0.773446 0.038371 0.145670 0.164042
H11   H     H_    0.961412 0.733379 0.145407 0.163970
H12   H     H_    0.264854 0.225319 0.146487 0.163617
H13   H     H_    0.761939 0.113284 0.223071 0.225530
H14   H     H_    0.886011 0.646310 0.222842 0.226572
H15   H     H_    0.351221 0.236864 0.224268 0.225503
H16   H     H_    0.656735 0.693533 0.130271 0.210878
H17   H     H_    0.307303 0.964438 0.130320 0.211403
H18   H     H_    0.037269 0.343307 0.129817 0.211645
H19   H     H_    0.477568 0.768546 0.731824 0.203932
H20   H     H_    0.066398 0.667323 0.726112 0.150455
H21   H     H_    0.299937 0.475392 0.735269 0.118040
H22   H     H_    0.770431 0.996173 0.710216 0.135163
H23   H     H_    0.083765 0.936868 0.692968 0.104014
H24   H     H_    0.178835 0.180812 0.696825 0.109727
H25   H     H_    0.630311 0.966376 0.715360 0.235685
H26   H     H_    0.993076 0.790988 0.695348 0.195743
H27   H     H_    0.304280 0.305836 0.711050 0.168917
H28   H     H_    0.786754 0.020704 0.793281 0.125085
H29   H     H_    0.037454 0.946045 0.772439 0.098610
H30   H     H_    0.157619 0.132842 0.777353 0.109137
H31   H     H_    0.816486 0.846330 0.708098 0.097879
H32   H     H_    0.284160 0.020957 0.707981 0.118773
H33   H     H_    0.997051 0.174106 0.696782 0.098138
H34   H     H_    0.754154 0.736387 0.802384 0.147007
H35   H     H_    0.311456 0.971699 0.809256 0.164400
H36   H     H_    0.960562 0.236235 0.793959 0.185264
O1    O     O_R   0.137150 0.468200 0.553200 -0.465011
O2    O     O_R   0.531800 0.668950 0.553200 -0.474196
O3    O     O_R   0.331050 0.862850 0.553200 -0.472255
O4    O     O_R   0.179100 0.982980 0.967000 -0.495994
O5    O     O_R   0.017020 0.196120 0.967000 -0.484929
O6    O     O_R   0.803880 0.820900 0.967000 -0.511338
O7    O     O_R   0.173970 0.688730 0.549930 -0.492837
O8    O     O_R   0.311270 0.485240 0.549930 -0.498003
O9    O     O_R   0.514760 0.826030 0.549930 -0.484853
O10   O     O_R   0.140110 0.470540 0.446010 -0.501696
O11   O     O_R   0.529460 0.669570 0.446010 -0.501397
O12   O     O_R   0.330430 0.859890 0.446010 -0.504179
O13   O     O_R   0.176710 0.690910 0.450560 -0.501251
O14   O     O_R   0.309090 0.485800 0.450560 -0.501125
O15   O     O_R   0.514200 0.823290 0.450560 -0.501021
O16   O     O_3   0.333333 0.666667 0.499990 -0.305800
O17   O     O_R   0.176750 0.985260 0.074180 -0.502417
O18   O     O_R   0.014740 0.191490 0.074180 -0.500234
O19   O     O_R   0.808510 0.823250 0.074180 -0.503996
O20   O     O_R   0.146100 0.172630 0.068980 -0.486022
O21   O     O_R   0.827370 0.973470 0.068980 -0.490536
O22   O     O_R   0.026530 0.853900 0.068980 -0.484466
O23   O     O_3   1.000000 0.000000 0.020040 -0.275807
O24   O     O_R   0.148270 0.170520 0.969620 -0.499916
O25   O     O_R   0.829480 0.977750 0.969620 -0.518955
O26   O     O_R   0.022250 0.851730 0.969620 -0.481225
H37   H     H_    0.847560 0.878246 0.789277 0.071569
H38   H     H_    0.250408 0.046156 0.786615 0.081755
H39   H     H_    0.974835 0.121544 0.775999 0.059189
H40   H     H_    0.647720 0.962952 0.385487 0.205566
H41   H     H_    0.036205 0.683253 0.385480 0.205579
H42   H     H_    0.314854 0.351701 0.386189 0.205209
S1    S     S_3+6 0.733137 0.139422 0.323915 0.012420
O27   O     O_2   0.630050 0.118328 0.350321 -0.315615
O28   O     O_2   0.822905 0.163985 0.360535 -0.264898
O29   O     O_3   0.774305 0.248925 0.286929 -0.459231
H43   H     H_    0.766478 0.303766 0.306611 0.404851
S2    S     S_3+6 0.859503 0.590583 0.323712 0.011820
O30   O     O_2   0.881359 0.509305 0.350200 -0.314824
O31   O     O_2   0.833971 0.654494 0.360250 -0.265285
O32   O     O_3   0.749923 0.521488 0.286626 -0.457687
H44   H     H_    0.694462 0.459250 0.306534 0.405007
S3    S     S_3+6 0.407798 0.268051 0.325027 0.010895
O33   O     O_2   0.489345 0.371289 0.351389 -0.313660
O34   O     O_2   0.343294 0.178538 0.361685 -0.267338
O35   O     O_3   0.477260 0.228049 0.288275 -0.460638
H45   H     H_    0.539760 0.235407 0.308287 0.403844
S4    S     S_3+6 0.585410 0.522447 0.191342 0.004917
O36   O     O_2   0.552707 0.425554 0.224551 -0.228081
O37   O     O_2   0.495024 0.493728 0.154509 -0.304715
O38   O     O_3   0.702720 0.551015 0.162155 -0.532452
H46   H     H_    0.687183 0.480196 0.147401 0.384246
S5    S     S_3+6 0.478342 0.066066 0.191610 0.004647
O39   O     O_2   0.575251 0.130960 0.224912 -0.225246
O40   O     O_2   0.508002 0.005498 0.154974 -0.305732
O41   O     O_3   0.449041 0.153879 0.162173 -0.533055
H47   H     H_    0.520062 0.209861 0.147470 0.384015
S6    S     S_3+6 0.935653 0.412965 0.190453 0.005082
O42   O     O_2   0.870482 0.444727 0.223409 -0.228007
O43   O     O_2   0.997061 0.503236 0.153710 -0.304106
O44   O     O_3   0.847436 0.295857 0.161134 -0.531884
H48   H     H_    0.791559 0.310760 0.146185 0.383907
H49   H     H_    0.561879 0.550168 0.292299 0.195883
H50   H     H_    0.449944 0.014643 0.292631 0.197194
H51   H     H_    0.987919 0.438229 0.291419 0.195624
H52   H     H_    0.561940 0.624947 0.368316 0.178648
H53   H     H_    0.374535 0.939566 0.368657 0.178949
H54   H     H_    0.062791 0.438577 0.367817 0.178050
H55   H     H_    0.643051 0.975945 0.798942 0.163468
H56   H     H_    0.960672 0.798515 0.777084 0.167772
H57   H     H_    0.282418 0.258491 0.792289 0.148164
S7    S     S_3+6 0.705711 0.650983 0.711799 -0.010139
O45   O     O_2   0.679596 0.630876 0.658316 -0.212550
O46   O     O_2   0.804036 0.637702 0.722379 -0.319545
O47   O     O_3   0.597102 0.555080 0.743836 -0.528181
H58   H     H_    0.628406 0.547600 0.775125 0.346980
S8    S     S_3+6 0.398986 0.946215 0.727464 -0.049819
O48   O     O_2   0.411426 0.899896 0.680079 -0.278671
O49   O     O_2   0.493804 0.062417 0.732512 -0.264298
O50   O     O_3   0.402781 0.869398 0.773882 -0.610245
H59   H     H_    0.449581 0.922561 0.799319 0.342722
S9    S     S_3+6 0.946476 0.311240 0.705961 -0.007145
O51   O     O_2   0.965894 0.354212 0.654512 -0.244939
O52   O     O_2   0.826700 0.224367 0.711397 -0.257175
O53   O     O_3   0.974887 0.414854 0.744846 -0.567938
H60   H     H_    0.926157 0.443705 0.734489 0.388303

loop_
_geom_bond_atom_site_label_1
_geom_bond_atom_site_label_2
_ccdc_geom_bond_type
Cr2   O11   S    
C15   C18   T    
S1    O27   D    
Cr2   O16   S    
C10   C85   T    
C3    O9    A    
C82   C94   S    
C81   H24   S    
C2    C18   S    
C33   C45   A    
C1    O7    A    
O53   H60   S    
C48   C75   A    
C39   H15   S    
C8    S8    S    
C92   H8    S    
C81   C84   S    
C6    C9    S    
S9    O52   D    
C34   O12   A    
C51   H54   S    
Cr2   O14   S    
O47   H58   S    
O35   H45   S    
C25   C28   A    
C74   H17   S    
S1    O28   D    
C67   C88   S    
C33   C39   A    
C31   C43   A    
C60   C63   A    
C2    O1    A    
C7    H31   S    
C37   C40   A    
C69   C93   S    
S8    O49   D    
C34   C77   S    
C49   H52   S    
C22   O24   A    
C64   C70   A    
C36   O11   A    
S3    O35   S    
C80   H23   S    
C69   H21   S    
C11   C86   T    
Cr3   O16   S    
C4    H37   S    
C43   H10   S    
C84   C96   S    
C80   C89   S    
C39   C42   A    
O29   H43   S    
S9    O51   D    
C79   H25   S    
C36   C76   S    
C33   C72   A    
C93   H3    S    
C45   H12   S    
C28   C55   A    
S2    O32   S    
C66   C72   A    
C68   C92   S    
C26   H41   S    
C24   O4    A    
C20   O21   A    
C22   O5    A    
C64   C73   A    
Cr4   O23   S    
C68   H5    S    
C32   C38   A    
C82   H28   S    
C62   C65   A    
C44   C47   A    
C46   C73   A    
C4    H34   S    
C27   C78   A    
C58   C61   A    
S2    O31   D    
O41   H47   S    
C63   C66   A    
O44   H48   S    
C42   S3    S    
C27   C30   A    
C19   O18   A    
C14   C17   T    
C24   O26   A    
Cr6   O6    S    
C80   C83   S    
C67   H19   S    
Cr6   O19   S    
C82   H55   S    
C5    C95   S    
C69   H6    S    
C36   O15   A    
C32   C71   A    
C23   O25   A    
C31   C70   A    
C25   H40   S    
C53   C59   A    
C52   C58   A    
S1    O29   S    
C26   C77   A    
C28   C40   A    
C8    H32   S    
S5    O39   D    
C50   C53   A    
Cr5   O25   S    
C58   H49   S    
C38   C41   A    
S6    O43   D    
S3    O34   D    
Cr6   O22   S    
C19   C48   S    
C54   C60   A    
Cr2   O8    S    
Cr5   O18   S    
C4    C7    S    
S3    O33   D    
C84   H30   S    
C92   C95   S    
C65   C74   A    
C31   C37   A    
Cr2   O2    S    
C30   C57   A    
C6    H36   S    
C61   C64   A    
S8    O48   D    
S5    O40   D    
C14   C89   S    
C83   H29   S    
C83   H56   S    
C79   C82   S    
C38   H14   S    
C60   H51   S    
C81   H27   S    
C7    C88   S    
Cr1   O13   S    
Cr3   O12   S    
C49   C52   A    
C83   C95   S    
C67   C91   S    
C68   C89   S    
C21   O17   A    
C49   C76   A    
C5    H38   S    
C27   H42   S    
Cr5   O21   S    
C79   C88   S    
C93   H9    S    
C4    C94   S    
C81   C90   S    
C9    H33   S    
C9    S9    S    
S2    O30   D    
C41   S2    S    
C44   H11   S    
C93   C96   S    
C6    C96   S    
C20   O19   A    
Cr1   O10   S    
C23   O6    A    
S8    O50   S    
C35   O14   A    
C9    C90   S    
C68   H20   S    
C69   C90   S    
C50   C77   A    
C7    S7    S    
Cr4   O17   S    
C45   C48   A    
C11   C95   S    
Cr3   O9    S    
C6    H39   S    
C59   C62   A    
C73   H16   S    
C12   C87   T    
C29   C41   A    
C84   H57   S    
C19   O20   A    
Cr1   O7    S    
Cr3   O3    S    
C30   C42   A    
C75   H18   S    
C47   C74   A    
C91   H1    S    
S6    O42   D    
C22   C87   S    
Cr1   O16   S    
C5    C8    S    
C34   O13   A    
C52   C55   A    
C67   H4    S    
C5    H35   S    
C62   S5    S    
C37   H13   S    
C29   C56   A    
C2    O8    A    
S7    O47   S    
C80   H26   S    
C79   H22   S    
C35   C78   S    
C1    C17   S    
C8    C89   S    
C25   C76   A    
C51   C54   A    
S4    O38   S    
Cr5   O23   S    
C51   C78   A    
Cr4   O4    S    
C15   C90   S    
Cr5   O5    S    
C59   H50   S    
C91   H7    S    
O50   H59   S    
C24   C86   S    
Cr6   O23   S    
C66   C75   A    
Cr3   O15   S    
C13   C88   S    
C61   S4    S    
C21   O22   A    
C35   O10   A    
C40   S1    S    
C57   C72   A    
O38   H46   S    
C43   C46   A    
C53   C56   A    
S5    O41   S    
C55   C70   A    
C1    O3    A    
C92   H2    S    
O32   H44   S    
C50   H53   S    
Cr4   O20   S    
C65   C71   A    
C32   C44   A    
C26   C29   A    
Cr6   O26   S    
S7    O45   D    
C23   C85   S    
C13   C16   T    
C10   C94   S    
C63   S6    S    
C12   C96   S    
Cr4   O24   S    
C3    O2    A    
S7    O46   D    
C21   C47   S    
S4    O36   D    
S4    O37   D    
Cr1   O1    S    
S9    O53   S    
C20   C46   S    
C3    C16   S    
C56   C71   A    
S6    O44   S    
C91   C94   S    
C54   C57   A    
