data_mof_unit_22923.cif
_audit_creation_date              2012-12-11T15:39:22-0500
_audit_creation_method            fapswitch 2.2
_symmetry_space_group_name_H-M    P1
_symmetry_Int_Tables_number       1
_space_group_crystal_system       triclinic
_cell_length_a                    6.944157
_cell_length_b                    15.113025
_cell_length_c                    16.609425
_cell_angle_alpha                 95.571087
_cell_angle_beta                  90.068481
_cell_angle_gamma                 90.12496
_cell_volume                      1734.87352682

loop_
_atom_site_label
_atom_site_type_symbol
_atom_type_description
_atom_site_fract_x
_atom_site_fract_y
_atom_site_fract_z
_atom_type_partial_charge
O1    O     O_R   0.633330 0.174290 0.828230 -0.532613
O2    O     O_R   0.366670 0.825710 0.171770 -0.531890
O3    O     O_R   0.301450 0.154140 0.662030 -0.545212
O4    O     O_R   0.698550 0.845860 0.337970 -0.553427
O5    O     O_R   0.133140 0.325730 0.671770 -0.537883
O6    O     O_R   0.866860 0.674270 0.328230 -0.538069
C1    C     C_R   0.470432 0.132881 0.632738 0.701815
C2    C     C_R   0.529593 0.867290 0.367247 0.723839
O7    O     O_R   0.303490 0.163670 0.827000 -0.533426
O8    O     O_R   0.696510 0.836330 0.173000 -0.536133
O9    O     O_R   0.135190 0.335320 0.837920 -0.536607
O10   O     O_R   0.864810 0.664680 0.162080 -0.536977
C3    C     C_R   0.472408 0.143277 0.854042 0.721185
C4    C     C_R   0.527581 0.856697 0.145929 0.722102
O11   O     O_R   0.631280 0.164690 0.662080 -0.539649
O12   O     O_R   0.368720 0.835310 0.337920 -0.536245
O13   O     O_3   0.467420 0.306310 0.753380 -0.366873
O14   O     O_3   0.532580 0.693690 0.246620 -0.366899
V1    V     V_3+5 0.191790 0.239560 0.749370 1.400112
V2    V     V_3+5 0.808210 0.760440 0.250630 1.397393
O15   O     O_R   0.805590 0.345870 0.837970 -0.541409
O16   O     O_R   0.194410 0.654130 0.162030 -0.542399
C5    C     C_R   0.974693 0.368532 0.866740 0.683912
C6    C     C_R   0.025307 0.631464 0.133263 0.681312
O17   O     O_R   0.803560 0.336340 0.672990 -0.535116
O18   O     O_R   0.196440 0.663660 0.327010 -0.532558
C7    C     C_R   0.972408 0.356488 0.645740 0.711656
C8    C     C_R   0.027569 0.643290 0.354080 0.711251
V3    V     V_3+5 0.692030 0.260450 0.750630 1.407038
V4    V     V_3+5 0.307970 0.739550 0.249370 1.420111
O19   O     O_3   0.966260 0.193700 0.746610 -0.367182
O20   O     O_3   0.033740 0.806300 0.253390 -0.369123
C9    C     C_1   0.982890 0.418308 0.583190 -0.207780
C10   C     C_1   0.017087 0.581184 0.416402 -0.201914
C11   C     C_1   0.993447 0.469529 0.530667 0.001007
C12   C     C_1   0.006551 0.529800 0.468794 0.005653
C13   C     C_3   0.923288 0.576361 0.980206 -0.139394
C14   C     C_3   0.076716 0.423630 0.019801 -0.140192
C15   C     C_3   0.095696 0.527446 0.936766 -0.138825
C16   C     C_3   0.904307 0.472546 0.063241 -0.139719
H1    H     H_    0.174431 0.549755 0.884205 0.105597
H2    H     H_    0.825582 0.450238 0.115805 0.104272
H3    H     H_    0.860094 0.639785 0.964263 0.103817
H4    H     H_    0.139912 0.360208 0.035745 0.103410
C17   C     C_3   0.986422 0.438767 0.937516 -0.009663
C18   C     C_3   0.013580 0.561225 0.062490 -0.009263
C19   C     C_3   0.813838 0.486889 0.980174 -0.115512
C20   C     C_3   0.186165 0.513102 0.019833 -0.116045
H5    H     H_    0.660227 0.475864 0.963464 0.107613
H6    H     H_    0.339775 0.524128 0.036543 0.107340
C21   C     C_3   0.676688 0.020722 0.531600 -0.285499
C22   C     C_3   0.324839 0.980924 0.467330 -0.272628
C23   C     C_3   0.576987 0.928659 0.525781 0.503782
C24   C     C_3   0.424009 0.073022 0.472358 0.501677
H7    H     H_    0.822133 0.036296 0.557008 0.134164
H8    H     H_    0.179250 0.965773 0.441875 0.135170
C25   C     C_3   0.516793 0.936961 0.437709 -0.196041
C26   C     C_3   0.483064 0.064662 0.561202 -0.191061
C27   C     C_3   0.614213 0.029152 0.442464 0.011930
C28   C     C_3   0.387047 0.972172 0.556209 0.019421
C29   C     C_1   0.482702 0.081104 0.916309 -0.197638
C30   C     C_1   0.517228 0.918599 0.083414 -0.200214
C31   C     C_1   0.493279 0.029805 0.968769 0.000008
C32   C     C_1   0.506573 0.969734 0.030811 0.002466
O21   O     O_3   0.648057 0.853050 0.559654 -0.563036
C33   C     C_3   0.816369 0.821631 0.519375 -0.255392
H9    H     H_    0.909940 0.875476 0.499812 0.114899
H10   H     H_    0.777441 0.773967 0.466997 0.161064
H11   H     H_    0.901838 0.784431 0.561292 0.155815
O22   O     O_3   0.342232 0.142330 0.432209 -0.562354
C34   C     C_3   0.329112 0.221391 0.483825 -0.266561
H12   H     H_    0.469823 0.240787 0.512368 0.115555
H13   H     H_    0.214832 0.215556 0.529605 0.148142
H14   H     H_    0.286205 0.275798 0.447351 0.162990
C35   C     C_3   0.743632 0.059119 0.375756 -0.317704
C36   C     C_3   0.827408 0.152006 0.398204 -0.296785
C37   C     C_3   0.949042 0.181747 0.329250 -0.711848
H15   H     H_    0.069110 0.134465 0.314747 0.257513
H16   H     H_    0.858922 0.185386 0.274371 0.213983
H17   H     H_    0.010022 0.248724 0.347223 0.215873
H18   H     H_    0.709586 0.200730 0.410969 0.212323
H19   H     H_    0.918155 0.151606 0.453299 0.200006
H20   H     H_    0.863314 0.010737 0.365099 0.173411
H21   H     H_    0.657483 0.058570 0.319268 0.176895
C38   C     C_3   0.250667 0.937474 0.618348 -0.327427
C39   C     C_3   0.348243 0.930941 0.700479 -0.267396
C40   C     C_3   0.202865 0.906133 0.763383 -0.766408
H22   H     H_    0.089968 0.958085 0.772741 0.234941
H23   H     H_    0.134134 0.841220 0.743469 0.229691
H24   H     H_    0.277480 0.900672 0.821866 0.218811
H25   H     H_    0.462666 0.879550 0.694427 0.229387
H26   H     H_    0.415854 0.995248 0.722661 0.178410
H27   H     H_    0.124728 0.982736 0.625762 0.176282
H28   H     H_    0.199112 0.870516 0.594305 0.170945

loop_
_geom_bond_atom_site_label_1
_geom_bond_atom_site_label_2
_ccdc_geom_bond_type
C16   C19   S    
C33   H10   S    
C40   H22   S    
C5    C17   S    
O13   V3    S    
C11   C12   S    
O4    C2    A    
V1    O19   S    
C19   H5    S    
C38   C39   S    
C7    C9    S    
C16   C18   S    
O9    V1    S    
O3    C1    A    
C39   H25   S    
C24   C26   S    
C35   H21   S    
C25   C27   S    
C33   H11   S    
O12   V4    S    
C4    C30   S    
C17   C19   S    
C29   C31   T    
O7    C3    A    
C14   C17   S    
C30   C32   T    
C22   C28   S    
O13   V1    S    
O5    C7    A    
C38   H27   S    
O7    V1    S    
O6    C8    A    
O8    V2    S    
O3    V1    S    
O22   C34   S    
O14   V4    S    
C13   C19   S    
C23   O21   S    
C1    C26   S    
C14   C20   S    
C15   C17   S    
C20   H6    S    
C33   H9    S    
C8    C10   S    
C2    O12   A    
C23   C28   S    
C22   C24   S    
O11   V3    S    
C24   C27   S    
C37   H16   S    
O17   V3    S    
C18   C20   S    
V4    O20   S    
C36   C37   S    
C15   H1    S    
O8    C4    A    
C36   H19   S    
C34   H13   S    
C23   C25   S    
C39   C40   S    
C1    O11   A    
C21   H7    S    
C37   H15   S    
O15   V3    S    
C21   C23   S    
C13   H3    S    
C35   C36   S    
C14   H4    S    
C2    C25   S    
C38   H28   S    
C24   O22   S    
O10   V2    S    
O1    V3    S    
C3    C29   S    
C21   C26   S    
O18   V4    S    
O15   C5    A    
O16   C6    A    
O1    C3    A    
C27   C35   S    
V2    O20   S    
C37   H17   S    
O16   V4    S    
C16   H2    S    
C36   H18   S    
C34   H14   S    
C28   C38   S    
O5    V1    S    
O17   C7    A    
O6    V2    S    
O10   C6    A    
O18   C8    A    
O2    V4    S    
C6    C18   S    
C40   H23   S    
C34   H12   S    
V3    O19   S    
C39   H26   S    
C14   C16   S    
C35   H20   S    
O9    C5    A    
C9    C11   T    
C10   C12   T    
O14   V2    S    
O2    C4    A    
C22   C25   S    
C31   C32   S    
O4    V2    S    
C21   C27   S    
C13   C15   S    
O21   C33   S    
C40   H24   S    
C13   C18   S    
C26   C28   S    
C22   H8    S    
C15   C20   S    
