data_mof_unit_32645.cif
_audit_creation_date              2012-12-10T19:50:09-0500
_audit_creation_method            fapswitch 2.2
_symmetry_space_group_name_H-M    P1
_symmetry_Int_Tables_number       1
_space_group_crystal_system       triclinic
_cell_length_a                    14.226268
_cell_length_b                    14.891633
_cell_length_c                    15.44892
_cell_angle_alpha                 90.912157
_cell_angle_beta                  67.661014
_cell_angle_gamma                 90.442451
_cell_volume                      3026.87550252

loop_
_atom_site_label
_atom_site_type_symbol
_atom_type_description
_atom_site_fract_x
_atom_site_fract_y
_atom_site_fract_z
_atom_type_partial_charge
C1    C     C_R   0.500295 0.672296 0.500507 0.945090
C2    C     C_R   0.566680 0.190593 0.544625 -0.370273
C3    C     C_R   0.497596 0.768106 0.512664 -0.202510
C4    C     C_R   0.491018 0.231114 0.520935 -0.219755
C5    C     C_R   0.583837 0.819600 0.463354 0.498931
C6    C     C_R   0.407217 0.180149 0.520400 0.498516
C7    C     C_R   0.578365 0.912336 0.478988 -0.296998
C8    C     C_R   0.406929 0.088023 0.532860 -0.275272
C9    C     C_R   0.491848 0.950826 0.547158 -0.012989
C10   C     C_R   0.484784 0.047757 0.552377 -0.005621
C11   C     C_R   0.865402 0.533883 0.574418 -0.388707
C12   C     C_R   0.498166 0.327183 0.503527 0.919755
C13   C     C_R   0.122422 0.431600 0.456419 -0.443908
C14   C     C_R   0.767305 0.538381 0.572380 0.541564
C15   C     C_R   0.224190 0.433693 0.452511 0.545019
C16   C     C_R   0.436320 0.498509 0.676172 0.917809
C17   C     C_R   0.563816 0.499969 0.323767 0.954299
C18   C     C_R   0.825309 0.464212 0.424702 0.458792
C19   C     C_R   0.186461 0.566987 0.546086 0.447962
C20   C     C_R   0.927416 0.469854 0.418903 0.320368
C21   C     C_R   0.090015 0.573318 0.539576 0.340906
C22   C     C_R   0.948193 0.501613 0.496814 -0.038164
C23   C     C_R   0.420487 0.391890 0.080066 -0.324209
C24   C     C_R   0.054677 0.502500 0.497574 -0.005216
C25   C     C_R   0.397235 0.482143 0.776500 -0.261237
C26   C     C_R   0.605710 0.498702 0.221651 -0.262067
C27   C     C_R   0.291492 0.395990 0.910760 0.455147
C28   C     C_R   0.735178 0.539558 0.072196 0.435865
C29   C     C_R   0.311892 0.427933 0.820389 0.471261
C30   C     C_R   0.702064 0.533746 0.169668 0.539577
C31   C     C_R   0.459929 0.506006 0.823223 -0.303030
C32   C     C_R   0.544536 0.465853 0.176487 -0.319848
C33   C     C_R   0.450553 0.464735 0.906482 -0.012112
C34   C     C_R   0.623634 0.511566 0.891542 -0.315401
C35   C     C_R   0.574193 0.472059 0.079591 -0.009700
C36   C     C_R   0.362907 0.411595 0.953040 -0.183731
C37   C     C_R   0.669182 0.512950 0.027138 -0.186432
C38   C     C_R   0.526803 0.475369 0.943961 0.030722
C39   C     C_R   0.506951 0.446022 0.035493 0.044348
C40   C     C_3   0.704478 0.671547 0.643954 -0.301060
C41   C     C_3   0.275223 0.319254 0.337424 -0.221977
C42   C     C_3   0.811939 0.335039 0.349896 -0.214539
C43   C     C_3   0.169578 0.616940 0.690681 -0.219721
C44   C     C_3   0.037620 0.516814 0.277871 -0.248909
C45   C     C_R   0.350159 0.374247 0.039543 0.658816
C46   C     C_3   0.049281 0.711304 0.505291 -0.265663
C47   C     C_3   0.120895 0.394063 0.990288 -0.184849
C48   C     C_3   0.905577 0.519233 0.005646 -0.195794
C49   C     C_3   0.309431 0.906072 0.757015 -0.292625
C50   C     C_3   0.608963 0.053074 0.679449 -0.304906
C51   C     C_3   0.759850 0.811477 0.393060 -0.246030
C52   C     C_3   0.242113 0.223956 0.580965 -0.190678
C53   C     C_R   0.694364 0.528388 0.931655 0.667863
C54   C     C_R   0.409163 0.897846 0.601293 0.536101
C55   C     C_R   0.562620 0.099576 0.562799 0.538462
C56   C     C_R   0.411278 0.806418 0.580949 -0.374205
F1    F     F_    0.269521 0.320863 0.086303 -0.639134
F2    F     F_    0.785626 0.563543 0.876849 -0.637054
F3    F     F_    0.761466 0.567889 0.213421 -0.620968
F4    F     F_    0.252057 0.401218 0.774033 -0.683176
H1    H     H_    0.875994 0.556646 0.636945 0.255712
H2    H     H_    0.348026 0.047422 0.523135 0.194589
H3    H     H_    0.714737 0.699344 0.574487 0.171032
H4    H     H_    0.770098 0.689986 0.663029 0.190359
H5    H     H_    0.635767 0.703360 0.696495 0.175640
H6    H     H_    0.344714 0.282054 0.293690 0.189254
H7    H     H_    0.253966 0.363464 0.290347 0.173206
H8    H     H_    0.215569 0.268173 0.370710 0.175117
H9    H     H_    0.777336 0.306906 0.301951 0.171424
H10   H     H_    0.770111 0.306069 0.420222 0.135338
H11   H     H_    0.892638 0.313380 0.322929 0.193713
H12   H     H_    0.095176 0.374900 0.428226 0.223486
H13   H     H_    0.205650 0.660724 0.728081 0.152592
H14   H     H_    0.178487 0.546221 0.708707 0.189776
H15   H     H_    0.087676 0.634759 0.716761 0.209278
H16   H     H_    0.066867 0.571839 0.310465 0.137529
H17   H     H_    0.100984 0.495137 0.212907 0.190362
H18   H     H_    0.975461 0.541934 0.257586 0.200947
H19   H     H_    0.026219 0.684861 0.448484 0.137159
H20   H     H_    0.130525 0.732387 0.476213 0.180424
H21   H     H_    0.002874 0.771947 0.535449 0.187878
H22   H     H_    0.103519 0.427313 0.934179 0.151816
H23   H     H_    0.470136 0.441368 0.219553 0.205718
H24   H     H_    0.128253 0.445019 0.040968 0.128263
H25   H     H_    0.055438 0.350197 0.028970 0.189129
H26   H     H_    0.895482 0.459839 0.965296 0.150354
H27   H     H_    0.912132 0.497549 0.071692 0.162576
H28   H     H_    0.978224 0.552093 0.962593 0.173973
H29   H     H_    0.380278 0.911400 0.771463 0.141168
H30   H     H_    0.280602 0.835887 0.766233 0.158290
H31   H     H_    0.251148 0.948434 0.809943 0.207017
H32   H     H_    0.541577 0.008321 0.708695 0.160072
H33   H     H_    0.592600 0.120230 0.714633 0.171786
H34   H     H_    0.519092 0.554421 0.790590 0.218686
H35   H     H_    0.671580 0.022683 0.695096 0.194038
H36   H     H_    0.758402 0.824755 0.464742 0.131489
H37   H     H_    0.782516 0.872893 0.350100 0.168186
H38   H     H_    0.819109 0.759978 0.359801 0.195605
H39   H     H_    0.211883 0.156195 0.606743 0.149236
H40   H     H_    0.182685 0.259412 0.564679 0.181209
H41   H     H_    0.255886 0.263453 0.636876 0.202750
H42   H     H_    0.407883 0.358772 0.144942 0.157257
H43   H     H_    0.648240 0.524866 0.817886 0.215799
H44   H     H_    0.346275 0.764999 0.619168 0.212701
H45   H     H_    0.629447 0.229175 0.549336 0.196827
H46   H     H_    0.639347 0.955251 0.435701 0.183424
N1    N     N_R   0.747530 0.500020 0.500000 -0.187247
N2    N     N_R   0.252470 0.499980 0.500000 -0.182615
O1    O     O_R   0.420530 0.630930 0.499990 -0.583259
O2    O     O_3   0.296995 0.369123 0.405933 -0.542342
O3    O     O_3   0.804503 0.429457 0.350527 -0.536179
O4    O     O_3   0.217531 0.632346 0.593789 -0.575237
O5    O     O_3   0.005504 0.442523 0.337487 -0.600169
O6    O     O_3   0.030569 0.648064 0.576875 -0.594742
O7    O     O_3   0.208682 0.340394 0.952230 -0.515402
O8    O     O_3   0.826464 0.581832 0.023258 -0.514964
O9    O     O_3   0.323601 0.937634 0.667278 -0.604940
O10   O     O_3   0.640413 0.060473 0.581666 -0.618189
O11   O     O_3   0.666265 0.778364 0.393725 -0.576687
O12   O     O_R   0.579470 0.369070 0.500010 -0.643669
O13   O     O_3   0.330769 0.218246 0.498725 -0.573003
O14   O     O_R   0.579480 0.630940 0.499990 -0.581967
O15   O     O_R   0.420520 0.369060 0.500010 -0.517823
O16   O     O_R   0.375120 0.499990 0.632240 -0.577136
O17   O     O_R   0.624880 0.500010 0.367760 -0.510511
O18   O     O_R   0.534080 0.500000 0.632240 -0.570953
O19   O     O_R   0.465920 0.500000 0.367760 -0.610796
O20   O     O_3   0.689472 0.577778 0.646190 -0.595070
Zn1   Zn    Zn3+2 0.393860 0.499990 0.500000 1.043223
Zn2   Zn    Zn3+2 0.606140 0.500010 0.500000 1.038789

loop_
_geom_bond_atom_site_label_1
_geom_bond_atom_site_label_2
_ccdc_geom_bond_type
C51   H37   S    
C25   C31   A    
C23   C45   A    
C27   C29   A    
C2    C4    A    
C49   H30   S    
C41   H7    S    
C19   O4    S    
C47   O7    S    
C45   F1    S    
C40   H3    S    
C5    O11   S    
O12   Zn2   S    
C17   C26   S    
C47   H25   S    
C44   H17   S    
C35   C37   A    
C2    C55   A    
C46   H19   S    
C11   C14   A    
C50   H35   S    
C23   H42   S    
O18   Zn2   S    
C40   O20   S    
C42   H10   S    
C33   C36   A    
C14   O20   S    
C2    H45   S    
C3    C56   A    
C47   H22   S    
C44   H16   S    
C1    O14   A    
C28   O8    S    
C1    O1    A    
C12   O12   A    
O17   Zn2   S    
C49   O9    S    
C51   O11   S    
C48   H28   S    
C4    C12   S    
C9    C10   S    
C18   C20   A    
C51   H36   S    
C48   O8    S    
C37   C53   A    
C19   N2    A    
C43   H14   S    
C50   O10   S    
O15   Zn1   S    
C25   C29   A    
C15   O2    S    
C49   H31   S    
N1    Zn2   S    
C41   H8    S    
C43   H15   S    
C38   C39   A    
C54   C56   A    
C52   H41   S    
C7    H46   S    
C46   O6    S    
C32   C35   A    
C18   O3    S    
C56   H44   S    
C4    C6    A    
C5    C7    A    
C26   C32   A    
C17   O19   A    
C6    C8    A    
C3    C5    A    
C52   H40   S    
C42   H9    S    
C13   C24   A    
C1    C3    S    
C15   N2    A    
C35   C39   A    
C42   O3    S    
O19   Zn1   S    
C46   H21   S    
C52   O13   S    
C29   F4    S    
C30   F3    S    
C31   C33   A    
C48   H27   S    
C36   C45   A    
C47   H24   S    
C18   N1    A    
C10   C55   A    
N2    Zn1   S    
C50   H32   S    
C14   N1    A    
C20   C22   A    
C44   O5    S    
C26   C30   A    
C40   H5    S    
C13   C15   A    
O1    Zn1   S    
C22   C24   S    
C21   C24   A    
C43   O4    S    
C16   C25   S    
C7    C9    A    
C32   H23   S    
C11   C22   A    
C19   C21   A    
C34   C38   A    
C34   H43   S    
C49   H29   S    
C21   O6    S    
C11   H1    S    
C53   F2    S    
C50   H33   S    
C41   H6    S    
C13   H12   S    
C27   C36   A    
C31   H34   S    
C52   H39   S    
C33   C38   A    
C40   H4    S    
C43   H13   S    
C41   O2    S    
C44   H18   S    
C16   O16   A    
C46   H20   S    
C17   O17   A    
C20   O5    S    
C12   O15   A    
C28   C37   A    
C51   H38   S    
C23   C39   A    
C28   C30   A    
C42   H11   S    
O16   Zn1   S    
C48   H26   S    
C34   C53   A    
C8    C10   A    
C54   O9    S    
C9    C54   A    
C6    O13   S    
C16   O18   A    
O14   Zn2   S    
C8    H2    S    
C55   O10   S    
C27   O7    S    
