data_mof_unit_48886.cif
_audit_creation_date              2012-10-26T19:15:06-0400
_audit_creation_method            fapswitch 2.2
_symmetry_space_group_name_H-M    P1
_symmetry_Int_Tables_number       1
_space_group_crystal_system       triclinic
_cell_length_a                    10.784377
_cell_length_b                    10.817243
_cell_length_c                    9.561843
_cell_angle_alpha                 90.19855
_cell_angle_beta                  89.322005
_cell_angle_gamma                 90.623704
_cell_volume                      1115.30769586

loop_
_atom_site_label
_atom_site_type_symbol
_atom_type_description
_atom_site_fract_x
_atom_site_fract_y
_atom_site_fract_z
_atom_type_partial_charge
C1    C     C_R   0.496907 0.262401 0.499831 0.544602
C2    C     C_R   0.489772 0.937212 0.625879 0.009101
C3    C     C_3   0.583409 0.933283 0.739511 -0.251560
C4    C     C_R   0.262654 0.499110 0.500881 0.540453
C5    C     C_3   0.582379 0.073496 0.739474 -0.249579
C6    C     C_R   0.547459 0.598766 0.072768 0.212977
C7    C     C_R   0.440715 0.409571 0.074870 -0.016950
C8    C     C_R   0.440115 0.409946 0.926101 -0.013784
C9    C     C_R   0.550694 0.596450 0.925612 0.138786
C10   C     C_3   0.682350 0.638667 0.919287 -0.231110
C11   C     C_3   0.676442 0.649747 0.077457 0.066688
C12   C     C_R   0.933733 0.433369 0.592972 0.011896
C13   C     C_R   0.497231 0.737685 0.500185 0.548194
C14   C     C_R   0.737566 0.503286 0.499816 0.542284
C15   C     C_R   0.061155 0.431464 0.595046 0.017370
C16   C     C_R   0.129882 0.506258 0.504350 0.006775
C17   C     C_R   0.069956 0.598334 0.428864 -0.132604
C18   C     C_R   0.940111 0.604695 0.431125 -0.055007
C19   C     C_R   0.871294 0.511762 0.502895 0.026803
C20   C     C_3   0.881425 0.713040 0.361340 -0.369096
C21   C     C_3   0.922557 0.296744 0.611366 -0.274557
C22   C     C_3   0.063456 0.294431 0.613326 -0.275039
C23   C     C_R   0.489286 0.064396 0.625532 0.007292
C24   C     C_R   0.483198 0.129294 0.500135 0.004026
C25   C     C_R   0.458446 0.063727 0.376176 -0.146702
C26   C     C_R   0.458060 0.934683 0.376688 -0.121461
C27   C     C_R   0.483620 0.870753 0.500780 0.013188
Cl1   Cl    Cl    0.675789 0.807980 0.131895 -0.702145
Cu1   Cu    Cu3+1 0.499990 0.499980 0.640670 0.937935
Cu2   Cu    Cu3+1 0.500010 0.500020 0.359330 0.956444
H1    H     H_    0.124055 0.665333 0.369219 0.126438
H2    H     H_    0.879015 0.271762 0.713515 0.140185
H3    H     H_    0.882103 0.249452 0.518766 0.138721
H4    H     H_    0.101146 0.267780 0.716509 0.139350
H5    H     H_    0.105201 0.245815 0.521822 0.133987
H6    H     H_    0.445112 0.111448 0.278191 0.134951
H7    H     H_    0.443541 0.885749 0.279186 0.181238
H8    H     H_    0.544220 0.892804 0.837380 0.175815
H9    H     H_    0.902856 0.710257 0.247635 0.173004
H10   H     H_    0.779832 0.715454 0.378753 0.195649
H11   H     H_    0.920419 0.800127 0.405243 0.135733
H12   H     H_    0.673330 0.894477 0.703239 0.136263
H13   H     H_    0.542337 0.113622 0.836990 0.144430
H14   H     H_    0.671703 0.115880 0.703926 0.138608
H15   H     H_    0.394638 0.335080 0.130722 0.116722
H16   H     H_    0.393273 0.335897 0.870927 0.117629
H17   H     H_    0.745762 0.564566 0.882726 0.123325
H18   H     H_    0.694890 0.727631 0.863761 0.159686
H19   H     H_    0.742587 0.589222 0.132142 0.140422
N1    N     N_R   0.500790 0.500930 0.147930 -0.250146
N2    N     N_R   0.500790 0.500890 0.852020 -0.240378
O1    O     O_R   0.500000 0.319640 0.618810 -0.508423
O2    O     O_R   0.500010 0.319680 0.381230 -0.511397
O3    O     O_R   0.319650 0.499970 0.618810 -0.494329
O4    O     O_R   0.319660 0.500010 0.381230 -0.506755
O5    O     O_R   0.499990 0.680320 0.618770 -0.503309
O6    O     O_R   0.500000 0.680360 0.381190 -0.475829
O7    O     O_R   0.680340 0.499990 0.618770 -0.504594
O8    O     O_R   0.680350 0.500030 0.381190 -0.502212

loop_
_geom_bond_atom_site_label_1
_geom_bond_atom_site_label_2
_ccdc_geom_bond_type
C4    C16   S    
C23   C24   A    
C3    H12   S    
Cu1   Cu2   S    
C11   H19   S    
Cu1   O5    S    
C14   O7    A    
C9    C10   S    
C5    C23   S    
C12   C15   A    
C13   O5    A    
C10   C11   S    
Cu2   O8    S    
C6    C9    A    
C2    C3    S    
Cu2   N1    S    
C7    C8    A    
C26   H7    S    
C21   C22   S    
C24   C25   A    
C10   H18   S    
C22   H5    S    
C8    N2    A    
C26   C27   A    
C2    C27   A    
C11   Cl1   S    
C20   H10   S    
C7    H15   S    
C12   C19   A    
C21   H2    S    
C5    H14   S    
Cu1   N2    S    
C20   H11   S    
C18   C20   S    
C1    O1    A    
C6    C11   S    
C4    O4    A    
C5    H13   S    
C22   H4    S    
Cu2   O2    S    
C8    H16   S    
C21   H3    S    
Cu1   O3    S    
C25   H6    S    
C15   C16   A    
C12   C21   S    
Cu2   O6    S    
C10   H17   S    
C13   O6    A    
Cu1   O7    S    
C7    N1    A    
C1    C24   S    
C17   C18   A    
C18   C19   A    
Cu2   O4    S    
C2    C23   A    
C20   H9    S    
C1    O2    A    
C13   C27   S    
C14   O8    A    
C25   C26   A    
C4    O3    A    
C14   C19   S    
C15   C22   S    
C6    N1    A    
C17   H1    S    
C3    H8    S    
C16   C17   A    
C3    C5    S    
Cu1   O1    S    
C9    N2    A    
