data_mof_unit_8686.cif
_audit_creation_date              2012-12-11T16:28:27-0500
_audit_creation_method            fapswitch 2.2
_symmetry_space_group_name_H-M    P1
_symmetry_Int_Tables_number       1
_space_group_crystal_system       triclinic
_cell_length_a                    16.554014
_cell_length_b                    7.251354
_cell_length_c                    15.211909
_cell_angle_alpha                 90.035242
_cell_angle_beta                  94.779211
_cell_angle_gamma                 89.952201
_cell_volume                      1819.67287892

loop_
_atom_site_label
_atom_site_type_symbol
_atom_type_description
_atom_site_fract_x
_atom_site_fract_y
_atom_site_fract_z
_atom_type_partial_charge
O1    O     O_R   0.663460 0.361760 0.165970 -0.535392
O2    O     O_R   0.336540 0.638240 0.834030 -0.534284
O3    O     O_R   0.836540 0.861760 0.334030 -0.533657
O4    O     O_R   0.163460 0.138240 0.665970 -0.532026
O5    O     O_R   0.827100 0.689870 0.163730 -0.526437
O6    O     O_R   0.172900 0.310130 0.836270 -0.531988
O7    O     O_R   0.672900 0.189870 0.336270 -0.526037
O8    O     O_R   0.327100 0.810130 0.663730 -0.525683
H1    H     H_    0.211588 0.058566 0.499228 0.130340
H2    H     H_    0.788385 0.941721 0.500695 0.128412
H3    H     H_    0.287252 0.496974 0.004475 0.120180
H4    H     H_    0.712773 0.502601 0.995578 0.125995
C1    C     C_R   0.853279 0.522863 0.143567 0.698689
C2    C     C_R   0.146743 0.477136 0.856457 0.694897
C3    C     C_R   0.646728 0.023008 0.356451 0.697000
C4    C     C_R   0.353256 0.976991 0.643530 0.700199
O9    O     O_R   0.663490 0.691370 0.155500 -0.534306
O10   O     O_R   0.336510 0.308630 0.844500 -0.537266
O11   O     O_R   0.836510 0.191370 0.344500 -0.534547
O12   O     O_R   0.163490 0.808630 0.655500 -0.533928
O13   O     O_R   0.671770 0.863320 0.325740 -0.530261
O14   O     O_R   0.328230 0.136680 0.674260 -0.528224
O15   O     O_R   0.828230 0.363320 0.174260 -0.532204
O16   O     O_R   0.171770 0.636680 0.825740 -0.530307
C5    C     C_R   0.636086 0.522834 0.133899 0.668252
C6    C     C_R   0.363928 0.477171 0.866095 0.668401
C7    C     C_R   0.863816 0.022892 0.366233 0.670311
C8    C     C_R   0.136177 0.977110 0.633762 0.671477
O17   O     O_3   0.752910 0.528800 0.305860 -0.370968
O18   O     O_3   0.247090 0.471200 0.694140 -0.367393
O19   O     O_3   0.747090 0.028800 0.194140 -0.373391
O20   O     O_3   0.252910 0.971200 0.805860 -0.376856
V1    V     V_3+5 0.749460 0.803010 0.239640 1.513160
V2    V     V_3+5 0.250540 0.196990 0.760360 1.497961
V3    V     V_3+5 0.750540 0.303010 0.260360 1.512309
V4    V     V_3+5 0.249460 0.696990 0.739640 1.515004
C9    C     C_1   0.468742 0.994580 0.530005 0.186480
C10   C     C_1   0.531181 0.005379 0.469903 0.188403
C11   C     C_1   0.031277 0.494800 0.970008 0.185894
C12   C     C_1   0.968813 0.505158 0.030096 0.194302
H5    H     H_    0.766523 0.861970 0.651302 0.199149
H6    H     H_    0.233344 0.138917 0.348604 0.211242
H7    H     H_    0.736054 0.478096 0.841229 0.206501
H8    H     H_    0.264053 0.521256 0.158963 0.217611
C13   C     C_R   0.028314 0.094639 0.324550 -0.230416
C14   C     C_R   0.971597 0.905612 0.675457 -0.205429
C15   C     C_R   0.469970 0.526626 0.180216 -0.220223
C16   C     C_R   0.530089 0.473611 0.819786 -0.217638
C17   C     C_R   0.107106 0.126500 0.301544 0.523828
C18   C     C_R   0.892768 0.873954 0.698419 0.454379
C19   C     C_R   0.390521 0.529236 0.205001 0.467584
C20   C     C_R   0.609551 0.470767 0.794996 0.473241
C21   C     C_R   0.172119 0.113596 0.365600 -0.141316
C22   C     C_R   0.827784 0.886962 0.634336 -0.179799
C23   C     C_R   0.325749 0.519211 0.140560 -0.171532
C24   C     C_R   0.674324 0.480544 0.859480 -0.146268
C25   C     C_R   0.158984 0.067963 0.452212 -0.195307
C26   C     C_R   0.840976 0.932302 0.547729 -0.165829
C27   C     C_R   0.339695 0.505361 0.051765 -0.217202
C28   C     C_R   0.660341 0.494466 0.948260 -0.176627
C29   C     C_R   0.079897 0.034593 0.477153 0.069632
C30   C     C_R   0.920082 0.965491 0.522824 0.062954
C31   C     C_R   0.419412 0.502100 0.024959 0.075588
C32   C     C_R   0.580618 0.497920 0.975042 0.060015
C33   C     C_R   0.013201 0.048027 0.411997 -0.005855
C34   C     C_R   0.986766 0.952063 0.587997 -0.006822
C35   C     C_R   0.485923 0.514042 0.090432 -0.005068
C36   C     C_R   0.514114 0.486096 0.909563 -0.009552
C37   C     C_R   0.066747 0.986776 0.565198 -0.111858
C38   C     C_R   0.933240 0.013240 0.434791 -0.112349
C39   C     C_R   0.433426 0.487412 0.934551 -0.114172
C40   C     C_R   0.566601 0.512633 0.065442 -0.115096
C41   C     C_1   0.415914 0.985956 0.581347 -0.100279
C42   C     C_1   0.584033 0.014027 0.418589 -0.098593
C43   C     C_1   0.084102 0.486340 0.918654 -0.115224
C44   C     C_1   0.915962 0.513640 0.081420 -0.098774
H9    H     H_    0.979190 0.106643 0.273304 0.151438
H10   H     H_    0.020688 0.893659 0.726747 0.149510
H11   H     H_    0.518937 0.534080 0.231881 0.148204
H12   H     H_    0.481119 0.466229 0.768120 0.149280
S1    S     S_3+6 0.124079 0.186407 0.192488 -0.019257
O21   O     O_2   0.063453 0.090547 0.129059 -0.335461
O22   O     O_2   0.114321 0.391446 0.182144 -0.350202
O23   O     O_3   0.218502 0.125435 0.171013 -0.508603
H13   H     H_    0.222581 0.160187 0.108568 0.357794
S2    S     S_3+6 0.875683 0.814451 0.807533 -0.023432
O24   O     O_2   0.886519 0.609813 0.818300 -0.349240
O25   O     O_2   0.935563 0.911180 0.871469 -0.327475
O26   O     O_3   0.780835 0.871489 0.829144 -0.494430
H14   H     H_    0.778266 0.007406 0.822914 0.351515
S3    S     S_3+6 0.372327 0.541033 0.317319 0.024508
O27   O     O_2   0.380910 0.351063 0.356364 -0.310682
O28   O     O_2   0.433225 0.666129 0.365727 -0.343375
O29   O     O_3   0.278104 0.619271 0.328935 -0.474543
H15   H     H_    0.277982 0.748133 0.307311 0.345811
S4    S     S_3+6 0.627578 0.458254 0.682637 0.016640
O30   O     O_2   0.567474 0.329557 0.635500 -0.318124
O31   O     O_2   0.617057 0.646802 0.642246 -0.336798
O32   O     O_3   0.722020 0.381258 0.670872 -0.493525
H16   H     H_    0.757147 0.491717 0.677731 0.357443

loop_
_geom_bond_atom_site_label_1
_geom_bond_atom_site_label_2
_ccdc_geom_bond_type
C26   C30   A    
C23   C27   A    
C8    C37   S    
O10   C6    A    
C15   H11   S    
S1    O21   D    
C30   C38   A    
O16   V4    S    
C32   C36   A    
H2    C26   S    
C14   C34   A    
H6    C21   S    
C22   C26   A    
S2    O25   D    
C34   C37   A    
O6    C2    A    
O3    V1    S    
C2    O16   A    
C33   C38   A    
S4    O32   S    
O2    V4    S    
C1    O15   A    
C35   C40   A    
O8    V4    S    
C17   S1    S    
C19   S3    S    
C12   C44   T    
S4    O31   D    
O19   V1    S    
C11   C43   T    
O11   C7    A    
O5    C1    A    
O7    C3    A    
O8    C4    A    
O1    C5    A    
C6    C39   S    
O9    V1    S    
H3    C27   S    
C15   C35   A    
S1    O22   D    
C14   C18   A    
O4    V2    S    
O14   V2    S    
C31   C35   A    
C30   C34   A    
C4    C41   S    
O23   H13   S    
H1    C25   S    
C11   C12   S    
C14   H10   S    
C21   C25   A    
S2    O24   D    
C15   C19   A    
O12   C8    A    
O6    V2    S    
O5    V1    S    
O20   V2    S    
C9    C10   S    
S3    O28   D    
O32   H16   S    
C1    C44   S    
C13   C17   A    
S4    O30   D    
O2    C6    A    
C5    C40   S    
C18   C22   A    
C16   C36   A    
O10   V2    S    
C7    C38   S    
H4    C28   S    
C31   C39   A    
O15   V3    S    
C13   C33   A    
S3    O27   D    
S1    O23   S    
O1    V3    S    
C10   C42   T    
C29   C37   A    
C9    C41   T    
C4    O14   A    
O7    V3    S    
S2    O26   S    
C25   C29   A    
O17   V3    S    
C27   C31   A    
O18   V4    S    
C28   C32   A    
O9    C5    A    
C2    C43   S    
C16   H12   S    
O3    C7    A    
O11   V3    S    
C24   C28   A    
S3    O29   S    
H8    C23   S    
C3    O13   A    
C36   C39   A    
C17   C21   A    
C20   S4    S    
C19   C23   A    
C32   C40   A    
O29   H15   S    
H5    C22   S    
C18   S2    S    
O12   V4    S    
C29   C33   A    
H7    C24   S    
C16   C20   A    
C3    C42   S    
O13   V1    S    
O4    C8    A    
C13   H9    S    
O26   H14   S    
C20   C24   A    
