data_mof_unit_20191.cif
_audit_creation_date              2012-12-10T20:44:42-0500
_audit_creation_method            fapswitch 2.2
_symmetry_space_group_name_H-M    P1
_symmetry_Int_Tables_number       1
_space_group_crystal_system       triclinic
_cell_length_a                    9.881481
_cell_length_b                    10.598781
_cell_length_c                    16.716769
_cell_angle_alpha                 89.535071
_cell_angle_beta                  95.456211
_cell_angle_gamma                 88.888122
_cell_volume                      1742.42696468

loop_
_atom_site_label
_atom_site_type_symbol
_atom_type_description
_atom_site_fract_x
_atom_site_fract_y
_atom_site_fract_z
_atom_type_partial_charge
C1    C     C_R   0.500823 0.260535 0.498690 0.924299
C2    C     C_R   0.644348 0.476372 0.790655 -0.172617
C3    C     C_R   0.551050 0.624811 0.146688 -0.153175
C4    C     C_R   0.560939 0.598135 0.227935 -0.242240
C5    C     C_R   0.446882 0.571856 0.095577 0.299303
C6    C     C_R   0.466964 0.519149 0.259788 -0.115900
C7    C     C_R   0.357889 0.469237 0.209331 -0.064819
C8    C     C_R   0.348305 0.499048 0.127287 -0.226009
C9    C     C_R   0.513911 0.064835 0.427598 0.148354
C10   C     C_R   0.500684 0.128762 0.498806 -0.130742
C11   C     C_R   0.461259 0.066117 0.566408 -0.198248
C12   C     C_R   0.518379 0.502887 0.653873 0.872980
C13   C     C_R   0.458247 0.935831 0.566444 -0.204265
C14   C     C_R   0.493405 0.871510 0.498586 -0.067277
C15   C     C_R   0.510867 0.935759 0.427741 0.058757
C16   C     C_3   0.619976 0.923015 0.372216 -0.512645
C17   C     C_3   0.624602 0.066671 0.372269 -0.059297
C18   C     C_R   0.083174 0.445049 0.561805 0.169184
C19   C     C_R   0.061384 0.565612 0.443526 -0.102292
C20   C     C_R   0.917542 0.566400 0.443868 -0.124190
C21   C     C_R   0.940877 0.440552 0.560361 0.231980
C22   C     C_3   0.951949 0.302124 0.584132 -0.051396
C23   C     C_R   0.498614 0.739579 0.499783 0.872780
C24   C     C_3   0.105851 0.312764 0.589678 -0.508101
C25   C     C_R   0.481006 0.501374 0.346395 0.908775
C26   C     C_R   0.530813 0.525937 0.740882 -0.193508
C27   C     C_R   0.435126 0.607508 0.773793 0.158653
C28   C     C_R   0.453119 0.636085 0.854795 -0.197760
C29   C     C_R   0.560954 0.583011 0.904753 0.262358
C30   C     C_R   0.660740 0.507350 0.872945 0.120077
H1    H     H_    0.642339 0.640216 0.266177 0.158254
H2    H     H_    0.436356 0.886029 0.620219 0.142290
H3    H     H_    0.714268 0.877044 0.401500 0.194839
H4    H     H_    0.581363 0.881418 0.313771 0.207356
H5    H     H_    0.721898 0.103156 0.400512 0.177472
H6    H     H_    0.107004 0.616435 0.396908 0.149748
H7    H     H_    0.854913 0.618390 0.397749 0.145322
H8    H     H_    0.915866 0.281833 0.643485 0.248177
H9    H     H_    0.154537 0.307562 0.652396 0.192359
H10   H     H_    0.626647 0.684173 0.123517 0.154938
H11   H     H_    0.157307 0.254042 0.546375 0.235535
H12   H     H_    0.379235 0.696388 0.880714 0.163674
H13   H     H_    0.269218 0.458308 0.086642 0.174996
H14   H     H_    0.439070 0.117356 0.619647 0.147381
N1    N     N_2   0.561322 0.592551 0.988676 -0.188766
N2    N     N_2   0.446121 0.577987 0.011424 -0.188678
N3    N     N_R   0.142860 0.499130 0.500540 -0.103522
N4    N     N_R   0.857210 0.499170 0.500530 -0.112586
O1    O     O_R   0.614690 0.316790 0.499990 -0.613943
O2    O     O_R   0.385350 0.316760 0.500000 -0.607095
O3    O     O_R   0.627460 0.498860 0.616130 -0.595264
O4    O     O_R   0.398120 0.498820 0.616130 -0.612461
O5    O     O_R   0.614650 0.683240 0.500000 -0.618423
O6    O     O_R   0.385310 0.683210 0.500010 -0.624723
O7    O     O_R   0.601880 0.501180 0.383870 -0.627358
O8    O     O_R   0.372540 0.501140 0.383870 -0.590039
Zn1   Zn    Zn3+2 0.653130 0.500020 0.499990 0.965465
Zn2   Zn    Zn3+2 0.346870 0.499980 0.500010 0.960116
C31   C     C_3   0.578950 0.128508 0.290974 -0.789226
H15   H     H_    0.478863 0.092950 0.265729 0.262251
H16   H     H_    0.570790 0.232302 0.298249 0.253841
H17   H     H_    0.655553 0.108027 0.248134 0.239125
C32   C     C_3   0.899783 0.208288 0.519588 -0.812254
H18   H     H_    0.968711 0.124160 0.520177 0.229944
H19   H     H_    0.800422 0.172463 0.533805 0.261458
H20   H     H_    0.891443 0.251602 0.458532 0.246516
C33   C     C_3   0.778916 0.452074 0.927561 -0.803764
H21   H     H_    0.876183 0.486560 0.908348 0.263944
H22   H     H_    0.776487 0.478606 0.991422 0.245261
H23   H     H_    0.778278 0.347440 0.924799 0.238541
C34   C     C_2   0.741146 0.385081 0.758357 0.961023
O9    O     O_2   0.862529 0.406757 0.764701 -0.622013
O10   O     O_R   0.695524 0.274168 0.720885 -0.798083
H24   H     H_    0.594150 0.262532 0.721826 0.283610
C35   C     C_2   0.257898 0.380756 0.238513 0.913232
O11   O     O_2   0.141543 0.380223 0.206162 -0.632744
O12   O     O_R   0.297103 0.295064 0.300869 -0.817123
H25   H     H_    0.219901 0.239789 0.314749 0.343502
C36   C     C_3   0.311616 0.664667 0.725313 -0.819536
H26   H     H_    0.237855 0.589784 0.707809 0.258358
H27   H     H_    0.258097 0.735981 0.759868 0.221346
H28   H     H_    0.341595 0.712832 0.670948 0.234713

loop_
_geom_bond_atom_site_label_1
_geom_bond_atom_site_label_2
_ccdc_geom_bond_type
C32   H19   S    
C18   C21   A    
O10   H24   S    
C13   H2    S    
C19   C20   A    
C8    H13   S    
C18   N3    A    
N4    Zn1   S    
O12   H25   S    
C26   C27   A    
C18   C24   S    
C28   C29   A    
C27   C36   S    
C19   H6    S    
O6    Zn2   S    
C19   N3    A    
C6    C25   S    
C15   C16   S    
C22   H8    S    
C24   H9    S    
O1    Zn1   S    
C16   H4    S    
C22   C32   S    
C16   C17   S    
C25   O8    A    
O3    Zn1   S    
C1    O2    A    
C30   C33   S    
C21   N4    A    
C32   H20   S    
C31   H15   S    
C21   C22   S    
C24   H11   S    
C12   O4    A    
C23   O5    A    
C31   H16   S    
C33   H21   S    
O2    Zn2   S    
C7    C8    A    
C4    C6    A    
C36   H27   S    
O5    Zn1   S    
C7    C35   S    
N1    N2    D    
C36   H26   S    
C29   N1    S    
C33   H22   S    
C14   C23   S    
C35   O11   D    
C29   C30   A    
C16   H3    S    
C5    C8    A    
C11   H14   S    
C2    C26   A    
C35   O12   S    
C20   N4    A    
O4    Zn2   S    
C17   C31   S    
C9    C17   S    
C3    H10   S    
O7    Zn1   S    
C22   C24   S    
C2    C34   S    
C12   O3    A    
C23   O6    A    
C34   O10   S    
C9    C10   A    
C31   H17   S    
C1    C10   S    
C25   O7    A    
C3    C5    A    
C36   H28   S    
C6    C7    A    
C5    N2    S    
C2    C30   A    
C33   H23   S    
C9    C15   A    
C34   O9    D    
N3    Zn2   S    
C20   H7    S    
C11   C13   A    
C28   H12   S    
O8    Zn2   S    
C4    H1    S    
C10   C11   A    
C32   H18   S    
C12   C26   S    
C27   C28   A    
C14   C15   A    
C17   H5    S    
C13   C14   A    
C1    O1    A    
C3    C4    A    
