data_mof_unit_65321.cif
_audit_creation_date              2012-10-26T20:52:02-0400
_audit_creation_method            fapswitch 2.2
_symmetry_space_group_name_H-M    P1
_symmetry_Int_Tables_number       1
_space_group_crystal_system       triclinic
_cell_length_a                    8.735431
_cell_length_b                    16.001432
_cell_length_c                    14.799176
_cell_angle_alpha                 90.003346
_cell_angle_beta                  98.034052
_cell_angle_gamma                 90.010467
_cell_volume                      2048.31684431

loop_
_atom_site_label
_atom_site_type_symbol
_atom_type_description
_atom_site_fract_x
_atom_site_fract_y
_atom_site_fract_z
_atom_type_partial_charge
Br1   Br    Br    0.164891 0.098141 0.501214 -0.446875
Br2   Br    Br    0.835109 0.901859 0.498786 -0.446875
C1    C     C_R   0.499925 0.340916 0.499976 0.554799
C2    C     C_R   0.796804 0.499995 0.523213 0.551760
C3    C     C_2   0.037653 0.500042 0.463778 -0.131511
C4    C     C_2   0.962347 0.499958 0.536222 -0.131511
C5    C     C_R   0.362447 0.955379 0.500538 -0.091362
C6    C     C_R   0.637553 0.044621 0.499462 -0.091362
C7    C     C_R   0.502184 0.912694 0.500036 0.009596
C8    C     C_R   0.497816 0.087306 0.499964 0.009596
C9    C     C_R   0.640519 0.957388 0.499494 0.188729
C10   C     C_R   0.359481 0.042612 0.500506 0.188729
C11   C     C_1   0.501498 0.823169 0.500063 0.018842
C12   C     C_R   0.500075 0.659084 0.500024 0.554800
C13   C     C_1   0.498502 0.176830 0.499937 0.018842
C14   C     C_1   0.499261 0.251846 0.499937 0.032364
C15   C     C_1   0.500739 0.748153 0.500063 0.032364
C16   C     C_R   0.632883 0.524987 0.962930 -0.023587
C17   C     C_R   0.367117 0.475013 0.037069 -0.023587
C18   C     C_1   0.769727 0.551078 0.119376 0.233459
C19   C     C_1   0.230273 0.448922 0.880624 0.233459
C20   C     C_1   0.770326 0.550924 0.925703 0.234738
C21   C     C_1   0.229674 0.449076 0.074297 0.234738
C22   C     C_R   0.500185 0.500005 0.902829 -0.043877
C23   C     C_R   0.499815 0.499995 0.097171 -0.043877
C24   C     C_R   0.367339 0.474991 0.940823 -0.023901
C25   C     C_R   0.632660 0.525009 0.059177 -0.023901
C26   C     C_1   0.500158 0.500033 0.802445 0.166512
C27   C     C_1   0.499841 0.499967 0.197555 0.166512
C28   C     C_R   0.203196 0.500004 0.476786 0.551760
Cu1   Cu    Cu3+1 0.500040 0.500000 0.589220 1.054955
Cu2   Cu    Cu3+1 0.499960 0.500000 0.410780 1.054955
H1    H     H_    0.977530 0.500153 0.394284 0.157402
H2    H     H_    0.022470 0.499847 0.605716 0.157402
H3    H     H_    0.255720 0.920898 0.500952 0.182370
H4    H     H_    0.744280 0.079102 0.499048 0.182370
N1    N     N_1   0.500050 0.499980 0.276720 -0.178945
N2    N     N_1   0.499950 0.500020 0.723280 -0.178945
N3    N     N_1   0.879000 0.571915 0.167511 -0.248482
N4    N     N_1   0.121000 0.428085 0.832489 -0.248482
N5    N     N_1   0.880029 0.571690 0.896018 -0.243215
N6    N     N_1   0.119970 0.428310 0.103982 -0.243215
O1    O     O_R   0.500070 0.380310 0.575330 -0.485701
O2    O     O_R   0.499930 0.619690 0.424670 -0.485701
O3    O     O_R   0.500000 0.380310 0.424640 -0.489113
O4    O     O_R   0.500000 0.619690 0.575360 -0.489113
O5    O     O_R   0.274870 0.500000 0.557960 -0.497443
O6    O     O_R   0.725130 0.500000 0.442040 -0.497443
O7    O     O_R   0.274790 0.500000 0.407270 -0.481512
O8    O     O_R   0.725210 0.500000 0.592730 -0.481512

loop_
_geom_bond_atom_site_label_1
_geom_bond_atom_site_label_2
_ccdc_geom_bond_type
C17   C21   S    
C19   C24   S    
C6    H4    S    
C18   C25   S    
C26   N2    T    
C23   C25   A    
Cu2   O6    S    
Cu2   O3    S    
C21   N6    T    
Cu1   Cu2   S    
Cu1   N2    S    
C11   C15   T    
Cu2   O2    S    
C12   O4    A    
Cu1   O5    S    
Cu2   N1    S    
C7    C9    A    
C12   C15   S    
C1    O1    A    
C3    C4    D    
C19   N4    T    
Cu1   O1    S    
C6    C9    A    
C16   C22   A    
Br2   C9    S    
C8    C10   A    
C6    C8    A    
C28   O7    A    
C22   C24   A    
C3    C28   S    
C8    C13   S    
C23   C27   S    
C5    C10   A    
C17   C23   A    
C18   N3    T    
Cu2   O7    S    
C20   N5    T    
C1    C14   S    
Cu1   O8    S    
C13   C14   T    
C4    H2    S    
C28   O5    A    
C12   O2    A    
C2    C4    S    
C2    O6    A    
C27   N1    T    
C5    C7    A    
C17   C24   A    
C7    C11   S    
C16   C20   S    
C5    H3    S    
C1    O3    A    
Br1   C10   S    
C16   C25   A    
C22   C26   S    
C2    O8    A    
Cu1   O4    S    
C3    H1    S    
