data_mof_unit_54183.cif
_audit_creation_date              2012-12-10T19:11:25-0500
_audit_creation_method            fapswitch 2.2
_symmetry_space_group_name_H-M    P1
_symmetry_Int_Tables_number       1
_space_group_crystal_system       triclinic
_cell_length_a                    10.649981
_cell_length_b                    9.844743
_cell_length_c                    10.565931
_cell_angle_alpha                 88.2082
_cell_angle_beta                  91.591191
_cell_angle_gamma                 90.289764
_cell_volume                      1106.82069041

loop_
_atom_site_label
_atom_site_type_symbol
_atom_type_description
_atom_site_fract_x
_atom_site_fract_y
_atom_site_fract_z
_atom_type_partial_charge
C1    C     C_R   0.258081 0.499777 0.502670 0.949580
C2    C     C_3   0.920463 0.462531 0.375504 -0.439426
C3    C     C_3   0.391332 0.081459 0.421509 0.228067
C4    C     C_3   0.382620 0.921432 0.437371 0.200751
C5    C     C_3   0.619291 0.081334 0.447436 0.265982
C6    C     C_3   0.613288 0.921742 0.436413 0.257389
C7    C     C_3   0.487712 0.075711 0.628889 0.082959
C8    C     C_3   0.500660 0.913673 0.629452 0.189077
C9    C     C_R   0.494423 0.502229 0.256805 1.000650
C10   C     C_R   0.741813 0.500517 0.505526 0.892760
C11   C     C_R   0.504229 0.497896 0.741742 0.914006
C12   C     C_3   0.491249 0.506808 0.120144 -0.209591
C13   C     C_3   0.489896 0.630141 0.027148 0.496915
C14   C     C_3   0.397401 0.431586 0.034506 0.442379
C15   C     C_3   0.394774 0.555189 0.942377 -0.263562
C16   C     C_3   0.504457 0.493982 0.875576 -0.168670
C17   C     C_3   0.600103 0.569349 0.957579 -0.189556
C18   C     C_3   0.506474 0.368820 0.964660 -0.095331
C19   C     C_3   0.601785 0.444725 0.050805 -0.254830
C20   C     C_3   0.072404 0.646252 0.535382 0.285749
C21   C     C_3   0.073979 0.395565 0.609256 0.235770
C22   C     C_3   0.928607 0.646665 0.535919 -0.469289
C23   C     C_3   0.929589 0.400470 0.611350 -0.368121
C24   C     C_3   0.064866 0.458071 0.372780 0.556216
C25   C     C_3   0.120956 0.499926 0.505783 -0.161776
C26   C     C_3   0.877941 0.502369 0.507596 -0.078460
Cl1   Cl    Cl    0.391080 0.133164 0.257577 -0.279468
Cl2   Cl    Cl    0.327556 0.836720 0.299397 -0.339069
Cl3   Cl    Cl    0.676333 0.168421 0.308285 -0.455933
Cl4   Cl    Cl    0.634806 0.865138 0.280143 -0.381167
Cl5   Cl    Cl    0.470108 0.808265 0.037218 -0.337951
Cl6   Cl    Cl    0.254423 0.345196 0.064705 -0.356864
Cl7   Cl    Cl    0.117830 0.569993 0.247306 -0.489588
Cl8   Cl    Cl    0.109122 0.289163 0.332224 -0.486375
H1    H     H_    0.309526 0.599758 0.894720 0.224887
H2    H     H_    0.683795 0.624926 0.922349 0.204680
H3    H     H_    0.513441 0.261489 0.936654 0.251659
H4    H     H_    0.687395 0.400004 0.097407 0.231164
H5    H     H_    0.100724 0.718395 0.458138 0.209608
H6    H     H_    0.100770 0.290282 0.585146 0.150757
H7    H     H_    0.893146 0.680206 0.627972 0.204309
H8    H     H_    0.897917 0.430913 0.705918 0.215321
H9    H     H_    0.893611 0.721567 0.462078 0.209589
H10   H     H_    0.891632 0.296611 0.595396 0.173446
H11   H     H_    0.634095 0.190186 0.678340 0.359661
H12   H     H_    0.881919 0.536586 0.302787 0.213373
H13   H     H_    0.679234 0.923723 0.685079 0.345067
H14   H     H_    0.079721 0.660531 0.721638 0.397784
H15   H     H_    0.210060 0.381172 0.736162 0.347322
H16   H     H_    0.879022 0.362416 0.351419 0.251012
H17   H     H_    0.303029 0.124131 0.456869 0.126544
H18   H     H_    0.302695 0.899813 0.501046 0.075450
H19   H     H_    0.392089 0.098921 0.662368 0.145642
H20   H     H_    0.417692 0.870795 0.678966 0.185141
H21   H     H_    0.698427 0.101290 0.514705 0.055852
H22   H     H_    0.698509 0.879158 0.485337 0.095982
N1    N     N_3   0.499750 0.138610 0.497240 -0.222686
N2    N     N_3   0.499750 0.861390 0.497240 -0.203057
O1    O     O_R   0.314910 0.616040 0.499970 -0.571087
O2    O     O_3   0.605500 0.864841 0.701689 -0.663608
O3    O     O_3   0.126476 0.696888 0.648137 -0.732452
O4    O     O_3   0.125014 0.422099 0.730306 -0.720759
O5    O     O_R   0.314910 0.383960 0.499970 -0.633979
O6    O     O_R   0.500080 0.616020 0.313900 -0.528788
O7    O     O_R   0.500080 0.383980 0.313900 -0.520423
O8    O     O_R   0.685320 0.616040 0.499930 -0.612256
O9    O     O_R   0.685320 0.383960 0.499930 -0.628234
O10   O     O_R   0.500150 0.616060 0.686000 -0.571205
O11   O     O_R   0.500150 0.383940 0.686000 -0.629441
O12   O     O_3   0.571230 0.131090 0.719881 -0.690104
Zn1   Zn    Zn3+2 0.500150 0.654960 0.499940 1.066390
Zn2   Zn    Zn3+2 0.500150 0.345040 0.499940 1.014218

loop_
_geom_bond_atom_site_label_1
_geom_bond_atom_site_label_2
_ccdc_geom_bond_type
C9    O6    A    
C6    N2    S    
C7    O12   S    
C7    C8    S    
C10   O9    A    
C2    H12   S    
C23   H8    S    
C4    H18   S    
C18   H3    S    
O9    Zn2   S    
C1    O1    A    
C5    C6    S    
N2    Zn1   S    
C23   C26   S    
C22   H7    S    
C20   C25   S    
C15   C16   S    
C18   C19   S    
O6    Zn1   S    
C20   O3    S    
C14   C18   S    
C2    H16   S    
C8    N2    S    
H13   O2    S    
O8    Zn1   S    
C16   C17   S    
C17   H2    S    
C10   C26   S    
C1    C25   S    
C1    O5    A    
C15   H1    S    
C4    Cl2   S    
C5    H21   S    
C5    Cl3   S    
C10   O8    A    
C21   C23   S    
C24   C25   S    
C8    H20   S    
C20   H5    S    
C3    H17   S    
C24   Cl8   S    
C23   H10   S    
O11   Zn2   S    
C19   H4    S    
C11   C16   S    
C22   H9    S    
C2    C26   S    
O5    Zn2   S    
C21   O4    S    
C3    N1    S    
C6    Cl4   S    
C20   C22   S    
C13   C15   S    
C2    C24   S    
C7    H19   S    
C3    C4    S    
C11   O10   A    
C21   C25   S    
H15   O4    S    
H11   O12   S    
C13   Cl5   S    
C6    H22   S    
C11   O11   A    
C13   C17   S    
O7    Zn2   S    
C24   Cl7   S    
C5    N1    S    
C3    Cl1   S    
C12   C14   S    
C8    O2    S    
H14   O3    S    
C21   H6    S    
O10   Zn1   S    
C12   C19   S    
C17   C19   S    
N1    Zn2   S    
C9    C12   S    
C9    O7    A    
C14   Cl6   S    
C12   C13   S    
C16   C18   S    
C22   C26   S    
C4    N2    S    
C14   C15   S    
C7    N1    S    
O1    Zn1   S    
