data_mof_unit_36905.cif
_audit_creation_date              2012-10-26T20:43:31-0400
_audit_creation_method            fapswitch 2.2
_symmetry_space_group_name_H-M    P1
_symmetry_Int_Tables_number       1
_space_group_crystal_system       triclinic
_cell_length_a                    10.883665
_cell_length_b                    9.684677
_cell_length_c                    23.499565
_cell_angle_alpha                 89.478976
_cell_angle_beta                  89.671209
_cell_angle_gamma                 90.820607
_cell_volume                      2476.56737316

loop_
_atom_site_label
_atom_site_type_symbol
_atom_type_description
_atom_site_fract_x
_atom_site_fract_y
_atom_site_fract_z
_atom_type_partial_charge
C1    C     C_R   0.262629 0.498772 0.499584 0.568348
C2    C     C_R   0.583432 0.588330 0.697569 -0.165172
C3    C     C_R   0.453574 0.610940 0.240323 0.186947
C4    C     C_R   0.585648 0.599502 0.756828 0.186429
C5    C     C_R   0.524280 0.514904 0.209894 0.232730
C6    C     C_R   0.506905 0.513953 0.790152 0.235565
C7    C     C_R   0.061900 0.382649 0.522998 0.090856
C8    C     C_R   0.938962 0.622299 0.487056 0.089410
C9    C     C_R   0.933522 0.387581 0.527005 0.099131
C10   C     C_R   0.066114 0.614173 0.479680 0.090961
C11   C     C_R   0.871732 0.504757 0.506335 0.000118
C12   C     C_R   0.737305 0.501326 0.502346 0.558354
C13   C     C_R   0.128179 0.496612 0.499571 0.000761
C14   C     C_R   0.517524 0.073457 0.450774 0.218266
C15   C     C_R   0.459096 0.923344 0.546176 0.216749
C16   C     C_R   0.471428 0.070518 0.548330 0.219322
C17   C     C_R   0.534190 0.927868 0.452670 0.230889
C18   C     C_R   0.506402 0.500952 0.391543 0.537873
C19   C     C_R   0.497555 0.499970 0.608543 0.523631
C20   C     C_R   0.620046 0.493893 0.878932 0.435799
C21   C     C_R   0.411187 0.501861 0.121071 0.440361
C22   C     C_R   0.404737 0.536830 0.881648 0.375895
C23   C     C_R   0.598018 0.421744 0.240013 -0.090180
C24   C     C_R   0.630239 0.518571 0.118383 0.375510
C25   C     C_R   0.404226 0.528151 0.941099 0.004474
C26   C     C_R   0.629951 0.511808 0.058885 0.003377
C27   C     C_R   0.516289 0.514906 0.969931 -0.072520
C28   C     C_R   0.517124 0.512394 0.030028 -0.073139
C29   C     C_R   0.627207 0.504086 0.938731 0.048110
C30   C     C_R   0.405377 0.510343 0.061137 0.049032
C31   C     C_R   0.293848 0.531959 0.971954 -0.120467
C32   C     C_R   0.740273 0.506864 0.027907 -0.120578
C33   C     C_R   0.292609 0.518270 0.031251 0.124840
C34   C     C_R   0.420736 0.428043 0.763092 -0.084625
C35   C     C_R   0.740337 0.501368 0.968413 0.126679
C36   C     C_3   0.118977 0.382308 0.063708 -0.265915
C37   C     C_3   0.902645 0.632914 0.922530 -0.266667
C38   C     C_3   0.707537 0.350322 0.328827 -0.276362
C39   C     C_3   0.809912 0.453441 0.343171 -0.427022
C40   C     C_3   0.295285 0.362165 0.678558 -0.281217
C41   C     C_3   0.180594 0.442965 0.694055 -0.431506
C42   C     C_3   0.466442 0.829928 0.190793 -0.295520
C43   C     C_3   0.607850 0.819560 0.803245 -0.302294
C44   C     C_3   0.137538 0.152606 0.503509 -0.289798
C45   C     C_R   0.601956 0.422394 0.299585 -0.021993
C46   C     C_3   0.868179 0.837783 0.524495 -0.286554
C47   C     C_3   0.830899 0.298942 0.611600 -0.283745
C48   C     C_3   0.150320 0.702781 0.391064 -0.295288
C49   C     C_3   0.372215 0.135879 0.378567 -0.291514
C50   C     C_3   0.264542 0.845803 0.588003 -0.276050
C51   C     C_3   0.523288 0.113194 0.647370 -0.297924
C52   C     C_3   0.694178 0.882355 0.381848 -0.295132
C53   C     C_R   0.408828 0.429011 0.703857 -0.024981
C54   C     C_R   0.517468 0.505051 0.329410 -0.000867
C55   C     C_R   0.497090 0.502450 0.670789 -0.015746
C56   C     C_R   0.446311 0.600383 0.299514 -0.160330
Cu1   Cu    Cu3+1 0.500000 0.640660 0.500000 0.986461
Cu2   Cu    Cu3+1 0.500000 0.359340 0.500000 0.976695
H1    H     H_    0.206913 0.540872 0.950035 0.150954
H2    H     H_    0.181009 0.307099 0.084428 0.182804
H3    H     H_    0.920475 0.440236 0.959759 0.235878
H4    H     H_    0.924436 0.694875 0.960860 0.114779
H5    H     H_    0.834746 0.688621 0.896043 0.186299
H6    H     H_    0.988016 0.620892 0.897060 0.165888
H7    H     H_    0.844010 0.506511 0.303933 0.171883
H8    H     H_    0.776005 0.531520 0.373526 0.156093
H9    H     H_    0.887494 0.398380 0.363286 0.132277
H10   H     H_    0.678404 0.297587 0.368500 0.190850
H11   H     H_    0.746157 0.269518 0.300873 0.126297
H12   H     H_    0.827681 0.507007 0.049772 0.151162
H13   H     H_    0.164853 0.441470 0.740789 0.186165
H14   H     H_    0.190138 0.551658 0.678969 0.155683
H15   H     H_    0.099450 0.395500 0.673306 0.124773
H16   H     H_    0.299659 0.358504 0.631563 0.192052
H17   H     H_    0.285345 0.254411 0.694747 0.131750
H18   H     H_    0.313267 0.752499 0.233518 0.245444
H19   H     H_    0.409590 0.905318 0.167201 0.143694
H20   H     H_    0.537875 0.791322 0.161265 0.178368
H21   H     H_    0.511344 0.883443 0.226987 0.123708
H22   H     H_    0.744341 0.719978 0.758582 0.243173
H23   H     H_    0.656370 0.352067 0.216728 0.145321
H24   H     H_    0.676811 0.886537 0.824629 0.138742
H25   H     H_    0.534711 0.792342 0.834676 0.178541
H26   H     H_    0.567318 0.878139 0.767212 0.127083
H27   H     H_    0.100132 0.231720 0.584227 0.237802
H28   H     H_    0.074922 0.065556 0.515042 0.089857
H29   H     H_    0.232916 0.114558 0.504825 0.161633
H30   H     H_    0.117137 0.186417 0.459238 0.138744
H31   H     H_    0.910293 0.801142 0.439673 0.235285
H32   H     H_    0.960528 0.867268 0.540523 0.105599
H33   H     H_    0.816371 0.784241 0.559288 0.166208
H34   H     H_    0.358420 0.364564 0.788605 0.145621
H35   H     H_    0.817952 0.932658 0.512612 0.132586
H36   H     H_    0.900027 0.178861 0.546311 0.248825
H37   H     H_    0.913554 0.309950 0.638588 0.118785
H38   H     H_    0.776139 0.209215 0.627521 0.132458
H39   H     H_    0.774276 0.393011 0.615205 0.155703
H40   H     H_    0.106703 0.822392 0.461360 0.236367
H41   H     H_    0.060569 0.702237 0.368751 0.127085
H42   H     H_    0.197304 0.603461 0.383454 0.152914
H43   H     H_    0.208769 0.787845 0.373334 0.124978
H44   H     H_    0.556994 0.103647 0.364666 0.226246
H45   H     H_    0.386865 0.669531 0.322443 0.098367
H46   H     H_    0.315289 0.192785 0.409523 0.174516
H47   H     H_    0.335850 0.028663 0.374470 0.098176
H48   H     H_    0.365526 0.189057 0.336647 0.142313
H49   H     H_    0.431673 0.863135 0.631306 0.240557
H50   H     H_    0.224575 0.923081 0.617108 0.093230
H51   H     H_    0.231191 0.741584 0.601336 0.157501
H52   H     H_    0.231813 0.866430 0.544150 0.153477
H53   H     H_    0.349028 0.126405 0.610544 0.230342
H54   H     H_    0.561526 0.213103 0.662063 0.173010
H55   H     H_    0.601304 0.045934 0.635617 0.119441
H56   H     H_    0.647293 0.650095 0.672091 0.102281
H57   H     H_    0.472559 0.064588 0.683687 0.102758
H58   H     H_    0.504552 0.861438 0.370314 0.235116
H59   H     H_    0.693864 0.931610 0.338969 0.097979
H60   H     H_    0.739478 0.781188 0.377832 0.171482
H61   H     H_    0.747911 0.949700 0.410892 0.133743
H62   H     H_    0.117853 0.590806 0.044783 0.240405
H63   H     H_    0.094843 0.345102 0.020532 0.107226
H64   H     H_    0.033581 0.388531 0.089581 0.161014
N1    N     N_R   0.511006 0.516075 0.851531 -0.394894
N2    N     N_2   0.879013 0.749169 0.475426 -0.488869
N3    N     N_2   0.866150 0.276039 0.553051 -0.486799
N4    N     N_2   0.132197 0.723473 0.451367 -0.495268
N5    N     N_2   0.499199 0.135320 0.396584 -0.476491
N6    N     N_2   0.397338 0.850654 0.590947 -0.458798
N7    N     N_2   0.440658 0.136325 0.599919 -0.456409
N8    N     N_2   0.569533 0.859702 0.402075 -0.454217
N9    N     N_R   0.522003 0.511874 0.148455 -0.394996
N10   N     N_R   0.500000 0.852070 0.500000 -0.217005
N11   N     N_R   0.500000 0.147930 0.500000 -0.221273
N12   N     N_2   0.177270 0.517335 0.060092 -0.454378
N13   N     N_2   0.855160 0.498129 0.939166 -0.460359
N14   N     N_2   0.389029 0.717603 0.211632 -0.467557
N15   N     N_2   0.666911 0.696782 0.782550 -0.481008
N16   N     N_2   0.124492 0.264186 0.543754 -0.499134
O1    O     O_R   0.319640 0.618740 0.500000 -0.462224
O2    O     O_2   0.307422 0.483079 0.151984 -0.454312
O3    O     O_2   0.299550 0.565929 0.854119 -0.533454
O4    O     O_2   0.738051 0.533601 0.145913 -0.525274
O5    O     O_R   0.680360 0.381260 0.500000 -0.469221
O6    O     O_R   0.680360 0.618740 0.500000 -0.469067
O7    O     O_R   0.319640 0.381260 0.500000 -0.484399
O8    O     O_R   0.499960 0.618810 0.417880 -0.477708
O9    O     O_R   0.500040 0.381190 0.582120 -0.473112
O10   O     O_R   0.500040 0.618810 0.582120 -0.483563
O11   O     O_R   0.499960 0.381190 0.417880 -0.477459
O12   O     O_2   0.720052 0.458991 0.848415 -0.452514

loop_
_geom_bond_atom_site_label_1
_geom_bond_atom_site_label_2
_ccdc_geom_bond_type
C25   C31   A    
C7    C13   A    
C26   C32   A    
C51   H54   S    
C23   C45   A    
C27   C29   A    
C43   H25   S    
Cu1   N10   S    
C1    O7    A    
C49   H46   S    
C37   H4    S    
C51   N7    S    
Cu2   O7    S    
C22   N1    A    
C51   H55   S    
C24   C26   A    
H49   N6    S    
C40   H16   S    
C2    C55   A    
C38   C39   S    
C9    N3    S    
C48   H43   S    
H22   N15   S    
C50   H52   S    
Cu1   O1    S    
C42   N14   S    
C3    N14   S    
C31   H1    S    
C21   N9    A    
C38   C45   S    
C4    N15   S    
C33   N12   S    
H53   N7    S    
C15   N10   A    
C24   O4    S    
C20   N1    A    
C22   C25   A    
C47   H38   S    
C37   N13   S    
C44   H29   S    
C1    O1    A    
Cu2   O11   S    
C41   H13   S    
C52   H59   S    
C38   H11   S    
C42   H21   S    
C30   C33   A    
Cu1   O8    S    
C17   N10   A    
C50   H50   S    
C43   H26   S    
C39   H7    S    
C14   C17   A    
C46   N2    S    
C6    N1    S    
C44   H28   S    
C16   N11   A    
Cu2   O5    S    
C37   H5    S    
C47   N3    S    
C20   C29   A    
C53   C55   A    
Cu2   N11   S    
H18   N14   S    
C49   N5    S    
C54   C56   A    
C32   C35   A    
C48   H42   S    
C4    C6    A    
H44   N5    S    
C35   N13   S    
Cu2   O9    S    
C8    N2    S    
C49   H47   S    
C46   H33   S    
C3    C5    A    
C48   N4    S    
C50   H51   S    
C19   O9    A    
C14   N5    S    
C6    C34   A    
C36   H64   S    
C3    C56   A    
C5    C23   A    
H40   N4    S    
C31   C33   A    
H58   N8    S    
C16   N7    S    
C9    C11   A    
C34   C53   A    
C41   H14   S    
C40   C41   S    
C14   N11   A    
C38   H10   S    
C45   C54   A    
C42   H20   S    
C15   N6    S    
C39   H8    S    
C1    C13   S    
C18   O11   A    
C37   H6    S    
H3    N13   S    
H36   N3    S    
C19   C55   S    
C7    C9    A    
C48   H41   S    
C44   N16   S    
C23   H23   S    
Cu1   O6    S    
C17   N8    S    
C39   H9    S    
C56   H45   S    
C18   O8    A    
C10   C13   A    
C36   N12   S    
C7    N16   S    
C32   H12   S    
C11   C12   S    
C40   H17   S    
C49   H48   S    
C46   H32   S    
H31   N2    S    
C25   C27   A    
C21   C30   A    
C29   C35   A    
C26   C28   A    
C19   O10   A    
C47   H39   S    
C12   O5    A    
C51   H57   S    
C52   N8    S    
C28   C30   A    
C36   H63   S    
C10   N4    S    
C2    H56   S    
C24   N9    A    
Cu1   Cu2   S    
C46   H35   S    
C8    C11   A    
C2    C4    A    
C22   O3    S    
C20   O12   S    
C43   N15   S    
H62   N12   S    
C34   H34   S    
C18   C54   S    
C41   H15   S    
C52   H61   S    
C12   O6    A    
C5    N9    S    
C50   N6    S    
C42   H19   S    
C8    C10   A    
C40   C53   S    
Cu1   O10   S    
C27   C28   A    
C43   H24   S    
C47   H37   S    
C21   O2    S    
C36   H2    S    
C44   H30   S    
H27   N16   S    
C15   C16   A    
C52   H60   S    
