data_mof_unit_7763.cif
_audit_creation_date              2013-03-05T15:46:45-0500
_audit_creation_method            fapswitch 2.2
_symmetry_space_group_name_H-M    P1
_symmetry_Int_Tables_number       1
_space_group_crystal_system       triclinic
_cell_length_a                    10.234801
_cell_length_b                    10.510339
_cell_length_c                    12.228386
_cell_angle_alpha                 91.442802
_cell_angle_beta                  109.137626
_cell_angle_gamma                 94.61193
_cell_volume                      1236.84370557

loop_
_atom_site_label
_atom_site_type_symbol
_atom_site_description
_atom_site_fract_x
_atom_site_fract_y
_atom_site_fract_z
_atom_type_partial_charge
O1    O     O_R   0.936910 0.692950 0.509080 -0.625227
O2    O     O_R   0.138320 0.658600 0.480130 -0.575201
C1    C     C_R   0.047540 0.734286 0.488292 0.845285
O3    O     O_R   0.002900 0.525670 0.675280 -0.577899
O4    O     O_R   0.204310 0.491320 0.646330 -0.619929
C2    C     C_R   0.132057 0.505259 0.714483 0.863896
Zn1   Zn    Zn3+2 0.865520 0.522940 0.519330 0.991557
Zn2   Zn    Zn3+2 0.134480 0.477060 0.480670 1.009861
O5    O     O_R   0.861680 0.341400 0.519870 -0.555410
O6    O     O_R   0.063090 0.307050 0.490920 -0.609501
O7    O     O_R   0.795690 0.508680 0.353670 -0.614599
O8    O     O_R   0.997100 0.474330 0.324720 -0.621578
C3    C     C_R   0.947204 0.265357 0.502512 0.894313
C4    C     C_R   0.865995 0.488287 0.284779 0.858044
C5    C     C_R   0.740212 0.358487 0.971770 0.338737
H1    H     H_    0.523845 0.241669 0.799107 0.215926
C6    C     C_R   0.789026 0.468907 0.160257 -0.162651
C7    C     C_R   0.150047 0.569777 0.914168 -0.134771
C8    C     C_R   0.230355 0.591713 0.029866 -0.133291
C9    C     C_R   0.363377 0.551865 0.069170 -0.131778
C10   C     C_R   0.415165 0.482389 0.993554 0.097666
C11   C     C_R   0.322191 0.438416 0.883575 0.052462
C12   C     C_R   0.555789 0.456156 0.022404 0.045434
C13   C     C_R   0.598451 0.378357 0.946099 -0.057018
C14   C     C_R   0.497404 0.315020 0.849915 -0.133527
C15   C     C_R   0.359114 0.339276 0.821106 0.088915
C16   C     C_R   0.655287 0.506675 0.124760 -0.238694
C17   C     C_R   0.835626 0.401847 0.080448 -0.032149
C18   C     C_R   0.198358 0.498434 0.839311 -0.113360
H2    H     H_    0.629712 0.572317 0.181954 0.163914
H3    H     H_    0.052868 0.612892 0.882337 0.169828
H4    H     H_    0.421792 0.575694 0.159116 0.136437
H5    H     H_    0.192704 0.646174 0.087814 0.153445
H6    H     H_    0.838100 0.866440 0.395069 0.160061
C19   C     C_2   0.058227 0.867819 0.459852 0.112034
C20   C     C_2   0.937999 0.921967 0.413839 -0.251386
H7    H     H_    0.891297 0.081204 0.562533 0.170491
C21   C     C_2   0.914320 0.127839 0.491746 -0.359970
C22   C     C_2   0.933124 0.058762 0.404659 0.193262
H8    H     H_    0.568791 0.415848 0.423698 0.201244
H9    H     H_    0.432438 0.598535 0.558953 0.150347
N1    N     N_2   0.313640 0.446500 0.454900 -0.008392
C23   C     C_2   0.432162 0.515200 0.504638 -0.058362
H10   H     H_    0.683014 0.623043 0.604800 0.178062
N2    N     N_2   0.686360 0.553430 0.545150 -0.187374
C24   C     C_2   0.568616 0.489288 0.487537 -0.047316
N3    N     N_3   0.977971 0.377693 0.106604 -0.354234
H11   H     H_    0.040354 0.463985 0.132886 0.214888
H12   H     H_    0.002329 0.315365 0.173676 0.246395
N4    N     N_R   0.192505 0.936021 0.480844 0.225303
O9    O     O_R   0.299006 0.905405 0.565281 -0.375195
O10   O     O_R   0.213368 0.012315 0.404943 -0.303511
N5    N     N_R   0.320930 0.330019 0.401851 0.282478
O11   O     O_R   0.254624 0.306502 0.291939 -0.402129
O12   O     O_R   0.388909 0.241997 0.462874 -0.326737
N6    N     N_R   0.787319 0.293595 0.888611 0.203402
O13   O     O_R   0.755634 0.330813 0.783114 -0.393975
O14   O     O_R   0.868670 0.202494 0.919592 -0.351565
N7    N     N_3   0.258195 0.250499 0.738996 -0.407333
H13   H     H_    0.267989 0.262197 0.657441 0.259512
H14   H     H_    0.157052 0.263124 0.736192 0.186647
N8    N     N_3   0.942319 0.113544 0.300644 -0.379431
H15   H     H_    0.034266 0.173167 0.320406 0.270220
H16   H     H_    0.858302 0.167947 0.267132 0.163426

loop_
_geom_bond_atom_site_label_1
_geom_bond_atom_site_label_2
_geom_bond_distance
_ccdc_geom_bond_type
O4    Zn2   1.911840 S    
N4    O10   1.299973 A    
C12   C13   1.419881 A    
C17   N3    1.430822 S    
H7    C21   1.087011 S    
C11   C18   1.411800 A    
C12   C16   1.389044 A    
C15   N7    1.436482 S    
C8    C9    1.390233 A    
C1    C19   1.458594 S    
Zn2   O8    1.961422 S    
C14   C15   1.388522 A    
C5    N6    1.439133 S    
C19   N4    1.438557 S    
C10   C12   1.416947 A    
O2    C1    1.296795 A    
C3    C21   1.450104 S    
C13   C14   1.395851 A    
N7    H13   1.043787 S    
N3    H12   1.040788 S    
C7    C18   1.402318 A    
O1    Zn1   1.898373 S    
N5    O11   1.298589 A    
C9    C10   1.420824 A    
C16   H2    1.076299 S    
Zn1   O7    1.911840 S    
H9    C23   1.085076 S    
C4    C6    1.467223 S    
C5    C17   1.405155 A    
N8    H15   1.041687 S    
O3    Zn1   1.961421 S    
Zn1   N2    2.008415 S    
Zn2   O6    1.898375 S    
C5    C13   1.414445 A    
C23   C24   1.522533 S    
N6    O14   1.301243 A    
N4    O9    1.301150 A    
H6    C20   1.087243 S    
N5    O12   1.301785 A    
N1    N5    1.389825 S    
C9    H4    1.077413 S    
O4    C2    1.295466 A    
O7    C4    1.298673 A    
N7    H14   1.043758 S    
N1    C23   1.309987 D    
H8    C24   1.084435 S    
C6    C16   1.387824 A    
N2    C24   1.300705 D    
O8    C4    1.290788 A    
C2    C18   1.459399 S    
C21   C22   1.347644 D    
N6    O13   1.301526 A    
O3    C2    1.287837 A    
C7    C8    1.386013 A    
C11   C15   1.422885 A    
H1    C14   1.083170 S    
Zn1   O5    1.905513 S    
C22   N8    1.436961 S    
O5    C3    1.294533 A    
N8    H16   1.045997 S    
C7    H3    1.083334 S    
C8    H5    1.082764 S    
C10   C11   1.409479 A    
C6    C17   1.414679 A    
O6    C3    1.283999 A    
C20   C22   1.448530 S    
O2    Zn2   1.905511 S    
H10   N2    1.030573 S    
N3    H11   1.044598 S    
Zn2   N1    2.008306 S    
O1    C1    1.284759 A    
C19   C20   1.352563 D    
