data_mof_unit_68173.cif
_audit_creation_date              2013-03-05T16:02:50-0500
_audit_creation_method            fapswitch 2.2
_symmetry_space_group_name_H-M    P1
_symmetry_Int_Tables_number       1
_space_group_crystal_system       triclinic
_cell_length_a                    7.584165
_cell_length_b                    14.434779
_cell_length_c                    17.364277
_cell_angle_alpha                 89.873521
_cell_angle_beta                  88.617203
_cell_angle_gamma                 90.401988
_cell_volume                      1900.36142959

loop_
_atom_site_label
_atom_site_type_symbol
_atom_site_description
_atom_site_fract_x
_atom_site_fract_y
_atom_site_fract_z
_atom_type_partial_charge
O1    O     O_R   0.611670 0.415650 0.164070 -0.601779
O2    O     O_R   0.388330 0.915650 0.835930 -0.570866
O3    O     O_R   0.940950 0.405490 0.337780 -0.508684
O4    O     O_R   0.059050 0.905490 0.662220 -0.548901
O5    O     O_R   0.111350 0.584350 0.338470 -0.512430
O6    O     O_R   0.888650 0.084350 0.661530 -0.509776
C1    C     C_R   0.772398 0.386267 0.366536 1.152896
C2    C     C_R   0.226702 0.886641 0.632988 1.143678
O7    O     O_R   0.941380 0.404630 0.164680 -0.481515
O8    O     O_R   0.058620 0.904630 0.835320 -0.508404
O9    O     O_R   0.111780 0.583470 0.164130 -0.505591
O10   O     O_R   0.888220 0.083470 0.835870 -0.501404
C3    C     C_R   0.773521 0.382995 0.136418 1.059313
C4    C     C_R   0.225918 0.881568 0.862540 1.059647
O11   O     O_R   0.611240 0.416530 0.338400 -0.575225
O12   O     O_R   0.388760 0.916530 0.661600 -0.552324
O13   O     O_3   0.778020 0.558680 0.251290 -0.224372
O14   O     O_3   0.221980 0.058680 0.748710 -0.222460
V1    V     V_3+5 0.052840 0.489110 0.251260 1.467283
V2    V     V_3+5 0.947160 0.989110 0.748740 1.439281
O15   O     O_R   0.441500 0.594510 0.164760 -0.532950
O16   O     O_R   0.558500 0.094510 0.835240 -0.529987
C5    C     C_R   0.274414 0.621321 0.141559 0.869935
C6    C     C_R   0.725814 0.119033 0.859918 0.856499
O17   O     O_R   0.441080 0.595370 0.337860 -0.502140
O18   O     O_R   0.558920 0.095370 0.662140 -0.504653
C7    C     C_R   0.271961 0.610967 0.369855 1.103061
C8    C     C_R   0.728351 0.111295 0.630407 1.121854
V3    V     V_3+5 0.552850 0.510890 0.251270 1.428750
V4    V     V_3+5 0.447150 0.010890 0.748730 1.448324
O19   O     O_3   0.277800 0.441320 0.251250 -0.310553
O20   O     O_3   0.722200 0.941320 0.748750 -0.326429
C9    C     C_3   0.102942 0.656173 0.510227 0.423280
C10   C     C_3   0.893255 0.156339 0.489341 0.407396
C11   C     C_3   0.076024 0.743314 0.567364 0.208603
C12   C     C_3   0.913568 0.240166 0.428361 0.226770
H1    H     H_    0.095161 0.722004 0.626977 0.207026
H2    H     H_    0.881308 0.215123 0.370908 0.209259
H3    H     H_    0.087220 0.890562 0.480960 0.279533
H4    H     H_    0.928901 0.379966 0.517793 0.271654
C13   C     C_3   0.241064 0.786175 0.412222 0.543467
C14   C     C_3   0.757621 0.285582 0.586154 0.525157
C15   C     C_3   0.419977 0.683045 0.495851 0.466396
C16   C     C_3   0.580768 0.180427 0.502870 0.482088
C17   C     C_3   0.257519 0.680315 0.444494 -0.658315
C18   C     C_3   0.742155 0.179813 0.555020 -0.655248
H5    H     H_    0.388138 0.641682 0.542705 0.140888
H6    H     H_    0.610393 0.141263 0.454460 0.135463
C19   C     C_3   0.230529 0.814888 0.562199 -0.454662
C20   C     C_3   0.766366 0.314226 0.436730 -0.447468
C21   C     C_3   0.214360 0.856989 0.481884 -0.332838
C22   C     C_3   0.793096 0.355609 0.516677 -0.315511
C23   C     C_3   0.411926 0.764848 0.558002 -0.480431
C24   C     C_3   0.583490 0.264977 0.442930 -0.505362
H7    H     H_    0.450236 0.743600 0.616965 0.265808
H8    H     H_    0.544422 0.244856 0.383727 0.227535
H9    H     H_    0.503373 0.821378 0.542463 0.312524
H10   H     H_    0.489546 0.319122 0.460757 0.317501
H11   H     H_    0.311183 0.911744 0.476687 0.290616
H12   H     H_    0.714011 0.417904 0.523257 0.295778
C25   C     C_R   0.230370 0.952977 0.033213 0.308412
C26   C     C_R   0.760994 0.451500 0.962831 0.271257
C27   C     C_R   0.240772 0.981980 0.110746 0.384458
C28   C     C_R   0.743210 0.477918 0.884533 0.407532
C29   C     C_R   0.219820 0.917204 0.168468 -0.145947
C30   C     C_R   0.759479 0.411713 0.828095 -0.117301
C31   C     C_R   0.231412 0.824060 0.153358 -0.001366
C32   C     C_R   0.759881 0.319270 0.845166 -0.022366
C33   C     C_R   0.247344 0.789475 0.079136 0.062020
C34   C     C_R   0.749524 0.286687 0.920353 0.113108
C35   C     C_R   0.237353 0.853765 0.013991 -0.015491
C36   C     C_R   0.757519 0.352712 0.984343 -0.035334
C37   C     C_R   0.271268 0.691789 0.071958 -0.155050
C38   C     C_R   0.729928 0.189168 0.929123 -0.131848
C39   C     C_R   0.283986 0.658071 0.996698 0.126267
C40   C     C_R   0.717840 0.156503 0.004868 0.128558
C41   C     C_R   0.251012 0.714581 0.929343 -0.086440
C42   C     C_R   0.748098 0.215055 0.071206 -0.068478
C43   C     C_R   0.233541 0.816108 0.935487 -0.175318
C44   C     C_R   0.764077 0.316712 0.063681 -0.197196
C45   C     C_R   0.326366 0.563945 0.988902 -0.163384
C46   C     C_R   0.675295 0.062093 0.014699 -0.152088
C47   C     C_R   0.287924 0.515228 0.924075 0.356903
C48   C     C_R   0.708757 0.015563 0.081748 0.397082
C49   C     C_R   0.243692 0.564200 0.857943 0.187234
C50   C     C_R   0.759738 0.066920 0.145801 0.141214
C51   C     C_R   0.241699 0.663796 0.858434 0.321046
C52   C     C_R   0.756536 0.166092 0.142834 0.324626
H13   H     H_    0.200178 0.939658 0.226699 0.262748
H14   H     H_    0.772892 0.432343 0.769161 0.244001
H15   H     H_    0.243735 0.778616 0.200717 0.181526
H16   H     H_    0.758290 0.272307 0.798240 0.171761
H17   H     H_    0.373544 0.524180 0.036580 0.150089
H18   H     H_    0.628516 0.021153 0.967379 0.186409
N1    N     N_R   0.955879 0.625496 0.466549 0.301066
O21   O     O_R   0.945438 0.536350 0.455632 -0.342004
O22   O     O_R   0.896767 0.679067 0.412951 -0.240126
N2    N     N_R   0.043507 0.133203 0.532111 0.301216
O23   O     O_R   0.056848 0.045534 0.549434 -0.323235
O24   O     O_R   0.113899 0.195589 0.575837 -0.240305
S1    S     S_3+6 0.438975 0.822098 0.357530 0.030268
O25   O     O_2   0.599470 0.828396 0.405438 -0.144725
O26   O     O_2   0.478729 0.760114 0.290255 -0.272651
O27   O     O_3   0.399968 0.927932 0.323722 -0.519442
H19   H     H_    0.472223 0.932805 0.275892 0.400171
S2    S     S_3+6 0.555169 0.320810 0.635933 0.039385
O28   O     O_2   0.392315 0.313204 0.589256 -0.133944
O29   O     O_2   0.524097 0.267760 0.709453 -0.284388
O30   O     O_3   0.587224 0.432204 0.656169 -0.509980
H20   H     H_    0.537709 0.439879 0.708237 0.395839
N3    N     N_R   0.196736 0.512829 0.791037 0.275235
O31   O     O_R   0.046369 0.527769 0.760884 -0.235825
O32   O     O_R   0.275212 0.436159 0.772881 -0.278916
N4    N     N_R   0.827234 0.020549 0.212000 0.268224
O33   O     O_R   0.960578 0.055898 0.246128 -0.228954
O34   O     O_R   0.775506 0.938490 0.233542 -0.258620
S3    S     S_3+6 0.135504 0.036128 0.972725 -0.018889
O35   O     O_2   0.253158 0.059228 0.905008 -0.281061
O36   O     O_2   0.968825 0.990404 0.948984 -0.307126
O37   O     O_3   0.080332 0.137184 0.013359 -0.477653
H21   H     H_    0.099638 0.184805 0.972820 0.419869
S4    S     S_3+6 0.851255 0.538169 0.022107 -0.022918
O38   O     O_2   0.729207 0.561565 0.087903 -0.295266
O39   O     O_2   0.016641 0.496603 0.050012 -0.292241
O40   O     O_3   0.908357 0.638123 0.978853 -0.478805
H22   H     H_    0.899304 0.686002 0.019482 0.405372
S5    S     S_3+6 0.290660 0.097424 0.140746 0.026120
O41   O     O_2   0.130361 0.152752 0.159374 -0.159544
O42   O     O_2   0.400769 0.093406 0.211270 -0.287887
O43   O     O_3   0.393226 0.157885 0.071490 -0.530893
H23   H     H_    0.401773 0.220895 0.093265 0.387727
S6    S     S_3+6 0.702092 0.592174 0.850059 0.023197
O44   O     O_2   0.868684 0.642095 0.829150 -0.171597
O45   O     O_2   0.592769 0.586723 0.779382 -0.289783
O46   O     O_3   0.602718 0.658726 0.915291 -0.559533
H24   H     H_    0.599880 0.720136 0.889788 0.388986
S7    S     S_3+6 0.267888 0.392807 0.933622 0.016826
O47   O     O_2   0.097007 0.361904 0.901467 -0.249798
O48   O     O_2   0.409886 0.344300 0.889003 -0.282399
O49   O     O_3   0.273250 0.359735 0.026326 -0.479804
H25   H     H_    0.398723 0.365574 0.040058 0.317718
S8    S     S_3+6 0.707557 0.892702 0.077733 -0.000937
O50   O     O_2   0.888673 0.857340 0.090869 -0.266794
O51   O     O_2   0.587473 0.852644 0.138928 -0.280302
O52   O     O_3   0.643223 0.855256 0.991582 -0.551912
H26   H     H_    0.594136 0.793111 0.003004 0.383386
S9    S     S_3+6 0.125902 0.563464 0.585316 0.073380
O53   O     O_2   0.954839 0.559915 0.628861 -0.098778
O54   O     O_2   0.161496 0.468765 0.555196 -0.151629
O55   O     O_3   0.275342 0.590389 0.651458 -0.550783
H27   H     H_    0.345777 0.534138 0.655791 0.418671
S10   S     S_3+6 0.872451 0.057571 0.420689 0.072611
O56   O     O_2   0.047013 0.052687 0.380064 -0.109891
O57   O     O_2   0.837315 0.965788 0.456909 -0.159724
O58   O     O_3   0.722187 0.074702 0.352833 -0.549825
H28   H     H_    0.655980 0.016024 0.351880 0.428492
N5    N     N_R   0.244489 0.711255 0.786492 0.227195
O59   O     O_R   0.099012 0.742579 0.759245 -0.409966
O60   O     O_R   0.394177 0.740544 0.757412 -0.405439
N6    N     N_R   0.753403 0.214785 0.213697 0.220870
O61   O     O_R   0.898711 0.247882 0.239906 -0.347644
O62   O     O_R   0.603902 0.241898 0.243326 -0.449288
S11   S     S_3+6 0.851372 0.782789 0.581334 0.030832
O63   O     O_2   0.817909 0.884698 0.583609 -0.221886
O64   O     O_2   0.750260 0.749271 0.516451 -0.213109
O65   O     O_3   0.767508 0.735298 0.662941 -0.458443
H29   H     H_    0.797364 0.778925 0.704457 0.401539
S12   S     S_3+6 0.136441 0.278856 0.406622 0.038436
O66   O     O_2   0.177322 0.376314 0.429960 -0.233203
O67   O     O_2   0.254685 0.218305 0.447375 -0.284531
O68   O     O_3   0.184016 0.266074 0.312422 -0.401258
H30   H     H_    0.311969 0.278040 0.306966 0.386548
N7    N     N_R   0.095892 0.799831 0.357459 0.265234
O69   O     O_R   0.071033 0.743763 0.300657 -0.379015
O70   O     O_R   0.023600 0.880168 0.350538 -0.218260
N8    N     N_R   0.897988 0.302045 0.643033 0.256027
O71   O     O_R   0.936690 0.242691 0.695809 -0.371773
O72   O     O_R   0.951867 0.385812 0.655196 -0.231861
S13   S     S_3+6 0.550361 0.580229 0.494750 0.024119
O73   O     O_2   0.443809 0.492967 0.494711 -0.280755
O74   O     O_2   0.657509 0.574601 0.423319 -0.184190
O75   O     O_3   0.677461 0.579243 0.571107 -0.407140
H31   H     H_    0.603578 0.598393 0.615681 0.400648
S14   S     S_3+6 0.454558 0.075960 0.507796 0.021758
O76   O     O_2   0.563738 0.992714 0.522392 -0.291070
O77   O     O_2   0.339739 0.082253 0.576651 -0.174576
O78   O     O_3   0.342450 0.056310 0.427569 -0.423656
H32   H     H_    0.400794 0.090553 0.384583 0.393360

loop_
_geom_bond_atom_site_label_1
_geom_bond_atom_site_label_2
_geom_bond_distance
_ccdc_geom_bond_type
H3    C21   1.082662 S    
O68   H30   0.986744 S    
C27   C29   1.374855 A    
N5    O59   1.294930 A    
C46   H18   1.078659 S    
C9    C17   1.651227 S    
C30   C32   1.366321 A    
N1    O21   1.303255 A    
C47   S7    1.779605 S    
O4    C2    1.386621 A    
V1    O19   1.844795 S    
C35   C43   1.469526 A    
N4    O33   1.287356 A    
C6    C38   1.573756 S    
O46   H24   0.990629 S    
C30   H14   1.067466 S    
N7    O69   1.293735 A    
C29   H13   1.069805 S    
S7    O48   1.490987 D    
C15   S13   1.789033 S    
S1    O25   1.493175 D    
C38   C40   1.396952 A    
S11   O64   1.459577 D    
C40   C42   1.451965 A    
O3    C1    1.387103 A    
S3    O36   1.489363 D    
O52   H26   0.986708 S    
C9    C11   1.614807 S    
C42   C44   1.476800 A    
S12   O67   1.451828 D    
S2    O28   1.497091 D    
O12   V4    2.091249 S    
C12   S12   1.807362 S    
C36   C44   1.473400 A    
O13   V3    1.837309 S    
S14   O76   1.488811 D    
C25   C27   1.414637 A    
O7    V1    2.125280 S    
C14   C18   1.625166 S    
C33   C35   1.465290 A    
O7    C3    1.408656 A    
O75   H31   0.985724 S    
C26   C28   1.421044 A    
C9    S9    1.878250 S    
S9    O53   1.486300 D    
O13   V1    2.319919 S    
O5    C7    1.398138 A    
C15   C23   1.601930 S    
S12   O68   1.677369 S    
O6    C8    1.399562 A    
C28   S6    1.785365 S    
O8    V2    2.128275 S    
S6    O44   1.487062 D    
C29   C31   1.373457 A    
C34   C38   1.421902 A    
C20   C22   1.529910 S    
O3    V1    2.085715 S    
O14   V4    1.846284 S    
C22   H12   1.089090 S    
C16   S14   1.781216 S    
C10   C12   1.610272 S    
S13   O75   1.658054 S    
C7    C17   1.641404 S    
N8    O72   1.293060 A    
C3    C44   1.588881 S    
C2    O12   1.402348 A    
C37   C39   1.396928 A    
S8    O52   1.674275 S    
S6    O45   1.499478 D    
C5    C37   1.578660 S    
C9    N1    1.432025 S    
O1    V3    2.089709 S    
O27   H19   0.986027 S    
C45   C47   1.364973 A    
C16   C18   1.540075 S    
O11   V3    2.090945 S    
C23   H7    1.113980 S    
O17   V3    2.104147 S    
S7    O49   1.679538 S    
C24   H8    1.115248 S    
C49   C51   1.437882 A    
C25   S3    1.761960 S    
S11   O65   1.681846 S    
O49   H25   0.989660 S    
O8    C4    1.406521 A    
S3    O37   1.673229 S    
C40   C46   1.407344 A    
C10   S10   1.868696 S    
C39   C45   1.404453 A    
C1    O11   1.399563 A    
C19   C21   1.528022 S    
H4    C22   1.086615 S    
O15   V3    2.119949 S    
C11   S11   1.811282 S    
C51   N5    1.423041 S    
C31   C33   1.386005 A    
N6    O62   1.297078 A    
S5    O42   1.500032 D    
C11   C19   1.557586 S    
C45   H17   1.076104 S    
S10   O58   1.678012 S    
C48   S8    1.774958 S    
O9    V1    2.072145 S    
O10   V2    2.080640 S    
C31   H15   1.057117 S    
C41   C43   1.476281 A    
C26   C36   1.473197 A    
N3    O32   1.296211 A    
C20   C24   1.555397 S    
C4    C43   1.581024 S    
C33   C37   1.428299 A    
C15   C17   1.538643 S    
C14   S2    1.819922 S    
N7    O70   1.292805 A    
S14   O78   1.673181 S    
C10   C18   1.634872 S    
C32   C34   1.386975 A    
S12   O66   1.497281 D    
C47   C49   1.396147 A    
S10   O57   1.484965 D    
O18   V4    2.093378 S    
S1    O27   1.666351 S    
C46   C48   1.372661 A    
O15   C5    1.395973 A    
O40   H22   0.990243 S    
C24   H10   1.101160 S    
O16   C6    1.392746 A    
C21   H11   1.077225 S    
O2    V4    2.081178 S    
S4    O39   1.485498 D    
S5    O41   1.488706 D    
S9    O55   1.677279 S    
C26   S4    1.766595 S    
S8    O51   1.495359 D    
C12   C20   1.555612 S    
O37   H21   0.990432 S    
C11   H1    1.092541 S    
V2    O20   1.835821 S    
C42   C52   1.432183 A    
C13   N7    1.485957 S    
N8    O71   1.293473 A    
C23   H9    1.096233 S    
O16   V4    2.116978 S    
N3    O31   1.285680 A    
S9    O54   1.488794 D    
O55   H27   0.978810 S    
C1    C20   1.600042 S    
C48   C50   1.398754 A    
C49   N3    1.430543 S    
N4    O34   1.296652 A    
N1    O22   1.298827 A    
O5    V1    2.100760 S    
O17   C7    1.405235 A    
O6    V2    2.100459 S    
S7    O47   1.489377 D    
O10   C6    1.392844 A    
O18   C8    1.403136 A    
S14   O77   1.465409 D    
S1    O26   1.499170 D    
C50   N4    1.435706 S    
C8    C18   1.639808 S    
N6    O61   1.291365 A    
C10   N2    1.416588 S    
S4    O40   1.674543 S    
C12   H2    1.094494 S    
O43   H23   0.988082 S    
S5    O43   1.659407 S    
O78   H32   0.988246 S    
V3    O19   2.308812 S    
C14   N8    1.487775 S    
O30   H20   0.977447 S    
V4    O20   2.321509 S    
C25   C35   1.472227 A    
O65   H29   0.987633 S    
S2    O29   1.500108 D    
S6    O46   1.657597 S    
C19   C23   1.558549 S    
C50   C52   1.432739 A    
O9    C5    1.392759 A    
C32   H16   1.061344 S    
C13   S1    1.828087 S    
O14   V2    2.307222 S    
C52   N6    1.418224 S    
O2    C4    1.391326 A    
N2    O24   1.299338 A    
S11   O63   1.494960 D    
S13   O73   1.491778 D    
O4    V2    2.096417 S    
C16   C24   1.601958 S    
O1    C3    1.392903 A    
S10   O56   1.487204 D    
C41   C51   1.437317 A    
N5    O60   1.298920 A    
N2    O23   1.305272 A    
C39   C41   1.452103 A    
C14   C22   1.588949 S    
O58   H28   0.981983 S    
C13   C17   1.633037 S    
S8    O50   1.491256 D    
C34   C36   1.467566 A    
S4    O38   1.493714 D    
S3    O35   1.494489 D    
C15   H5    1.031049 S    
C2    C19   1.608979 S    
C13   C21   1.595503 S    
C27   S5    1.787720 S    
C16   H6    1.035118 S    
C28   C30   1.374364 A    
S13   O74   1.469075 D    
S2    O30   1.664079 S    
