data_mof_unit_59516.cif
_audit_creation_date              2012-12-11T20:50:56-0500
_audit_creation_method            fapswitch 2.2
_symmetry_space_group_name_H-M    P1
_symmetry_Int_Tables_number       1
_space_group_crystal_system       triclinic
_cell_length_a                    30.205118
_cell_length_b                    34.305153
_cell_length_c                    8.539099
_cell_angle_alpha                 90.002164
_cell_angle_beta                  90.448776
_cell_angle_gamma                 89.994361
_cell_volume                      8847.86772786

loop_
_atom_site_label
_atom_site_type_symbol
_atom_type_description
_atom_site_fract_x
_atom_site_fract_y
_atom_site_fract_z
_atom_type_partial_charge
Ba1   Ba    Ba6+2 0.999930 0.472870 0.844940 1.881741
Ba2   Ba    Ba6+2 0.999930 0.527130 0.344940 1.888798
Ba3   Ba    Ba6+2 0.499930 0.972870 0.844940 1.881744
Ba4   Ba    Ba6+2 0.499930 0.027130 0.344940 1.888819
C1    C     C_3   0.042045 0.295166 0.640775 0.296521
C2    C     C_3   0.020972 0.718202 0.060198 0.300614
C3    C     C_3   0.542050 0.795167 0.640776 0.296464
C4    C     C_3   0.520965 0.218204 0.060104 0.300625
C5    C     C_R   0.249213 0.692209 0.076075 -0.013642
C6    C     C_R   0.248667 0.307232 0.578495 -0.015320
C7    C     C_R   0.749212 0.192210 0.076072 -0.013636
C8    C     C_R   0.748673 0.807238 0.578496 -0.015310
C9    C     C_R   0.216965 0.663992 0.033818 0.600337
C10   C     C_R   0.216479 0.335520 0.536369 0.603970
C11   C     C_R   0.716965 0.163993 0.033815 0.600328
C12   C     C_R   0.716484 0.835526 0.536372 0.603968
C13   C     C_R   0.165790 0.714555 0.961697 0.621092
C14   C     C_R   0.166274 0.285105 0.454683 0.616094
C15   C     C_R   0.665787 0.214557 0.961711 0.621103
C16   C     C_R   0.666283 0.785111 0.454657 0.616091
C17   C     C_R   0.197220 0.743438 0.003747 -0.113743
C18   C     C_R   0.197403 0.256152 0.498528 -0.120312
C19   C     C_R   0.697217 0.243440 0.003759 -0.113751
C20   C     C_R   0.697414 0.756158 0.498492 -0.120339
C21   C     C_R   0.239162 0.732178 0.061204 -0.050260
C22   C     C_R   0.238871 0.267299 0.560361 -0.050079
C23   C     C_R   0.739160 0.232180 0.061208 -0.050261
C24   C     C_R   0.738879 0.767305 0.560341 -0.050087
C25   C     C_R   0.291366 0.681390 0.132622 -0.053384
C26   C     C_R   0.290519 0.317954 0.638107 -0.049695
C27   C     C_R   0.791366 0.181391 0.132614 -0.053395
C28   C     C_R   0.790522 0.817960 0.638127 -0.049704
C29   C     C_R   0.822816 0.209607 0.173885 -0.044347
C30   C     C_R   0.821936 0.789682 0.679042 -0.030198
C31   C     C_R   0.322816 0.709606 0.173890 -0.044332
C32   C     C_R   0.321931 0.289675 0.679023 -0.030190
C33   C     C_R   0.813183 0.249665 0.160753 -0.005201
C34   C     C_R   0.812478 0.749658 0.663157 -0.004543
C35   C     C_R   0.313184 0.749664 0.160753 -0.005207
C36   C     C_R   0.312470 0.249651 0.663160 -0.004538
C37   C     C_R   0.771135 0.260984 0.104203 -0.124498
C38   C     C_R   0.770684 0.738424 0.603995 -0.125012
C39   C     C_R   0.271137 0.760983 0.104200 -0.124502
C40   C     C_R   0.270674 0.238417 0.604019 -0.125016
C41   C     C_R   0.187523 0.783394 0.990231 -0.084792
C42   C     C_R   0.187864 0.216222 0.482338 -0.071102
C43   C     C_R   0.687520 0.283395 0.990248 -0.084772
C44   C     C_R   0.687878 0.716228 0.482276 -0.070994
C45   C     C_3   0.987353 0.334727 0.065286 0.351054
C46   C     C_3   0.988858 0.665986 0.563356 0.322636
C47   C     C_3   0.487355 0.834726 0.065289 0.351059
C48   C     C_3   0.488859 0.165987 0.563349 0.322627
C49   C     C_R   0.718581 0.311739 0.033380 0.662750
C50   C     C_R   0.718628 0.687793 0.527233 0.654735
C51   C     C_R   0.218584 0.811737 0.033366 0.662747
C52   C     C_R   0.218613 0.187786 0.527304 0.654826
C53   C     C_R   0.760854 0.300955 0.091296 -0.160727
C54   C     C_R   0.760505 0.698465 0.588900 -0.155942
C55   C     C_R   0.260856 0.800954 0.091289 -0.160717
C56   C     C_R   0.260492 0.198458 0.588951 -0.156027
C57   C     C_R   0.792845 0.329049 0.137822 0.739522
C58   C     C_R   0.792217 0.670289 0.636984 0.740110
C59   C     C_R   0.292847 0.829047 0.137817 0.739528
C60   C     C_R   0.292203 0.170281 0.637041 0.740130
C61   C     C_R   0.844667 0.278521 0.203240 0.590273
C62   C     C_R   0.843901 0.720741 0.705239 0.593835
C63   C     C_R   0.344669 0.778519 0.203238 0.590279
C64   C     C_R   0.343894 0.220734 0.705242 0.593845
C65   C     C_2   0.123680 0.644015 0.783323 -0.073238
C66   C     C_2   0.123275 0.355652 0.282907 -0.053601
C67   C     C_2   0.623679 0.144016 0.783326 -0.073237
C68   C     C_2   0.623280 0.855657 0.282898 -0.053612
C69   C     C_3   0.096108 0.611390 0.739305 -0.082991
C70   C     C_3   0.095482 0.388130 0.239614 -0.074789
C71   C     C_3   0.596109 0.111390 0.739306 -0.082997
C72   C     C_3   0.595484 0.888133 0.239610 -0.074793
C73   C     C_1   0.097243 0.587864 0.006483 0.017355
C74   C     C_1   0.097156 0.411997 0.506428 0.009172
C75   C     C_1   0.597244 0.087864 0.006484 0.017357
C76   C     C_1   0.597156 0.911998 0.506427 0.009165
C77   C     C_2   0.127868 0.615845 0.051867 -0.071195
C78   C     C_2   0.127939 0.384015 0.551081 -0.096043
C79   C     C_2   0.627868 0.115845 0.051869 -0.071182
C80   C     C_2   0.627941 0.884017 0.551078 -0.096043
C81   C     C_2   0.142737 0.645760 0.935591 0.205948
C82   C     C_2   0.142637 0.353971 0.434651 0.195404
C83   C     C_2   0.642736 0.145761 0.935595 0.205952
C84   C     C_2   0.642642 0.853975 0.434642 0.195407
C85   C     C_R   0.885918 0.345675 0.384499 -0.198808
C86   C     C_R   0.884400 0.653372 0.886893 -0.221398
C87   C     C_R   0.385922 0.845673 0.384493 -0.198792
C88   C     C_R   0.384393 0.153368 0.886906 -0.221371
C89   C     C_3   0.966551 0.294520 0.052587 -0.244983
C90   C     C_3   0.969750 0.706799 0.550822 -0.232837
C91   C     C_3   0.466555 0.794518 0.052594 -0.244976
C92   C     C_3   0.469753 0.206801 0.550826 -0.232843
C93   C     C_R   0.917336 0.376085 0.435558 -0.006690
C94   C     C_R   0.916026 0.623101 0.937547 -0.023962
C95   C     C_R   0.417341 0.876082 0.435548 -0.006689
C96   C     C_R   0.416025 0.123100 0.937552 -0.023928
C97   C     C_R   0.903607 0.411987 0.192993 -0.173918
C98   C     C_R   0.903485 0.587867 0.693079 -0.172974
C99   C     C_R   0.403608 0.911986 0.192990 -0.173881
C100  C     C_R   0.403483 0.087866 0.693082 -0.172995
C101  C     C_R   0.876651 0.380229 0.142581 0.494668
C102  C     C_R   0.876404 0.619554 0.642951 0.497136
C103  C     C_R   0.376652 0.880228 0.142577 0.494671
C104  C     C_R   0.376395 0.119549 0.642964 0.497229
C105  C     C_R   0.866660 0.347816 0.241250 0.123764
C106  C     C_R   0.865752 0.651526 0.742688 0.138755
C107  C     C_R   0.366662 0.847815 0.241246 0.123760
C108  C     C_R   0.365743 0.151521 0.742707 0.138692
C109  C     C_2   0.073509 0.595067 0.871161 -0.281159
C110  C     C_2   0.073105 0.404496 0.371923 -0.291770
C111  C     C_2   0.573509 0.095066 0.871161 -0.281162
C112  C     C_2   0.573106 0.904497 0.371922 -0.291761
C113  C     C_3   0.129452 0.477863 0.189755 0.369704
C114  C     C_3   0.129738 0.521958 0.690014 0.374845
C115  C     C_3   0.629453 0.977863 0.189756 0.369713
C116  C     C_3   0.629738 0.021958 0.690016 0.374853
C117  C     C_3   0.173933 0.458520 0.223715 0.584249
C118  C     C_3   0.174321 0.541057 0.724510 0.584822
C119  C     C_3   0.673935 0.958522 0.223718 0.584243
C120  C     C_3   0.674321 0.041058 0.724512 0.584812
C121  C     C_3   0.845601 0.500101 0.201781 0.541537
C122  C     C_3   0.845560 0.499731 0.700760 0.538854
C123  C     C_3   0.345605 0.000109 0.201766 0.541336
C124  C     C_3   0.345564 0.999721 0.700730 0.538749
C125  C     C_3   0.811713 0.471011 0.270191 0.318732
C126  C     C_3   0.812537 0.529318 0.771553 0.318967
C127  C     C_3   0.311718 0.971026 0.270223 0.318629
C128  C     C_3   0.312545 0.029302 0.771580 0.319660
C129  C     C_3   0.016784 0.332449 0.601856 0.238945
C130  C     C_3   0.997272 0.679650 0.030070 0.234782
C131  C     C_3   0.516786 0.832448 0.601848 0.238924
C132  C     C_3   0.497260 0.179654 0.030002 0.234760
C133  C     C_R   0.923411 0.410208 0.334222 0.293230
C134  C     C_R   0.922830 0.589375 0.835049 0.297421
C135  C     C_R   0.423415 0.910206 0.334213 0.293298
C136  C     C_R   0.422831 0.089375 0.835047 0.297419
H1    H     H_    0.035397 0.356703 0.657853 0.003803
H2    H     H_    0.022711 0.657165 0.004369 -0.060879
H3    H     H_    0.535400 0.856704 0.657831 0.003804
H4    H     H_    0.522695 0.157169 0.004241 -0.060903
H5    H     H_    0.169351 0.431160 0.290187 -0.084759
H6    H     H_    0.169872 0.568364 0.791495 -0.085831
H7    H     H_    0.669354 0.931163 0.290193 -0.084758
H8    H     H_    0.669872 0.068364 0.791498 -0.085827
H9    H     H_    0.190838 0.451644 0.112024 0.057793
H10   H     H_    0.191304 0.547980 0.613020 0.056607
H11   H     H_    0.690840 0.951646 0.112028 0.057788
H12   H     H_    0.691303 0.047981 0.613021 0.056603
H13   H     H_    0.873057 0.501846 0.286819 -0.000816
H14   H     H_    0.873148 0.497407 0.785038 -0.002276
H15   H     H_    0.373063 0.001859 0.286792 -0.000797
H16   H     H_    0.373155 0.997390 0.784994 -0.002312
H17   H     H_    0.804994 0.481282 0.388839 0.134276
H18   H     H_    0.807581 0.519966 0.892230 0.118301
H19   H     H_    0.304980 0.981323 0.388829 0.134250
H20   H     H_    0.307589 0.019935 0.892236 0.118157
H21   H     H_    0.826933 0.441838 0.280922 -0.054387
H22   H     H_    0.827740 0.558529 0.777121 -0.051806
H23   H     H_    0.326946 0.941857 0.281061 -0.054225
H24   H     H_    0.327752 0.058512 0.777204 -0.051814
H25   H     H_    0.015873 0.336824 0.472645 0.003243
H26   H     H_    0.975101 0.683264 0.926604 -0.004623
H27   H     H_    0.515872 0.836820 0.472636 0.003253
H28   H     H_    0.475074 0.183271 0.926575 -0.004607
H29   H     H_    0.077664 0.299572 0.615911 0.024074
H30   H     H_    0.043774 0.724171 0.961862 0.069164
H31   H     H_    0.577668 0.799573 0.615898 0.024089
H32   H     H_    0.543755 0.224174 0.961731 0.069159
H33   H     H_    0.038975 0.288457 0.767319 0.035838
H34   H     H_    0.040781 0.716181 0.170093 0.052242
H35   H     H_    0.538983 0.788461 0.767323 0.035849
H36   H     H_    0.540788 0.216182 0.169968 0.052275
H37   H     H_    0.930872 0.297555 0.022978 0.099817
H38   H     H_    0.975016 0.722703 0.662484 0.167856
H39   H     H_    0.430876 0.797552 0.022977 0.099817
H40   H     H_    0.475016 0.222702 0.662495 0.167826
H41   H     H_    0.155570 0.792975 0.946425 0.175920
H42   H     H_    0.156228 0.206733 0.435382 0.187702
H43   H     H_    0.655566 0.292977 0.946448 0.175933
H44   H     H_    0.656244 0.706739 0.435307 0.187719
H45   H     H_    0.854791 0.199865 0.216839 0.149360
H46   H     H_    0.853707 0.799338 0.724179 0.159814
H47   H     H_    0.354791 0.699865 0.216848 0.149374
H48   H     H_    0.353705 0.299330 0.724144 0.159826
H49   H     H_    0.878243 0.322028 0.463685 0.161801
H50   H     H_    0.876293 0.676786 0.966641 0.139674
H51   H     H_    0.378247 0.822026 0.463680 0.161799
H52   H     H_    0.376287 0.176782 0.966655 0.139673
H53   H     H_    0.300241 0.650952 0.145244 0.149024
H54   H     H_    0.299213 0.348363 0.653164 0.151578
H55   H     H_    0.800242 0.150952 0.145232 0.149013
H56   H     H_    0.799214 0.848370 0.653201 0.151566
H57   H     H_    0.141156 0.616053 0.170252 0.119777
H58   H     H_    0.141057 0.383613 0.669683 0.124364
H59   H     H_    0.641155 0.116053 0.170255 0.119774
H60   H     H_    0.641058 0.883614 0.669681 0.124364
H61   H     H_    0.134246 0.664587 0.694516 0.111295
H62   H     H_    0.133746 0.335149 0.193695 0.113722
H63   H     H_    0.634246 0.164588 0.694520 0.111289
H64   H     H_    0.633753 0.835155 0.193683 0.113721
H65   H     H_    0.037861 0.590933 0.869625 0.091696
H66   H     H_    0.037413 0.408277 0.371599 0.089335
H67   H     H_    0.537862 0.090930 0.869620 0.091722
H68   H     H_    0.537413 0.908275 0.371602 0.089338
H69   H     H_    0.978328 0.350982 0.957284 0.074315
H70   H     H_    0.980102 0.650204 0.454009 0.101145
H71   H     H_    0.478331 0.850980 0.957283 0.074318
H72   H     H_    0.480106 0.150207 0.453995 0.101156
H73   H     H_    0.973546 0.349694 0.169444 -0.082413
H74   H     H_    0.973823 0.651035 0.665374 -0.099444
H75   H     H_    0.473547 0.849695 0.169442 -0.082434
H76   H     H_    0.473822 0.151034 0.665357 -0.099436
H77   H     H_    0.982677 0.277351 0.958876 0.120711
H78   H     H_    0.933740 0.705058 0.524864 0.126678
H79   H     H_    0.482683 0.777349 0.958890 0.120714
H80   H     H_    0.433743 0.205060 0.524856 0.126690
H81   H     H_    0.969919 0.278777 0.165443 0.211099
H82   H     H_    0.986213 0.722968 0.454874 0.181018
H83   H     H_    0.469922 0.778777 0.165453 0.211094
H84   H     H_    0.486218 0.222971 0.454888 0.181036
H85   H     H_    0.112319 0.482676 0.302351 -0.032190
H86   H     H_    0.112524 0.517151 0.802462 -0.034797
H87   H     H_    0.612320 0.982676 0.302351 -0.032190
H88   H     H_    0.612523 0.017151 0.802463 -0.034796
H89   H     H_    0.109187 0.458661 0.113063 -0.112176
H90   H     H_    0.109632 0.541283 0.613349 -0.118923
H91   H     H_    0.609190 0.958661 0.113063 -0.112185
H92   H     H_    0.609632 0.041284 0.613351 -0.118929
N1    N     N_R   0.175674 0.675263 0.977568 -0.431070
N2    N     N_R   0.175597 0.324374 0.475978 -0.435889
N3    N     N_R   0.675673 0.175264 0.977573 -0.431071
N4    N     N_R   0.675604 0.824379 0.475967 -0.435886
N5    N     N_R   0.834534 0.317974 0.191671 -0.424057
N6    N     N_R   0.833722 0.681334 0.692724 -0.423431
N7    N     N_R   0.334536 0.817972 0.191668 -0.424061
N8    N     N_R   0.333711 0.181327 0.692751 -0.423490
O1    O     O_2   0.914200 0.445720 0.903420 -0.384556
O2    O     O_2   0.914200 0.554280 0.403420 -0.381661
O3    O     O_2   0.414200 0.945720 0.903420 -0.384578
O4    O     O_2   0.414200 0.054280 0.403420 -0.381761
O5    O     O_3   0.137529 0.486910 0.611906 -0.583907
O6    O     O_3   0.137432 0.512949 0.112111 -0.586418
O7    O     O_3   0.637529 0.986911 0.611907 -0.583909
O8    O     O_3   0.637433 0.012950 0.112111 -0.586421
O9    O     O_3   0.033539 0.331251 0.080669 -0.575791
O10   O     O_3   0.034960 0.668469 0.583064 -0.592657
O11   O     O_3   0.533541 0.831252 0.080678 -0.575790
O12   O     O_3   0.534960 0.168469 0.583072 -0.592663
O13   O     O_3   0.049930 0.518940 0.045960 -0.470559
O14   O     O_3   0.049930 0.481060 0.545960 -0.469277
O15   O     O_3   0.549930 0.018940 0.045960 -0.470556
O16   O     O_3   0.549930 0.981060 0.545960 -0.469272
O17   O     O_2   0.225886 0.629360 0.045477 -0.548967
O18   O     O_2   0.225142 0.370116 0.551568 -0.546028
O19   O     O_2   0.725887 0.129360 0.045467 -0.548972
O20   O     O_2   0.725145 0.870122 0.551586 -0.546035
O21   O     O_2   0.129429 0.724454 0.912354 -0.589308
O22   O     O_2   0.130690 0.275252 0.398548 -0.532463
O23   O     O_2   0.629425 0.224456 0.912379 -0.589307
O24   O     O_2   0.630699 0.775257 0.398516 -0.532471
O25   O     O_2   0.783274 0.363531 0.132494 -0.407041
O26   O     O_2   0.782584 0.635795 0.631255 -0.421226
O27   O     O_2   0.283275 0.863530 0.132490 -0.407003
O28   O     O_2   0.282567 0.135787 0.631346 -0.420529
O29   O     O_2   0.881195 0.268394 0.250213 -0.569249
O30   O     O_2   0.880440 0.730747 0.752565 -0.570734
O31   O     O_2   0.381196 0.768393 0.250209 -0.569249
O32   O     O_2   0.380435 0.230740 0.752546 -0.570729
O33   O     O_3   0.950020 0.480960 0.143730 -0.399211
O34   O     O_3   0.950020 0.519040 0.643730 -0.400632
O35   O     O_3   0.450020 0.980960 0.143730 -0.399215
O36   O     O_3   0.450020 0.019040 0.643730 -0.400632
O37   O     O_3   0.985090 0.412220 0.642040 -0.441154
O38   O     O_3   0.985090 0.587780 0.142040 -0.423462
O39   O     O_3   0.485090 0.912220 0.642040 -0.441146
O40   O     O_3   0.485090 0.087780 0.142040 -0.423442
O41   O     O_2   0.914010 0.378950 0.762082 -0.364237
O42   O     O_2   0.914070 0.620502 0.264533 -0.360230
O43   O     O_2   0.414009 0.878949 0.762069 -0.364226
O44   O     O_2   0.414075 0.120508 0.264549 -0.360322
O45   O     O_3   0.862997 0.488719 0.056874 -0.657181
O46   O     O_3   0.862979 0.511291 0.556247 -0.653214
O47   O     O_3   0.362996 0.988718 0.056865 -0.657243
O48   O     O_3   0.362979 0.011293 0.556229 -0.653223
O49   O     O_3   0.973727 0.330186 0.662567 -0.629692
O50   O     O_3   0.973228 0.669155 0.163711 -0.622600
O51   O     O_3   0.473730 0.830186 0.662572 -0.629709
O52   O     O_3   0.473234 0.169155 0.163684 -0.622590
O53   O     O_2   0.085560 0.445380 0.786390 -0.470403
O54   O     O_2   0.085560 0.554620 0.286390 -0.469984
O55   O     O_2   0.585560 0.945380 0.786390 -0.470404
O56   O     O_2   0.585560 0.054620 0.286390 -0.469986
O57   O     O_3   0.014550 0.412170 0.047860 -0.499985
O58   O     O_3   0.014550 0.587830 0.547860 -0.498410
O59   O     O_3   0.514550 0.912170 0.047860 -0.499979
O60   O     O_3   0.514550 0.087830 0.547860 -0.498399
O61   O     O_2   0.082672 0.377087 0.914161 -0.505147
O62   O     O_2   0.082910 0.622681 0.413368 -0.482274
O63   O     O_2   0.582672 0.877087 0.914159 -0.505147
O64   O     O_2   0.582910 0.122682 0.413370 -0.482268
P1    P     P_3+3 0.909970 0.458430 0.077330 1.172299
P2    P     P_3+3 0.909970 0.541570 0.577330 1.173285
P3    P     P_3+3 0.409970 0.958430 0.077330 1.172261
P4    P     P_3+3 0.409970 0.041570 0.577330 1.173271
P5    P     P_3+3 0.089830 0.458070 0.612460 1.041911
P6    P     P_3+3 0.089830 0.541930 0.112460 1.041770
P7    P     P_3+3 0.589830 0.958070 0.612460 1.041912
P8    P     P_3+3 0.589830 0.041930 0.112460 1.041770
P9    P     P_3+3 0.057166 0.377920 0.070633 0.962315
P10   P     P_3+3 0.057738 0.621586 0.570523 0.971956
P11   P     P_3+3 0.557167 0.877921 0.070633 0.962325
P12   P     P_3+3 0.557738 0.121586 0.570525 0.971967
P13   P     P_3+3 0.946048 0.625173 0.125888 1.095811
P14   P     P_3+3 0.946672 0.374359 0.625234 1.093145
P15   P     P_3+3 0.446049 0.125174 0.125888 1.095801
P16   P     P_3+3 0.446674 0.874357 0.625230 1.093149
F1    F     F_    0.200394 0.483262 0.311669 -0.620434
F2    F     F_    0.200610 0.516096 0.812114 -0.620742
F3    F     F_    0.700395 0.983265 0.311671 -0.620445
F4    F     F_    0.700610 0.016096 0.812113 -0.620752
S1    S     S_3+6 0.824121 0.548889 0.186724 -0.001411
O65   O     O_2   0.822459 0.566632 0.346277 -0.171136
O66   O     O_2   0.855075 0.572160 0.087849 -0.348301
O67   O     O_3   0.773289 0.551735 0.106531 -0.452817
H93   H     H_    0.767193 0.580004 0.096745 0.386911
S2    S     S_3+6 0.823624 0.451106 0.683682 0.011377
O68   O     O_2   0.854426 0.427888 0.583702 -0.357062
O69   O     O_2   0.821911 0.432866 0.842336 -0.154429
O70   O     O_3   0.772718 0.448783 0.603630 -0.434324
H94   H     H_    0.767172 0.420649 0.586266 0.387885
S3    S     S_3+6 0.324122 0.048896 0.186677 -0.000973
O71   O     O_2   0.322446 0.066641 0.346225 -0.169955
O72   O     O_2   0.355082 0.072168 0.087828 -0.348521
O73   O     O_3   0.273295 0.051738 0.106439 -0.452402
H95   H     H_    0.267203 0.080008 0.096652 0.387007
S4    S     S_3+6 0.323630 0.951097 0.683590 0.011310
O74   O     O_2   0.354431 0.927891 0.583558 -0.357169
O75   O     O_2   0.321926 0.932841 0.842213 -0.154301
O76   O     O_3   0.272721 0.948778 0.603557 -0.434590
H96   H     H_    0.267193 0.920650 0.585991 0.387873
S5    S     S_3+6 0.758115 0.465250 0.180127 0.111541
O77   O     O_2   0.760965 0.466354 0.005571 -0.171609
O78   O     O_2   0.739629 0.426582 0.229432 -0.167200
O79   O     O_3   0.722651 0.499723 0.240455 -0.411276
H97   H     H_    0.694579 0.494113 0.184111 0.393598
S6    S     S_3+6 0.757587 0.534795 0.692467 0.107370
O80   O     O_2   0.727685 0.502819 0.748217 -0.130497
O81   O     O_2   0.739395 0.572709 0.752154 -0.200786
O82   O     O_3   0.757190 0.535508 0.496762 -0.412491
H98   H     H_    0.733565 0.554180 0.467164 0.420350
S7    S     S_3+6 0.258130 0.965237 0.180110 0.111235
O83   O     O_2   0.260992 0.966297 0.005547 -0.171198
O84   O     O_2   0.239650 0.926578 0.229570 -0.167561
O85   O     O_3   0.222654 0.999723 0.240260 -0.412496
H99   H     H_    0.194544 0.994006 0.184407 0.393575
S8    S     S_3+6 0.257594 0.034795 0.692538 0.107083
O86   O     O_2   0.227700 0.002792 0.748164 -0.131437
O87   O     O_2   0.239402 0.072697 0.752398 -0.200418
O88   O     O_3   0.257189 0.035579 0.496827 -0.412214
H100  H     H_    0.232901 0.053636 0.467425 0.419997
F5    F     F_    0.706883 0.349769 0.017397 -0.581963
F6    F     F_    0.707087 0.649792 0.508873 -0.605469
F7    F     F_    0.206887 0.849767 0.017378 -0.581983
F8    F     F_    0.207068 0.149785 0.508970 -0.605162
F9    F     F_    0.859585 0.380428 0.996406 -0.607201
F10   F     F_    0.859699 0.619683 0.496316 -0.609457
F11   F     F_    0.359589 0.880425 0.996397 -0.607199
F12   F     F_    0.359687 0.119678 0.496333 -0.609377
F13   F     F_    0.947322 0.440714 0.389955 -0.696434
F14   F     F_    0.946789 0.558878 0.890673 -0.697265
F15   F     F_    0.447329 0.940711 0.389942 -0.696430
F16   F     F_    0.446796 0.058880 0.890661 -0.697269
S9    S     S_3+6 0.022282 0.254807 0.528165 0.010586
O89   O     O_2   0.034022 0.260805 0.359283 -0.218742
O90   O     O_2   0.043872 0.218007 0.586035 -0.219358
O91   O     O_3   0.967010 0.250733 0.543734 -0.451024
H101  H     H_    0.961686 0.246647 0.656874 0.340892
S10   S     S_3+6 0.982882 0.757990 0.074325 0.002941
O92   O     O_2   0.006862 0.792894 0.138947 -0.186159
O93   O     O_2   0.965003 0.767876 0.914458 -0.254594
O94   O     O_3   0.940694 0.746851 0.193797 -0.479162
H102  H     H_    0.918767 0.733158 0.126733 0.350223
S11   S     S_3+6 0.522286 0.754805 0.528189 0.010630
O95   O     O_2   0.534021 0.760799 0.359300 -0.218739
O96   O     O_2   0.543880 0.718007 0.586066 -0.219285
O97   O     O_3   0.467015 0.750728 0.543782 -0.450989
H103  H     H_    0.461693 0.746660 0.656938 0.340874
S12   S     S_3+6 0.482877 0.257992 0.074298 0.002960
O98   O     O_2   0.506864 0.292894 0.138907 -0.186119
O99   O     O_2   0.464981 0.267883 0.914458 -0.254576
O100  O     O_3   0.440701 0.246850 0.193818 -0.479166
H104  H     H_    0.418768 0.233157 0.126776 0.350212

loop_
_geom_bond_atom_site_label_1
_geom_bond_atom_site_label_2
_ccdc_geom_bond_type
O1    P1    D    
C51   C55   A    
C28   H56   S    
S11   O97   S    
C38   C54   A    
Ba3   O36   S    
O7    P7    S    
O70   H94   S    
O8    P8    S    
C119  F3    S    
C94   C134  S    
C94   P13   S    
C81   N1    S    
C128  S8    S    
O42   P13   D    
C14   O22   D    
O4    P4    D    
C59   N7    Am   
O5    P5    S    
C70   C110  A    
C45   H73   S    
C83   N3    S    
C90   H38   S    
C30   H46   S    
C5    C9    A    
S9    O91   S    
C7    C11   A    
C8    C12   A    
C16   N4    Am   
C66   C70   A    
C91   H79   S    
C116  O7    S    
C115  H91   S    
C43   C49   A    
O11   P11   S    
C73   C109  A    
Ba2   O14   S    
O64   P12   D    
C121  O45   S    
S2    O68   D    
C41   H41   S    
C123  O47   S    
S4    O74   D    
C124  O48   S    
S12   O99   D    
C64   N8    Am   
C44   H44   S    
C97   C133  D    
C2    H34   S    
C92   H80   S    
C87   H51   S    
C13   C17   A    
C100  C136  D    
C32   H48   S    
C28   C30   A    
C15   C19   A    
Ba1   O37   S    
C62   O30   D    
C74   C78   A    
Ba3   O39   S    
S7    O83   D    
C7    C23   A    
C74   P5    S    
O61   P9    D    
C64   O32   D    
C92   H40   S    
S5    O79   S    
C53   C57   A    
Ba3   O59   S    
C122  H14   S    
C108  N8    S    
Ba4   O40   S    
C71   C111  A    
S11   O95   D    
C126  S6    S    
Ba1   O14   S    
O34   P2    S    
C3    S11   S    
C80   C84   S    
C14   N2    Am   
C78   H58   S    
C115  C119  S    
C25   C31   A    
C55   C59   A    
C26   C32   A    
C56   C60   A    
O36   P4    S    
C16   O24   D    
C27   H55   S    
C72   P11   S    
O60   P12   S    
C25   H53   S    
O79   H97   S    
C117  H9    S    
C118  H6    S    
S6    O80   D    
C123  C127  S    
C60   N8    Am   
C124  H16   S    
S3    O71   D    
C121  C125  S    
C2    S10   S    
O12   P12   S    
C123  S3    S    
C99   C103  A    
Ba4   O60   S    
C45   C89   S    
C47   C91   S    
O91   H101  S    
O38   P13   S    
C66   H62   S    
C75   C111  A    
S4    O76   S    
C116  H92   S    
C22   C40   A    
C113  O6    S    
C114  H86   S    
C1    C129  S    
C12   O20   D    
O10   P10   S    
C97   P1    S    
C127  S7    S    
C89   H77   S    
C114  C118  S    
S1    O66   D    
C9    O17   D    
O48   P4    S    
O49   P14   S    
O2    P2    D    
C33   C61   A    
O51   P16   S    
O52   P15   S    
C46   O10   S    
C39   C55   A    
C126  H22   S    
C131  H3    S    
C62   N6    Am   
C95   C135  S    
S1    O65   D    
C12   N4    Am   
C93   C133  S    
S8    O86   D    
C17   C41   A    
O6    P6    S    
C19   C43   A    
C121  S1    S    
C20   C44   A    
C76   C112  A    
C6    C10   A    
C89   H37   S    
C46   C90   S    
Ba1   P1    S    
C91   H83   S    
C109  H65   S    
Ba2   O2    S    
C57   O25   D    
Ba1   O34   S    
C125  H21   S    
C127  H19   S    
C48   O12   S    
O37   P14   S    
C112  H68   S    
C102  F10   S    
C117  F1    S    
O39   P16   S    
S7    O84   D    
Ba4   P4    S    
C122  O46   S    
C18   C22   A    
Ba4   O16   S    
C11   N3    Am   
C135  F15   S    
C1    S9    S    
C65   C81   A    
C9    N1    Am   
C86   H50   S    
C91   H39   S    
C101  C105  A    
C85   H49   S    
O13   P6    S    
C14   C18   A    
Ba4   O35   S    
C103  C107  A    
C20   C24   A    
O67   H93   S    
S11   O96   D    
Ba2   O38   S    
C106  N6    S    
Ba1   O53   S    
C42   H42   S    
C69   P10   S    
O53   P5    D    
C58   O26   D    
C113  H89   S    
C33   C37   A    
S9    O90   D    
C96   P15   S    
O63   P11   D    
C4    H32   S    
C36   C40   A    
C41   C51   A    
C42   C52   A    
C90   H82   S    
C131  H27   S    
C87   C95   S    
Ba4   O4    S    
S8    O88   S    
C122  S2    S    
Ba3   Ba4   S    
C54   C58   A    
C79   C83   S    
S10   O92   D    
C3    H31   S    
C4    C132  S    
C76   C80   A    
O58   P10   S    
O82   H98   S    
C5    C21   A    
O45   P1    S    
C120  H8    S    
C103  F11   S    
C82   N2    S    
S2    O69   D    
C8    C24   A    
C118  H10   S    
Ba1   O57   S    
S4    O75   D    
C2    H30   S    
C122  C126  S    
C48   H76   S    
C69   C109  A    
C49   F5    S    
Ba3   O16   S    
C17   C21   A    
S2    O70   S    
C48   H72   S    
O88   H100  S    
C130  H26   S    
C65   C69   A    
S5    O78   D    
C116  H88   S    
C68   H64   S    
C63   O31   D    
O62   P10   D    
C21   C39   A    
C74   C110  A    
C1    H33   S    
S8    O87   D    
Ba1   O13   S    
C98   P2    S    
C119  H11   S    
C132  O52   S    
C123  H15   S    
C49   C53   A    
C88   C108  D    
S6    O82   S    
C78   C82   S    
C52   F8    S    
O50   P13   S    
C29   C33   A    
C104  C108  A    
C104  F12   S    
C44   C50   A    
C31   C35   A    
C128  H24   S    
C129  H25   S    
C130  H2    S    
S10   O94   S    
C73   C77   A    
C4    H36   S    
C128  H20   S    
S6    O81   D    
C67   C83   A    
C43   H43   S    
C18   C42   A    
O40   P15   S    
C105  N5    S    
C10   O18   D    
Ba2   O13   S    
C100  C104  A    
S3    O72   D    
O94   H102  S    
C47   H75   S    
Ba1   P5    S    
Ba2   P2    S    
Ba3   P7    S    
C130  O50   S    
O47   P3    S    
S12   O98   D    
C15   N3    Am   
S3    O73   S    
O100  H104  S    
O97   H103  S    
C134  F14   S    
C13   N1    Am   
C129  H1    S    
C58   N6    Am   
C126  H18   S    
C37   C53   A    
C132  H4    S    
C136  F16   S    
Ba4   P8    S    
Ba2   O33   S    
C75   C79   A    
C26   H54   S    
C40   C56   A    
C93   P14   S    
O41   P14   D    
C13   O21   D    
C95   P16   S    
O43   P16   D    
C15   O23   D    
O44   P15   D    
C52   C56   A    
C127  H23   S    
C31   H47   S    
C36   C64   A    
C45   H69   S    
C50   F6    S    
C1    H29   S    
O14   P5    S    
C29   H45   S    
C88   H52   S    
C129  O49   S    
O76   H96   S    
C65   H61   S    
C111  H67   S    
Ba2   O54   S    
C68   C72   A    
C70   P9    S    
C125  H17   S    
C114  O5    S    
C115  H87   S    
C80   H60   S    
C67   H63   S    
C113  H85   S    
C100  P4    S    
C133  F13   S    
C34   C38   A    
C46   H74   S    
C87   C107  D    
C85   C105  D    
C90   H78   S    
Ba1   Ba2   S    
C98   C134  D    
C63   N7    Am   
C6    C26   A    
C113  C117  S    
C96   C136  S    
C51   F7    S    
O55   P7    D    
C16   C20   A    
O56   P8    D    
C3    H35   S    
C27   C29   A    
C98   C102  A    
C19   C23   A    
C61   O29   D    
C71   P12   S    
C5    C25   A    
C120  F4    S    
C73   P6    S    
C120  H12   S    
C7    C27   A    
C8    C28   A    
C61   N5    Am   
C47   O11   S    
Ba2   O58   S    
S12   O100  S    
C124  C128  S    
C77   H57   S    
C68   C84   A    
C121  H13   S    
Ba3   O15   S    
C97   C101  A    
C84   N4    S    
C60   O28   D    
C34   C62   A    
C32   C36   A    
C75   P8    S    
C76   P7    S    
O33   P1    S    
C35   C39   A    
C132  H28   S    
C92   H84   S    
C107  N7    S    
C110  H66   S    
C85   C93   S    
S1    O67   S    
C115  O8    S    
C3    C131  S    
C99   C135  D    
C4    S12   S    
C23   C37   A    
O54   P6    D    
Ba3   O3    S    
C124  S4    S    
C46   H70   S    
S9    O89   D    
Ba1   O1    S    
C118  F2    S    
C101  F9    S    
C119  H7    S    
C99   P3    S    
C117  H5    S    
C86   C106  D    
C79   H59   S    
C66   C82   A    
O35   P3    S    
C10   N2    Am   
C11   O19   D    
C88   C96   S    
C50   C54   A    
S10   O93   D    
C30   C34   A    
C35   C63   A    
Ba4   O56   S    
C125  S5    S    
O3    P3    D    
O59   P11   S    
Ba4   O15   S    
C57   N5    Am   
O57   P9    S    
C2    C130  S    
C67   C71   A    
O15   P8    S    
C6    C22   A    
O16   P7    S    
C59   O27   D    
C114  H90   S    
C24   C38   A    
C72   C112  A    
C48   C92   S    
O46   P2    S    
O85   H99   S    
C77   C81   S    
O9    P9    S    
C47   H71   S    
S7    O85   S    
C102  C106  A    
O73   H95   S    
Ba2   P6    S    
Ba3   P3    S    
C89   H81   S    
C45   O9    S    
S5    O77   D    
C131  O51   S    
C86   C94   S    
C116  C120  S    
Ba3   O55   S    
