data_mof_unit_60309.cif
_audit_creation_date              2012-10-26T19:46:26-0400
_audit_creation_method            fapswitch 2.2
_symmetry_space_group_name_H-M    P1
_symmetry_Int_Tables_number       1
_space_group_crystal_system       triclinic
_cell_length_a                    10.819004
_cell_length_b                    9.670945
_cell_length_c                    15.087475
_cell_angle_alpha                 89.961107
_cell_angle_beta                  94.305541
_cell_angle_gamma                 90.354701
_cell_volume                      1574.11718868

loop_
_atom_site_label
_atom_site_type_symbol
_atom_type_description
_atom_site_fract_x
_atom_site_fract_y
_atom_site_fract_z
_atom_type_partial_charge
C1    C     C_R   0.263380 0.499446 0.508111 0.573100
C2    C     C_R   0.938145 0.626522 0.491066 0.087263
C3    C     C_R   0.935216 0.376008 0.481615 0.097798
C4    C     C_R   0.064322 0.623981 0.516558 0.081191
C5    C     C_R   0.382547 0.523651 0.091758 0.439766
C6    C     C_R   0.493677 0.374601 0.907639 0.436455
C7    C     C_R   0.480893 0.624754 0.906707 0.434914
C8    C     C_R   0.603410 0.474462 0.100729 0.436773
C9    C     C_R   0.384857 0.522536 0.184080 0.362241
C10   C     C_R   0.492660 0.373951 0.815397 0.370310
C11   C     C_R   0.481078 0.625144 0.814456 0.369644
C12   C     C_R   0.736433 0.500538 0.491390 0.573544
C13   C     C_R   0.605869 0.474593 0.193140 0.362409
C14   C     C_R   0.496745 0.499567 0.234664 -0.088915
C15   C     C_R   0.490439 0.499683 0.767604 -0.111106
C16   C     C_R   0.491840 0.499815 0.050043 -0.017777
C17   C     C_R   0.489204 0.499822 0.953317 -0.021317
C18   C     C_R   0.870894 0.501616 0.483181 0.001332
C19   C     C_R   0.128695 0.498320 0.515359 -0.017321
C20   C     C_R   0.499183 0.499947 0.330671 0.639371
C21   C     C_R   0.496952 0.499911 0.670143 0.583517
C22   C     C_R   0.421296 0.073653 0.441362 0.186992
C23   C     C_R   0.579304 0.926408 0.558263 0.225855
C24   C     C_R   0.579782 0.074460 0.557925 0.227344
C25   C     C_R   0.420890 0.925654 0.441706 0.189452
C26   C     C_R   0.061431 0.373366 0.507028 0.079128
Cu1   Cu    Cu3+1 0.500000 0.640660 0.500000 1.129537
Cu2   Cu    Cu3+1 0.500000 0.359340 0.500000 1.131020
F1    F     F_    0.273880 0.545762 0.042899 -0.484373
F2    F     F_    0.497725 0.252802 0.952620 -0.477060
F3    F     F_    0.473804 0.746449 0.950868 -0.476811
F4    F     F_    0.709468 0.451014 0.060522 -0.485917
F5    F     F_    0.277888 0.540685 0.224100 -0.523413
F6    F     F_    0.491958 0.249767 0.773648 -0.503349
F7    F     F_    0.470229 0.748455 0.771681 -0.502347
F8    F     F_    0.714241 0.451451 0.242161 -0.533172
I1    I     I_    0.296888 0.177251 0.345390 -0.041258
I2    I     I_    0.706251 0.822971 0.652508 -0.023218
I3    I     I_    0.711309 0.179073 0.648968 -0.021143
I4    I     I_    0.292291 0.821398 0.348885 -0.004375
I5    I     I_    0.133218 0.185999 0.564091 -0.110681
I6    I     I_    0.866228 0.813107 0.432960 -0.108931
I7    I     I_    0.856135 0.200509 0.412218 -0.053038
I8    I     I_    0.142851 0.799821 0.585829 -0.084907
N1    N     N_R   0.500000 0.852070 0.500000 -0.273168
N2    N     N_R   0.500000 0.147930 0.500000 -0.271620
O1    O     O_R   0.319640 0.618740 0.499990 -0.479071
O2    O     O_R   0.680360 0.381260 0.500010 -0.492241
O3    O     O_R   0.680360 0.618740 0.500010 -0.495600
O4    O     O_R   0.319640 0.381260 0.499990 -0.482357
O5    O     O_R   0.499990 0.618780 0.371460 -0.478210
O6    O     O_R   0.500010 0.381220 0.628540 -0.441159
O7    O     O_R   0.500010 0.618780 0.628540 -0.441452
O8    O     O_R   0.499990 0.381220 0.371460 -0.473649

loop_
_geom_bond_atom_site_label_1
_geom_bond_atom_site_label_2
_ccdc_geom_bond_type
C13   F8    S    
C6    C10   A    
C2    C4    A    
C23   C24   A    
Cu1   O7    S    
C5    C9    A    
C8    C13   A    
C23   N1    A    
C25   N1    A    
C2    C18   A    
C23   I2    S    
C1    O4    A    
C12   O2    A    
C9    C14   A    
C24   N2    A    
Cu1   N1    S    
C11   F7    S    
C12   O3    A    
C9    F5    S    
C10   F6    S    
C13   C14   A    
C7    C11   A    
Cu2   O6    S    
C3    I7    S    
Cu2   O4    S    
C2    I6    S    
C21   O7    A    
C6    F2    S    
Cu1   O5    S    
C20   O5    A    
C5    F1    S    
C10   C15   A    
C3    C26   A    
C25   I4    S    
C1    C19   S    
C7    F3    S    
Cu1   O1    S    
C8    F4    S    
C14   C20   S    
C15   C21   S    
C24   I3    S    
C22   I1    S    
C3    C18   A    
C20   O8    A    
C8    C16   A    
C12   C18   S    
Cu1   Cu2   S    
C19   C26   A    
C6    C17   A    
Cu2   N2    S    
C1    O1    A    
C5    C16   A    
Cu2   O8    S    
C4    I8    S    
C22   N2    A    
C4    C19   A    
C11   C15   A    
C21   O6    A    
Cu2   O2    S    
Cu1   O3    S    
C26   I5    S    
C16   C17   S    
C7    C17   A    
C22   C25   A    
