data_mof_unit_11304.cif
_audit_creation_date              2012-12-10T19:01:23-0500
_audit_creation_method            fapswitch 2.2
_symmetry_space_group_name_H-M    P1
_symmetry_Int_Tables_number       1
_space_group_crystal_system       triclinic
_cell_length_a                    9.5908
_cell_length_b                    10.829521
_cell_length_c                    15.454797
_cell_angle_alpha                 88.456104
_cell_angle_beta                  74.517285
_cell_angle_gamma                 89.220545
_cell_volume                      1546.34684072

loop_
_atom_site_label
_atom_site_type_symbol
_atom_type_description
_atom_site_fract_x
_atom_site_fract_y
_atom_site_fract_z
_atom_type_partial_charge
C1    C     C_R   0.001202 0.262344 0.498272 0.790847
C2    C     C_R   0.668846 0.478024 0.906477 0.089387
C3    C     C_R   0.767740 0.439587 0.955746 0.160672
C4    C     C_R   0.518297 0.489309 0.951046 0.069009
C5    C     C_R   0.469715 0.464251 0.045402 0.059275
C6    C     C_R   0.572665 0.425260 0.091430 -0.181061
C7    C     C_R   0.718293 0.413372 0.047322 -0.238246
C8    C     C_R   0.414763 0.525341 0.904590 -0.219066
C9    C     C_R   0.270983 0.544998 0.949532 -0.237798
C10   C     C_R   0.223515 0.527574 0.042078 0.162049
C11   C     C_R   0.320644 0.483181 0.090913 0.079522
C12   C     C_R   0.918246 0.498455 0.672188 0.780608
C13   C     C_R   0.079494 0.555919 0.086504 -0.209834
C14   C     C_R   0.031486 0.545064 0.179565 -0.192971
C15   C     C_R   0.265338 0.463781 0.184233 -0.187337
C16   C     C_R   0.132711 0.062044 0.477484 0.126646
C17   C     C_R   0.004265 0.129302 0.488606 -0.174301
C18   C     C_R   0.878346 0.066377 0.485004 -0.179735
C19   C     C_R   0.877809 0.937632 0.484148 -0.207388
C20   C     C_R   0.003170 0.870772 0.486925 -0.093524
C21   C     C_R   0.132119 0.934836 0.476584 0.027859
C22   C     C_3   0.243330 0.922300 0.527898 -0.513178
C23   C     C_R   0.000308 0.737526 0.497401 0.806720
C24   C     C_3   0.242558 0.062207 0.530036 0.456079
C25   C     C_R   0.590655 0.592700 0.457244 0.133673
C26   C     C_R   0.554766 0.421008 0.553609 -0.035638
C27   C     C_R   0.405654 0.421927 0.556017 0.315283
C28   C     C_R   0.444510 0.591787 0.456111 0.104201
C29   C     C_3   0.483953 0.628368 0.358796 0.441723
C30   C     C_3   0.641036 0.631272 0.361124 -0.506656
C31   C     C_R   0.081372 0.499063 0.327841 0.804568
C32   C     C_R   0.871653 0.487471 0.770760 -0.045030
C33   C     C_R   0.125034 0.500834 0.229097 -0.061615
C34   C     C_R   0.915867 0.427333 0.912810 -0.209601
C35   C     C_R   0.967537 0.451013 0.820836 -0.208889
C36   C     C_R   0.724836 0.504124 0.814118 -0.245015
Cu1   Cu    Cu3+1 0.140670 0.499980 0.500000 0.995140
Cu2   Cu    Cu3+1 0.859330 0.500020 0.500000 0.949561
H1    H     H_    0.793138 0.383907 0.085556 0.158057
H2    H     H_    0.005310 0.590868 0.049491 0.147615
H3    H     H_    0.778259 0.115594 0.487693 0.192960
H4    H     H_    0.777574 0.891078 0.486464 0.170718
H5    H     H_    0.200470 0.877737 0.595309 0.158348
H6    H     H_    0.346530 0.882528 0.486769 0.212620
H7    H     H_    0.200585 0.099459 0.598408 0.046255
H8    H     H_    0.595653 0.356532 0.595903 0.141132
H9    H     H_    0.328630 0.420330 0.224264 0.208132
H10   H     H_    0.438895 0.719516 0.344758 0.075262
H11   H     H_    0.708460 0.559151 0.319735 0.235113
H12   H     H_    0.687565 0.725678 0.352074 0.148430
H13   H     H_    0.922612 0.574083 0.212555 0.153387
H14   H     H_    0.196630 0.576119 0.911424 0.147913
H15   H     H_    0.991492 0.397202 0.950220 0.144518
H16   H     H_    0.081384 0.437851 0.788791 0.151766
H17   H     H_    0.656535 0.536807 0.773403 0.149131
H18   H     H_    0.545313 0.403682 0.162202 0.203462
H19   H     H_    0.440260 0.540663 0.833078 0.138493
N1    N     N_R   0.648210 0.500930 0.499430 -0.185514
N2    N     N_R   0.352300 0.500890 0.499430 -0.158335
O1    O     O_R   0.118810 0.319640 0.500000 -0.560360
O2    O     O_R   0.881230 0.319680 0.499990 -0.581565
O3    O     O_R   0.055580 0.499970 0.629840 -0.598212
O4    O     O_R   0.818000 0.500010 0.629830 -0.589951
O5    O     O_R   0.118770 0.680320 0.500010 -0.587525
O6    O     O_R   0.881190 0.680360 0.500000 -0.583607
O7    O     O_R   0.182000 0.499990 0.370170 -0.511374
O8    O     O_R   0.944420 0.500030 0.370160 -0.587670
F1    F     F_    0.372028 0.112578 0.480298 -0.645516
C37   C     C_3   0.313679 0.338429 0.627218 -0.805566
H20   H     H_    0.201954 0.328014 0.624721 0.267743
H21   H     H_    0.363269 0.244912 0.622754 0.228879
H22   H     H_    0.312015 0.374224 0.694111 0.175677
F2    F     F_    0.461664 0.534753 0.305494 -0.666357

loop_
_geom_bond_atom_site_label_1
_geom_bond_atom_site_label_2
_ccdc_geom_bond_type
C8    C9    A    
C31   O7    A    
C16   C21   A    
C19   C20   A    
C15   H9    S    
C4    C8    A    
C14   C33   A    
Cu1   O3    S    
C25   C28   A    
C31   O8    A    
C26   C27   A    
Cu1   Cu2   S    
C24   H7    S    
C32   C36   A    
C28   C29   S    
C5    C11   A    
C3    C7    A    
C5    C6    A    
C29   F2    S    
C34   C35   A    
C37   H21   S    
C13   H2    S    
Cu2   N1    S    
C11   C15   A    
C22   H6    S    
C22   H5    S    
C16   C17   A    
C31   C33   S    
C9    C10   A    
C27   C37   S    
C19   H4    S    
Cu2   O2    S    
C30   H12   S    
C16   C24   S    
C13   C14   A    
C12   C32   S    
C35   H16   S    
C9    H14   S    
C29   H10   S    
C32   C35   A    
C18   H3    S    
C12   O4    A    
C24   F1    S    
C18   C19   A    
C3    C34   A    
C20   C23   S    
C37   H22   S    
C2    C4    A    
C29   C30   S    
C8    H19   S    
C12   O3    A    
C14   H13   S    
Cu2   O6    S    
Cu1   O7    S    
C17   C18   A    
C20   C21   A    
C26   N1    A    
Cu1   N2    S    
C23   O5    A    
C30   H11   S    
C22   C24   S    
C1    O1    A    
C25   N1    A    
Cu1   O5    S    
Cu2   O4    S    
C28   N2    A    
C2    C36   A    
C25   C30   S    
C6    H18   S    
C4    C5    A    
C10   C13   A    
C1    O2    A    
C6    C7    A    
C1    C17   S    
C23   O6    A    
C2    C3    A    
C36   H17   S    
C27   N2    A    
C37   H20   S    
Cu1   O1    S    
C10   C11   A    
C26   H8    S    
Cu2   O8    S    
C34   H15   S    
C7    H1    S    
C21   C22   S    
C15   C33   A    
