data_mof_unit_8755.cif
_audit_creation_date              2012-12-11T18:07:23-0500
_audit_creation_method            fapswitch 2.2
_symmetry_space_group_name_H-M    P1
_symmetry_Int_Tables_number       1
_space_group_crystal_system       triclinic
_cell_length_a                    8.311469
_cell_length_b                    12.720216
_cell_length_c                    26.980352
_cell_angle_alpha                 96.767406
_cell_angle_beta                  93.314921
_cell_angle_gamma                 80.581781
_cell_volume                      2792.24201929

loop_
_atom_site_label
_atom_site_type_symbol
_atom_type_description
_atom_site_fract_x
_atom_site_fract_y
_atom_site_fract_z
_atom_type_partial_charge
Ba1   Ba    Ba6+2 0.859560 0.448380 0.523550 1.651519
Ba2   Ba    Ba6+2 0.330270 0.551530 0.476440 1.657428
C1    C     C_3   0.816752 0.096232 0.701285 -0.357907
C2    C     C_R   0.963202 0.612297 0.184755 0.592615
C3    C     C_2   0.766612 0.584052 0.273303 -0.104489
C4    C     C_3   0.250547 0.159936 0.655627 0.471564
C5    C     C_3   0.736061 0.612890 0.328423 -0.078654
C6    C     C_1   0.987246 0.487617 0.344695 0.046294
C7    C     C_2   0.027122 0.477342 0.296974 -0.085325
C8    C     C_2   0.910643 0.526350 0.258240 0.217923
C9    C     C_R   0.029927 0.508776 0.104312 -0.079863
C10   C     C_R   0.027104 0.414369 0.126727 -0.036145
C11   C     C_R   0.060343 0.315440 0.097459 -0.059293
C12   C     C_3   0.720567 0.183420 0.672515 0.315924
C13   C     C_R   0.997889 0.608285 0.133749 -0.028393
C14   C     C_2   0.855331 0.550020 0.362329 -0.264986
C15   C     C_2   0.348695 0.476899 0.641837 -0.185926
C16   C     C_3   0.335529 0.059349 0.677900 -0.361685
C17   C     C_R   0.141529 0.397688 0.972278 0.019841
C18   C     C_R   0.092539 0.595180 0.978136 0.020086
C19   C     C_R   0.134276 0.494015 0.949593 0.050010
C20   C     C_R   0.189507 0.299326 0.942568 -0.100436
C21   C     C_R   0.225749 0.295636 0.892559 -0.062457
C22   C     C_R   0.215840 0.389662 0.869458 -0.033635
C23   C     C_3   0.497081 0.720492 0.629271 0.317457
C24   C     C_R   0.169515 0.489091 0.897796 -0.079209
C25   C     C_R   0.158924 0.583516 0.874356 -0.032332
C26   C     C_R   0.194726 0.577302 0.823130 0.588223
C27   C     C_R   0.252292 0.385714 0.818577 0.590508
C28   C     C_3   0.190337 0.204863 0.404286 0.416002
C29   C     C_2   0.425079 0.417227 0.726278 -0.045996
C30   C     C_3   0.451289 0.394455 0.670590 -0.077558
C31   C     C_1   0.205649 0.524069 0.658099 0.026252
C32   C     C_2   0.163222 0.525974 0.705250 -0.114349
C33   C     C_2   0.281431 0.473261 0.742975 0.231519
C34   C     C_3   0.534541 0.747558 0.684959 -0.142826
C35   C     C_R   0.101838 0.402586 0.023589 0.020100
C36   C     C_R   0.065125 0.503768 0.052516 0.050160
C37   C     C_R   0.063238 0.600061 0.030247 0.019426
C38   C     C_R   0.096813 0.309482 0.047271 -0.099020
C39   C     C_R   0.001579 0.702173 0.111712 -0.061049
C40   C     C_3   0.094157 0.112201 0.394979 -0.354139
C41   C     C_R   0.080733 0.688314 0.953168 -0.100674
C42   C     C_R   0.113084 0.682421 0.902663 -0.062468
C43   C     C_R   0.033136 0.698387 0.061325 -0.101087
C44   C     C_R   0.756730 0.819567 0.479656 -0.281845
C45   C     C_3   0.936069 0.809241 0.343700 0.329230
C46   C     C_R   0.429683 0.189882 0.519749 -0.103128
C47   C     C_R   0.407733 0.009583 0.534529 -0.145528
C48   C     C_R   0.344469 0.117439 0.537643 0.003524
C49   C     C_R   0.574983 0.153309 0.494323 0.085628
C50   C     C_R   0.637747 0.041358 0.488971 -0.078550
C51   C     C_R   0.553528 0.969506 0.510162 -0.055965
C52   C     C_3   0.977479 0.776775 0.581060 0.284437
C53   C     C_R   0.615466 0.858735 0.505497 0.064114
C54   C     C_R   0.845018 0.889204 0.461367 -0.003598
C55   C     C_R   0.782430 0.998499 0.463756 -0.097681
C56   C     C_3   0.858576 0.875410 0.301988 -0.092518
C57   C     C_3   0.941189 0.897410 0.594838 -0.382889
C58   C     C_3   0.700983 0.315703 0.377225 0.293646
C59   C     C_3   0.716201 0.289450 0.321042 -0.340307
C60   C     C_3   0.426737 0.816177 0.336471 0.347678
C61   C     C_3   0.359426 0.894915 0.299339 -0.335964
C62   C     C_R   0.989161 0.420865 0.177793 0.595846
H1    H     H_    0.711300 0.152419 0.632274 0.020214
H2    H     H_    0.817362 0.337594 0.393771 -0.001762
H3    H     H_    0.602156 0.384526 0.384706 0.103632
H4    H     H_    0.749508 0.027144 0.699145 0.070772
H5    H     H_    0.819474 0.223467 0.312821 0.128577
H6    H     H_    0.738712 0.360820 0.304205 0.081157
H7    H     H_    0.597258 0.201980 0.688094 -0.022145
H8    H     H_    0.833285 0.127521 0.741141 0.125112
H9    H     H_    0.364576 0.717869 0.622772 0.009959
H10   H     H_    0.568986 0.640953 0.617060 0.071533
H11   H     H_    0.478809 0.831597 0.697206 0.099081
H12   H     H_    0.126394 0.063730 0.358955 0.118350
H13   H     H_    0.669122 0.740637 0.691457 0.131011
H14   H     H_    0.937971 0.068110 0.685276 0.142669
H15   H     H_    0.427290 0.080002 0.707426 0.109133
H16   H     H_    0.001163 0.731491 0.326435 0.069944
H17   H     H_    0.834531 0.793114 0.365253 -0.087025
H18   H     H_    0.953709 0.888775 0.277258 0.136011
H19   H     H_    0.773420 0.829406 0.278805 0.118945
H20   H     H_    0.560723 0.814094 0.339267 -0.082430
H21   H     H_    0.376366 0.845722 0.373709 0.077534
H22   H     H_    0.394303 0.974531 0.311986 0.069876
H23   H     H_    0.120800 0.060959 0.425792 0.114184
H24   H     H_    0.224750 0.903265 0.296113 0.133715
H25   H     H_    0.410106 0.866123 0.262084 0.124431
H26   H     H_    0.145724 0.434693 0.285726 0.115264
H27   H     H_    0.058026 0.241332 0.113322 0.120795
H28   H     H_    0.514273 0.378350 0.752034 0.090836
H29   H     H_    0.262072 0.217776 0.871894 0.119956
H30   H     H_    0.202989 0.222822 0.956927 0.067731
H31   H     H_    0.118173 0.229847 0.027904 0.066975
H32   H     H_    0.680691 0.621610 0.246310 0.091445
H33   H     H_    0.979228 0.779978 0.133481 0.120407
H34   H     H_    0.962790 0.144083 0.393431 0.119189
H35   H     H_    0.044189 0.767906 0.971383 0.067200
H36   H     H_    0.345405 0.192390 0.637145 -0.069822
H37   H     H_    0.102121 0.756594 0.885786 0.119299
H38   H     H_    0.035358 0.774734 0.048138 0.068308
H39   H     H_    0.842781 0.571032 0.402230 0.081943
H40   H     H_    0.396574 0.499554 0.608722 0.035908
H41   H     H_    0.338324 0.958217 0.550459 0.107550
H42   H     H_    0.849621 0.048392 0.446531 0.099282
H43   H     H_    0.804440 0.734730 0.476766 0.055879
H44   H     H_    0.245396 0.019741 0.694583 0.115614
H45   H     H_    0.864500 0.746975 0.566637 0.010491
H46   H     H_    0.398302 0.002108 0.648181 0.093610
H47   H     H_    0.164550 0.243365 0.442529 0.041050
H48   H     H_    0.601635 0.264555 0.303923 0.140913
H49   H     H_    0.346020 0.698290 0.715890 0.199693
H50   H     H_    0.520002 0.685952 0.750621 0.208204
H51   H     H_    0.849418 0.027863 0.336853 0.203595
H52   H     H_    0.693833 0.967820 0.350247 0.169520
H53   H     H_    0.121436 0.306179 0.678781 0.190221
H54   H     H_    0.101822 0.210437 0.714861 0.224929
H55   H     H_    0.044107 0.566915 0.716858 0.116568
H56   H     H_    0.069912 0.759299 0.551976 0.072099
H57   H     H_    0.436268 0.346578 0.547303 0.196779
H58   H     H_    0.322865 0.329415 0.491801 0.199956
H59   H     H_    0.389162 0.145618 0.361773 0.206451
H60   H     H_    0.393200 0.091760 0.415527 0.110538
H61   H     H_    0.837687 0.917206 0.620264 0.116630
H62   H     H_    0.908426 0.939067 0.561108 0.093416
H63   H     H_    0.050637 0.926489 0.613589 0.142180
N1    N     N_R   0.955677 0.519373 0.206166 -0.422542
N2    N     N_R   0.241591 0.478971 0.795614 -0.424250
N3    N     N_3   0.472236 0.674513 0.714029 -0.511493
N4    N     N_3   0.766814 0.978527 0.321537 -0.494186
N5    N     N_3   0.185875 0.240848 0.695394 -0.448829
N6    N     N_3   0.360285 0.300775 0.525841 -0.470899
N7    N     N_3   0.363939 0.163912 0.399635 -0.492238
O1    O     O_2   0.907040 0.557650 0.617910 -0.445971
O2    O     O_2   0.185124 0.884449 0.463040 -0.493448
O3    O     O_3   0.049844 0.862594 0.373181 -0.615191
O4    O     O_3   0.139040 0.557570 0.557730 -0.497040
O5    O     O_3   0.571310 0.369620 0.475470 -0.495731
O6    O     O_2   0.348200 0.764910 0.523260 -0.471189
O7    O     O_3   0.540615 0.801263 0.604119 -0.674995
O8    O     O_2   0.461727 0.510592 0.327145 -0.487781
O9    O     O_3   0.382245 0.715397 0.319817 -0.569112
O10   O     O_2   0.984118 0.338866 0.196737 -0.592609
O11   O     O_2   0.292897 0.298640 0.794676 -0.600177
O12   O     O_3   0.665000 0.225717 0.397019 -0.631112
O13   O     O_2   0.940749 0.698905 0.210255 -0.628457
O14   O     O_2   0.186486 0.659717 0.803339 -0.608700
O15   O     O_3   0.684960 0.360550 0.588460 -0.483476
O16   O     O_2   0.739778 0.481405 0.673538 -0.464554
O17   O     O_3   0.035296 0.729296 0.624035 -0.634124
O18   O     O_3   0.799050 0.274333 0.678693 -0.577615
O19   O     O_2   0.841490 0.235060 0.476710 -0.473246
O20   O     O_3   0.099640 0.305100 0.564190 -0.442377
O21   O     O_2   0.009648 0.115989 0.531357 -0.484843
O22   O     O_3   0.120432 0.132706 0.623368 -0.602323
O23   O     O_2   0.282660 0.442310 0.382060 -0.443682
O24   O     O_3   0.050670 0.442340 0.442260 -0.510874
O25   O     O_3   0.504750 0.639360 0.411530 -0.472678
O26   O     O_3   0.140329 0.273300 0.367461 -0.630496
O27   O     O_3   0.618400 0.630290 0.524520 -0.477480
O28   O     O_3   0.090070 0.694820 0.435810 -0.472673
P1    P     P_3+3 0.072810 0.589830 0.610360 0.987256
P2    P     P_3+3 0.661990 0.251250 0.462170 0.983767
P3    P     P_3+3 0.143192 0.165944 0.563473 0.991235
P4    P     P_3+3 0.116900 0.410080 0.389630 0.988283
P5    P     P_3+3 0.044272 0.833905 0.434897 0.953281
P6    P     P_3+3 0.668871 0.378924 0.653507 0.971497
P7    P     P_3+3 0.532500 0.764504 0.539586 0.931568
P8    P     P_3+3 0.521513 0.617304 0.346436 0.967341

loop_
_geom_bond_atom_site_label_1
_geom_bond_atom_site_label_2
_ccdc_geom_bond_type
C59   H6    S    
C19   C24   A    
O6    P7    D    
O25   P8    S    
C52   H56   S    
C61   H24   S    
C20   H30   S    
C12   H7    S    
C1    H4    S    
C60   O9    S    
Ba2   O28   S    
H51   N4    S    
Ba2   P4    S    
C57   H62   S    
C28   O26   S    
C24   C25   A    
C60   C61   S    
C15   C31   D    
Ba2   O5    S    
C26   N2    Am   
O5    P2    S    
C17   C19   A    
C15   H40   S    
C41   H35   S    
C32   C33   S    
C35   C38   A    
C34   H13   S    
C40   H34   S    
C27   O11   D    
C36   C37   A    
C10   C62   A    
C57   H63   S    
C54   C55   A    
Ba1   Ba2   S    
H53   N5    S    
C22   C27   A    
C11   C38   A    
C17   C35   A    
C9    C13   A    
C25   C42   A    
C46   C49   A    
C27   N2    Am   
Ba1   P2    S    
C6    C7    D    
C62   N1    Am   
C44   C53   A    
C21   C22   A    
O20   P3    S    
Ba1   O15   S    
O4    P1    S    
C42   H37   S    
O26   P4    S    
C7    C8    S    
C33   N2    S    
C23   H9    S    
Ba1   O5    S    
C37   C43   A    
O27   P7    S    
C46   C48   A    
C55   H42   S    
C58   H2    S    
C6    C14   D    
C11   H27   S    
H50   N3    S    
C45   O3    S    
O15   P6    S    
C58   O12   S    
C45   H16   S    
C8    N1    S    
Ba2   O27   S    
O18   P6    S    
C52   C57   S    
C51   C53   A    
C4    C16   S    
C60   H21   S    
C26   O14   D    
H49   N3    S    
C2    N1    Am   
H59   N7    S    
C49   C50   A    
Ba2   O4    S    
C46   N6    S    
C17   C20   A    
C58   H3    S    
C4    N5    S    
C50   C55   A    
C3    C5    S    
C18   C37   A    
C16   H15   S    
C47   H41   S    
O19   P2    D    
C28   N7    S    
C2    O13   D    
O12   P2    S    
C21   H29   S    
C52   H45   S    
C58   C59   S    
C4    H36   S    
O23   P4    D    
C9    C36   A    
C41   C42   A    
H58   N6    S    
C35   C36   A    
C34   H11   S    
C34   N3    S    
C14   H39   S    
C29   C30   S    
C56   N4    S    
Ba2   O24   S    
O16   P6    D    
C44   H43   S    
C61   H25   S    
C48   P3    S    
O7    P7    S    
C31   C32   D    
C49   P2    S    
C18   C19   A    
Ba1   O19   S    
C13   C39   A    
C1    C12   S    
C6    P4    S    
C5    C14   S    
C29   H28   S    
O17   P1    S    
C30   P6    S    
C61   H22   S    
C29   C33   D    
Ba2   O25   S    
C38   H31   S    
C12   O18   S    
O3    P5    S    
C3    H32   S    
C50   C51   A    
O24   P4    S    
C59   H5    S    
C32   H55   S    
C60   H20   S    
Ba1   O24   S    
C31   P1    S    
O1    P1    D    
C23   O7    S    
C16   H46   S    
O9    P8    S    
C22   C24   A    
C7    H26   S    
C9    C10   A    
C52   O17   S    
O2    P5    D    
C57   H61   S    
C62   O10   D    
C40   H12   S    
H60   N7    S    
C28   H47   S    
C23   H10   S    
Ba2   O6    S    
C2    C13   A    
C56   H18   S    
C1    H8    S    
C3    C8    D    
C56   H19   S    
C45   C56   S    
C59   H48   S    
H52   N4    S    
O22   P3    S    
O21   P3    D    
Ba2   O23   S    
C47   C51   A    
C54   P5    S    
C12   H1    S    
C39   H33   S    
C45   H17   S    
Ba1   O20   S    
C16   H44   S    
C18   C41   A    
H54   N5    S    
C43   H38   S    
C23   C34   S    
Ba1   O27   S    
O28   P5    S    
C10   C11   A    
Ba1   P1    S    
C47   C48   A    
C5    P8    S    
C44   C54   A    
C25   C26   A    
C15   C30   S    
C39   C43   A    
C20   C21   A    
C28   C40   S    
C40   H23   S    
H57   N6    S    
Ba1   O1    S    
C1    H14   S    
C53   P7    S    
C4    O22   S    
Ba1   O4    S    
O8    P8    D    
