data_mof_unit_18577.cif
_audit_creation_date              2012-12-10T19:15:18-0500
_audit_creation_method            fapswitch 2.2
_symmetry_space_group_name_H-M    P1
_symmetry_Int_Tables_number       1
_space_group_crystal_system       triclinic
_cell_length_a                    10.626576
_cell_length_b                    9.682644
_cell_length_c                    23.417729
_cell_angle_alpha                 90.026244
_cell_angle_beta                  90.080826
_cell_angle_gamma                 90.04833
_cell_volume                      2409.52513236

loop_
_atom_site_label
_atom_site_type_symbol
_atom_type_description
_atom_site_fract_x
_atom_site_fract_y
_atom_site_fract_z
_atom_type_partial_charge
C1    C     C_R   0.257582 0.499683 0.500208 0.900076
C2    C     C_R   0.296096 0.558692 0.970311 -0.158620
C3    C     C_R   0.296284 0.558796 0.029725 -0.159630
C4    C     C_R   0.407453 0.530274 0.059906 -0.015344
C5    C     C_R   0.519359 0.501320 0.030016 -0.022080
C6    C     C_R   0.631375 0.472337 0.059973 -0.013300
C7    C     C_R   0.742356 0.443747 0.029760 -0.159563
C8    C     C_R   0.742179 0.443725 0.970293 -0.158940
C9    C     C_R   0.409873 0.529538 0.119487 0.503811
C10   C     C_R   0.629054 0.472969 0.119623 0.500403
C11   C     C_R   0.512209 0.626110 0.237998 -0.106068
C12   C     C_R   0.501285 0.500002 0.389197 0.899342
C13   C     C_R   0.506337 0.625917 0.297171 -0.250408
C14   C     C_R   0.506816 0.500202 0.327026 -0.040636
C15   C     C_R   0.514654 0.374927 0.297032 -0.216186
C16   C     C_R   0.520689 0.375545 0.237831 -0.106364
C17   C     C_R   0.518872 0.501021 0.208442 0.324330
C18   C     C_R   0.507714 0.625910 0.762091 -0.099202
C19   C     C_R   0.502241 0.625759 0.702896 -0.200852
C20   C     C_R   0.506512 0.500251 0.672930 -0.034708
C21   C     C_R   0.517590 0.375174 0.702817 -0.247201
C22   C     C_R   0.523209 0.375745 0.762034 -0.103429
C23   C     C_R   0.742415 0.499779 0.500265 0.953378
C24   C     C_R   0.517745 0.500986 0.791561 0.322356
C25   C     C_3   0.071907 0.572329 0.445957 -0.462192
C26   C     C_3   0.074063 0.573975 0.555091 -0.483399
C27   C     C_3   0.926439 0.570594 0.444594 0.338875
C28   C     C_3   0.929736 0.584872 0.552304 0.343311
C29   C     C_3   0.071750 0.347961 0.501303 -0.413179
C30   C     C_3   0.121319 0.498835 0.500629 0.048727
C31   C     C_3   0.878375 0.498978 0.500194 -0.034232
C32   C     C_3   0.929190 0.347461 0.499899 -0.386784
C33   C     C_3   0.517315 0.081292 0.440396 -0.229061
C34   C     C_3   0.517282 0.918604 0.440393 -0.236426
C35   C     C_3   0.602420 0.081435 0.534909 -0.241811
C36   C     C_3   0.602420 0.918812 0.534911 -0.219300
C37   C     C_3   0.379651 0.081200 0.521053 -0.233812
C38   C     C_3   0.379663 0.918611 0.521076 -0.235685
C39   C     C_R   0.501285 0.500041 0.610757 0.895628
C40   C     C_R   0.628363 0.472897 0.880427 0.503693
C41   C     C_R   0.409129 0.529209 0.880549 0.502290
C42   C     C_R   0.407083 0.530100 0.940132 -0.014651
C43   C     C_R   0.519176 0.501258 0.970027 -0.022058
C44   C     C_R   0.631013 0.472267 0.940076 -0.014620
H1    H     H_    0.208891 0.581026 0.948174 0.194270
H2    H     H_    0.494150 0.723515 0.680725 0.150320
H3    H     H_    0.521803 0.277202 0.680560 0.151428
H4    H     H_    0.530581 0.279150 0.785087 0.139647
H5    H     H_    0.110363 0.520445 0.407286 0.204736
H6    H     H_    0.106322 0.518587 0.593946 0.189558
H7    H     H_    0.105239 0.681356 0.445019 0.133967
H8    H     H_    0.115014 0.679769 0.557705 0.155810
H9    H     H_    0.892609 0.680130 0.444921 0.042031
H10   H     H_    0.911195 0.695005 0.541400 0.087422
H11   H     H_    0.107580 0.289964 0.463573 0.189590
H12   H     H_    0.104827 0.293249 0.540375 0.169822
H13   H     H_    0.897424 0.292739 0.460596 0.223802
H14   H     H_    0.892702 0.284043 0.535526 0.150496
H15   H     H_    0.607278 0.119998 0.422129 0.150518
H16   H     H_    0.607197 0.879944 0.422097 0.139246
H17   H     H_    0.209220 0.581200 0.051861 0.193647
H18   H     H_    0.441022 0.119122 0.411852 0.145883
H19   H     H_    0.440916 0.880638 0.411876 0.147288
H20   H     H_    0.694989 0.119272 0.519311 0.142658
H21   H     H_    0.695013 0.880999 0.519343 0.144281
H22   H     H_    0.362861 0.120202 0.565081 0.146147
H23   H     H_    0.362986 0.879770 0.565129 0.145668
H24   H     H_    0.299696 0.118518 0.494575 0.144469
H25   H     H_    0.299627 0.880951 0.494658 0.146515
H26   H     H_    0.592672 0.120100 0.579414 0.143372
H27   H     H_    0.592589 0.880289 0.579422 0.155097
H28   H     H_    0.829517 0.421327 0.051916 0.193734
H29   H     H_    0.829214 0.421293 0.948140 0.193913
H30   H     H_    0.510759 0.723082 0.214982 0.137898
H31   H     H_    0.501077 0.723841 0.319400 0.149730
H32   H     H_    0.515887 0.276762 0.319176 0.149508
H33   H     H_    0.525430 0.278849 0.214678 0.137711
H34   H     H_    0.503456 0.722715 0.785188 0.137637
N1    N     N_R   0.518602 0.501108 0.852274 -0.360135
N2    N     N_R   0.519476 0.501302 0.147751 -0.359806
N3    N     N_3   0.499750 0.138610 0.498760 -0.032884
N4    N     N_3   0.499750 0.861390 0.498760 -0.035954
O1    O     O_R   0.314910 0.616040 0.499990 -0.635037
O2    O     O_R   0.314910 0.383960 0.499990 -0.637359
O3    O     O_R   0.500080 0.616070 0.416130 -0.636056
O4    O     O_R   0.500080 0.383930 0.416130 -0.625482
O5    O     O_R   0.685320 0.616040 0.499970 -0.644196
O6    O     O_R   0.685320 0.383960 0.499970 -0.634066
O7    O     O_R   0.500150 0.616010 0.583820 -0.620972
O8    O     O_R   0.500150 0.383990 0.583820 -0.639365
O9    O     O_2   0.734325 0.446397 0.850666 -0.554340
O10   O     O_2   0.302702 0.555302 0.850920 -0.551442
O11   O     O_2   0.303700 0.555950 0.149128 -0.552800
O12   O     O_2   0.735108 0.446265 0.149410 -0.558802
Zn1   Zn    Zn3+2 0.500150 0.654960 0.499970 0.914933
Zn2   Zn    Zn3+2 0.500150 0.345040 0.499970 0.910399
O13   O     O_3   0.882780 0.497224 0.395789 -0.602291
C45   C     C_3   0.856480 0.588806 0.350500 -0.284270
H35   H     H_    0.940291 0.652449 0.339574 0.163902
H36   H     H_    0.774998 0.656081 0.361156 0.152499
H37   H     H_    0.830588 0.527479 0.312213 0.219946
O14   O     O_3   0.868205 0.569344 0.606028 -0.596603
C46   C     C_3   0.865984 0.433307 0.627422 -0.255367
H38   H     H_    0.955346 0.376460 0.621020 0.148240
H39   H     H_    0.784741 0.375981 0.609375 0.153994
H40   H     H_    0.850398 0.438667 0.674192 0.209016

loop_
_geom_bond_atom_site_label_1
_geom_bond_atom_site_label_2
_ccdc_geom_bond_type
C22   H4    S    
O6    Zn2   S    
C11   C13   A    
C41   C42   A    
C19   C20   A    
C32   H14   S    
O13   C45   S    
C35   N3    S    
C19   H2    S    
C7    C8    A    
C1    O2    A    
C29   C30   S    
C12   O3    A    
C18   C24   A    
C18   C19   A    
C29   C32   S    
C26   H6    S    
C5    C6    A    
C10   O12   S    
C15   C16   A    
C37   H24   S    
C16   H33   S    
O2    Zn2   S    
C34   H19   S    
C11   C17   A    
C13   H31   S    
C35   H26   S    
C36   N4    S    
C16   C17   A    
O5    Zn1   S    
C35   H20   S    
C39   O8    A    
C36   H27   S    
C15   H32   S    
C5    C43   A    
C38   H25   S    
C33   H15   S    
C23   O5    A    
C21   C22   A    
C38   N4    S    
C34   H16   S    
C37   N3    S    
C32   H13   S    
C8    H29   S    
C3    H17   S    
C2    H1    S    
C27   C31   S    
C9    N2    A    
C7    H28   S    
N3    Zn2   S    
C10   N2    A    
C36   H21   S    
C33   H18   S    
C29   H11   S    
C17   N2    S    
C35   C36   S    
C23   C31   S    
O7    Zn1   S    
C43   C44   A    
C25   H7    S    
C41   N1    A    
C37   C38   S    
C26   H8    S    
C24   N1    S    
C31   C32   S    
C18   H34   S    
O1    Zn1   S    
C37   H22   S    
C33   C34   S    
C40   N1    A    
C46   H39   S    
C20   C21   A    
O4    Zn2   S    
C12   C14   S    
C26   C30   S    
C45   H36   S    
C23   O6    A    
C22   C24   A    
C25   C27   S    
C42   C43   A    
C3    C4    A    
C9    O11   S    
C25   C30   S    
C20   C39   S    
C27   O13   S    
C28   H10   S    
N4    Zn1   S    
C28   C31   S    
C8    C44   A    
C4    C5    A    
C11   H30   S    
C6    C10   A    
C27   H9    S    
O8    Zn2   S    
C6    C7    A    
C29   H12   S    
C1    O1    A    
C45   H37   S    
C26   C28   S    
C12   O4    A    
C2    C3    A    
O3    Zn1   S    
C2    C42   A    
C1    C30   S    
C46   H40   S    
C40   O9    S    
O14   C46   S    
C25   H5    S    
C28   O14   S    
C40   C44   A    
C41   O10   S    
C38   H23   S    
C45   H35   S    
C46   H38   S    
C14   C15   A    
C34   N4    S    
C4    C9    A    
C13   C14   A    
C33   N3    S    
C39   O7    A    
C21   H3    S    
