data_mof_unit_32508.cif
_audit_creation_date              2012-10-26T18:27:32-0400
_audit_creation_method            fapswitch 2.2
_symmetry_space_group_name_H-M    P1
_symmetry_Int_Tables_number       1
_space_group_crystal_system       triclinic
_cell_length_a                    10.858572
_cell_length_b                    11.021212
_cell_length_c                    9.789382
_cell_angle_alpha                 110.032643
_cell_angle_beta                  97.935524
_cell_angle_gamma                 91.524321
_cell_volume                      1086.67691915

loop_
_atom_site_label
_atom_site_type_symbol
_atom_type_description
_atom_site_fract_x
_atom_site_fract_y
_atom_site_fract_z
_atom_type_partial_charge
C1    C     C_R   0.489750 0.254367 0.441259 0.572979
C2    C     C_2   0.477873 0.927519 0.477468 -0.156382
C3    C     C_2   0.508364 0.517172 0.085213 -0.016210
C4    C     C_R   0.262107 0.489747 0.499701 0.552717
C5    C     C_2   0.534077 0.472282 0.927792 0.098343
C6    C     C_R   0.506087 0.745427 0.558120 0.553721
C7    C     C_R   0.738264 0.512064 0.501647 0.543407
C8    C     C_R   0.137029 0.470160 0.754269 0.025528
C9    C     C_R   0.098584 0.524561 0.891563 -0.119055
C10   C     C_R   0.997278 0.599939 0.905592 -0.119930
C11   C     C_R   0.925172 0.607885 0.780107 -0.077118
C12   C     C_R   0.076005 0.497167 0.630827 0.009758
C13   C     C_R   0.956901 0.544119 0.638714 0.006902
C14   C     C_1   0.572928 0.343061 0.870561 0.312146
C15   C     C_1   0.219208 0.367129 0.737332 0.216286
C16   C     C_1   0.853866 0.496996 0.236483 0.220791
C17   C     C_R   0.127397 0.481586 0.500822 -0.023806
C18   C     C_R   0.050311 0.481661 0.373887 -0.155320
C19   C     C_R   0.924702 0.498533 0.373221 -0.039804
C20   C     C_R   0.874467 0.524650 0.505046 -0.025152
C21   C     C_2   0.485296 0.115311 0.406600 -0.116656
C22   C     C_2   0.468017 0.064686 0.507917 -0.136204
C23   C     C_2   0.498576 0.883135 0.588419 -0.114533
Cu1   Cu    Cu3+1 0.521920 0.521810 0.644910 0.977828
Cu2   Cu    Cu3+1 0.478080 0.478190 0.355090 0.959480
H1    H     H_    0.088153 0.469709 0.273486 0.145592
H2    H     H_    0.409186 0.355535 0.064382 0.222033
H3    H     H_    0.970403 0.646343 0.012737 0.135118
H4    H     H_    0.498297 0.053636 0.296826 0.103092
H5    H     H_    0.145797 0.506975 0.987280 0.119242
H6    H     H_    0.846466 0.666501 0.795547 0.146087
H7    H     H_    0.472100 0.863272 0.363683 0.149198
H8    H     H_    0.449805 0.124888 0.615046 0.200029
H9    H     H_    0.507702 0.948482 0.702062 0.128058
H10   H     H_    0.552423 0.610032 0.160001 0.145583
H11   H     H_    0.540961 0.648771 0.922732 0.199449
N1    N     N_2   0.445130 0.445430 0.137370 -0.360934
N2    N     N_2   0.554930 0.554500 0.862630 -0.364040
N3    N     N_1   0.608060 0.240552 0.829540 -0.319883
N4    N     N_1   0.283643 0.283353 0.723978 -0.334673
N5    N     N_1   0.799048 0.496100 0.126122 -0.314352
O1    O     O_R   0.511700 0.332330 0.577400 -0.469496
O2    O     O_R   0.474680 0.295500 0.332650 -0.496244
O3    O     O_R   0.338160 0.518420 0.622400 -0.492227
O4    O     O_R   0.301140 0.481590 0.377650 -0.501597
O5    O     O_R   0.525320 0.704500 0.667350 -0.509916
O6    O     O_R   0.488300 0.667670 0.422600 -0.505656
O7    O     O_R   0.698860 0.518410 0.622350 -0.495483
O8    O     O_R   0.661840 0.481580 0.377600 -0.478695

loop_
_geom_bond_atom_site_label_1
_geom_bond_atom_site_label_2
_ccdc_geom_bond_type
C12   C17   A    
C2    C22   S    
Cu1   N2    S    
C1    C21   S    
Cu1   O1    S    
C9    C10   A    
Cu2   O6    S    
C19   C20   A    
C18   H1    S    
C3    H10   S    
C8    C12   A    
C23   H9    S    
Cu1   O5    S    
C7    O7    A    
Cu2   O2    S    
H11   N2    S    
C17   C18   A    
C11   H6    S    
C21   C22   D    
C12   C13   A    
C11   C13   A    
C3    N1    D    
C5    C14   S    
C9    H5    S    
H2    N1    S    
C16   C19   S    
C6    C23   S    
C7    C20   S    
C8    C15   S    
C4    O4    A    
C6    O5    A    
Cu1   O3    S    
Cu2   O8    S    
C15   N4    T    
C6    O6    A    
C4    C17   S    
Cu1   O7    S    
Cu2   O4    S    
C1    O1    A    
Cu1   Cu2   S    
C7    O8    A    
C2    H7    S    
C18   C19   A    
C10   C11   A    
C10   H3    S    
C2    C23   D    
C22   H8    S    
C4    O3    A    
C13   C20   A    
Cu2   N1    S    
C14   N3    T    
C5    N2    D    
C21   H4    S    
C16   N5    T    
C1    O2    A    
C8    C9    A    
C3    C5    S    
