data_mof_unit_11040.cif
_audit_creation_date              2013-03-05T16:42:23-0500
_audit_creation_method            fapswitch 2.2
_symmetry_space_group_name_H-M    P1
_symmetry_Int_Tables_number       1
_space_group_crystal_system       triclinic
_cell_length_a                    9.87924
_cell_length_b                    10.592536
_cell_length_c                    15.384226
_cell_angle_alpha                 90.487904
_cell_angle_beta                  69.688335
_cell_angle_gamma                 89.430459
_cell_volume                      1509.59697024

loop_
_atom_site_label
_atom_site_type_symbol
_atom_site_description
_atom_site_fract_x
_atom_site_fract_y
_atom_site_fract_z
_atom_type_partial_charge
O1    O     O_R   0.385310 0.683210 0.499990 -0.593154
O2    O     O_R   0.614650 0.683240 0.500000 -0.580271
C1    C     C_R   0.503647 0.740064 0.492649 0.907798
O3    O     O_R   0.319830 0.499970 0.632240 -0.576502
O4    O     O_R   0.549170 0.500000 0.632250 -0.565559
C2    C     C_R   0.413225 0.479028 0.673388 0.937287
Zn1   Zn    Zn3+2 0.346870 0.499980 0.499990 0.985327
Zn2   Zn    Zn3+2 0.653130 0.500020 0.500010 0.999889
O5    O     O_R   0.385350 0.316760 0.500000 -0.622108
O6    O     O_R   0.614690 0.316790 0.500010 -0.577074
O7    O     O_R   0.450830 0.500000 0.367750 -0.566787
O8    O     O_R   0.680170 0.500030 0.367760 -0.593180
C3    C     C_R   0.504757 0.259834 0.492053 0.899391
C4    C     C_R   0.589080 0.500201 0.323758 0.886597
C5    C     C_R   0.371426 0.421199 0.766441 -0.279663
C6    C     C_R   0.643038 0.488293 0.221873 -0.299461
C7    C     C_R   0.198949 0.338971 0.908121 -0.294902
C8    C     C_R   0.229405 0.386696 0.818295 0.431431
C9    C     C_R   0.482395 0.380370 0.797955 0.439248
C10   C     C_R   0.451767 0.360433 0.893058 -0.105807
C11   C     C_R   0.308003 0.330707 0.947178 -0.079056
C12   C     C_R   0.556301 0.377097 0.936692 0.084824
C13   C     C_R   0.511180 0.368852 0.034487 0.019465
C14   C     C_R   0.377859 0.311586 0.082042 -0.288920
C15   C     C_R   0.277265 0.289944 0.038315 0.523192
C16   C     C_R   0.699344 0.414781 0.888100 -0.154658
C17   C     C_R   0.792620 0.446448 0.933913 -0.239575
C18   C     C_R   0.745111 0.449784 0.029837 0.032627
C19   C     C_R   0.600866 0.418692 0.081387 0.001845
C20   C     C_R   0.837978 0.493470 0.073933 -0.297969
C21   C     C_R   0.789677 0.508171 0.170238 0.456454
C22   C     C_R   0.546944 0.453102 0.176168 0.391406
H1    H     H_    0.899710 0.477826 0.894123 0.194142
H2    H     H_    0.089093 0.314129 0.948375 0.206880
H3    H     H_    0.349620 0.284261 0.153595 0.202279
H4    H     H_    0.743404 0.423873 0.814746 0.193412
H5    H     H_    0.947301 0.519650 0.033234 0.161340
C23   C     C_R   0.397028 0.936244 0.463183 -0.070721
C24   C     C_R   0.517572 0.869719 0.465323 -0.363734
C25   C     C_R   0.652209 0.931660 0.436387 0.398236
C26   C     C_R   0.652183 0.063659 0.435992 0.437062
C27   C     C_R   0.518149 0.129138 0.465287 -0.287479
C28   C     C_R   0.396574 0.064921 0.464033 -0.027002
C29   C     C_3   0.240507 0.075577 0.523336 -0.493228
C30   C     C_3   0.240217 0.932038 0.523176 0.458691
H6    H     H_    0.224206 0.117389 0.592615 0.154792
H7    H     H_    0.173953 0.119088 0.485976 0.221303
H8    H     H_    0.224336 0.893050 0.592781 0.133484
C31   C     C_R   0.900443 0.590612 0.549385 0.052582
N1    N     N_R   0.856900 0.500860 0.500610 -0.109381
C32   C     C_R   0.959195 0.419779 0.444524 -0.118431
H9    H     H_    0.929588 0.353754 0.400864 0.176276
C33   C     C_R   0.103027 0.420017 0.444152 -0.130706
H10   H     H_    0.181572 0.353664 0.400179 0.176278
N2    N     N_R   0.142540 0.500820 0.500610 -0.128466
C34   C     C_R   0.043210 0.588507 0.550594 0.163697
C35   C     C_3   0.995617 0.604570 0.653118 0.228873
C36   C     C_3   0.841480 0.606524 0.653339 0.214264
H11   H     H_    0.023011 0.520168 0.686055 0.127742
H12   H     H_    0.782401 0.521544 0.685086 0.136923
O9    O     O_3   0.143842 0.239631 0.086762 -0.640156
C37   C     C_3   0.161871 0.111206 0.104362 -0.390700
H13   H     H_    0.210722 0.100819 0.159110 0.163431
H14   H     H_    0.227268 0.058516 0.040200 0.172525
H15   H     H_    0.053945 0.067233 0.130288 0.189465
O10   O     O_3   0.781217 0.867324 0.420644 -0.595065
C38   C     C_3   0.826181 0.811784 0.331345 -0.173481
H16   H     H_    0.737351 0.763332 0.315934 0.159640
H17   H     H_    0.910242 0.739433 0.326927 0.203028
H18   H     H_    0.875508 0.883356 0.277790 0.126918
O11   O     O_3   0.782081 0.125363 0.413292 -0.570209
C39   C     C_3   0.821280 0.165244 0.320555 -0.308569
H19   H     H_    0.938178 0.186089 0.294597 0.187244
H20   H     H_    0.760912 0.252671 0.316550 0.166829
H21   H     H_    0.803900 0.092032 0.273238 0.131982
O12   O     O_3   0.141258 0.880027 0.483984 -0.583909
C40   C     C_3   0.193678 0.873164 0.386086 -0.234912
H22   H     H_    0.283557 0.803032 0.360585 0.158020
H23   H     H_    0.227230 0.967135 0.354870 0.151072
H24   H     H_    0.105581 0.840247 0.362918 0.185100
O13   O     O_3   0.399646 0.466518 0.222009 -0.601413
C41   C     C_3   0.357332 0.589905 0.207045 -0.298008
H25   H     H_    0.352286 0.597481 0.136203 0.161956
H26   H     H_    0.429573 0.663663 0.218200 0.140560
H27   H     H_    0.248223 0.610182 0.257843 0.172939
O14   O     O_3   0.041724 0.721245 0.677223 -0.567743
C42   C     C_3   0.023931 0.721962 0.772148 -0.265705
H28   H     H_    0.100919 0.654689 0.785982 0.180664
H29   H     H_    0.911031 0.700140 0.816153 0.185200
H30   H     H_    0.048129 0.817828 0.791864 0.162323
O15   O     O_3   0.760501 0.717288 0.694797 -0.596305
C43   C     C_3   0.782863 0.822259 0.635931 -0.100372
H31   H     H_    0.897157 0.834174 0.592069 0.237621
H32   H     H_    0.748784 0.908842 0.679503 0.131601
H33   H     H_    0.714050 0.815420 0.593077 0.196088
O16   O     O_3   0.878439 0.561086 0.212896 -0.637465
C44   C     C_3   0.999392 0.482153 0.200308 -0.256662
H34   H     H_    0.969889 0.381015 0.210193 0.193629
H35   H     H_    0.046217 0.507214 0.253725 0.176260
H36   H     H_    0.083168 0.497542 0.131375 0.180847
O17   O     O_3   0.123120 0.395254 0.779381 -0.636467
C45   C     C_3   0.073919 0.273320 0.768758 -0.347337
H37   H     H_    0.016846 0.278014 0.718157 0.187850
H38   H     H_    0.995477 0.240237 0.835353 0.180215
H39   H     H_    0.164158 0.203408 0.741585 0.153915
O18   O     O_3   0.614609 0.344188 0.733886 -0.626449
C46   C     C_3   0.612537 0.213608 0.715792 -0.302983
H40   H     H_    0.716628 0.185990 0.661724 0.201669
H41   H     H_    0.524924 0.189855 0.688633 0.147573
H42   H     H_    0.601582 0.157730 0.778750 0.156503

loop_
_geom_bond_atom_site_label_1
_geom_bond_atom_site_label_2
_geom_bond_distance
_ccdc_geom_bond_type
C5    C8    1.405924 A    
C42   H28   1.111648 S    
O17   C45   1.412517 S    
C26   C27   1.414094 A    
C9    C10   1.405688 A    
Zn1   N2    2.015264 S    
N2    C34   1.364852 A    
C44   H34   1.110845 S    
C40   H22   1.110987 S    
C17   H1    1.079497 S    
C6    C21   1.408547 A    
C5    C9    1.409633 A    
C22   O13   1.384499 S    
C16   C17   1.382551 A    
C30   O12   1.427277 S    
C13   C19   1.425142 A    
C18   C19   1.413264 A    
C19   C22   1.410877 A    
O3    Zn1   1.957931 S    
O4    C2    1.292998 A    
O7    C4    1.296851 A    
C35   H11   1.107881 S    
O18   C46   1.410323 S    
C36   H12   1.099772 S    
C21   O16   1.384495 S    
C35   O14   1.411764 S    
C45   H39   1.113903 S    
O5    C3    1.286308 A    
C23   C30   1.504387 S    
C37   H14   1.115325 S    
C2    C5    1.484801 S    
C46   H40   1.109498 S    
C36   O15   1.427494 S    
C34   C35   1.488865 S    
C29   H7    1.111725 S    
C26   O11   1.380366 S    
C40   H23   1.111525 S    
O10   C38   1.410010 S    
C1    C24   1.433613 S    
C25   O10   1.383133 S    
C46   H41   1.113846 S    
C45   H37   1.109601 S    
C39   H21   1.113812 S    
C3    C27   1.432640 S    
C44   H35   1.105630 S    
C29   H6    1.108779 S    
C7    C8    1.407829 A    
C33   N2    1.367010 A    
C23   C24   1.388084 A    
C14   H3    1.080359 S    
C38   H16   1.114039 S    
C14   C15   1.399561 A    
C39   H20   1.110219 S    
O15   C43   1.410108 S    
O14   C42   1.408960 S    
C33   H10   1.081842 S    
C43   H33   1.101534 S    
O13   C41   1.413158 S    
C31   C36   1.507326 S    
C32   H9    1.076247 S    
C20   H5    1.083897 S    
O1    C1    1.290611 A    
C8    O17   1.380075 S    
Zn1   O7    1.934700 S    
C28   C29   1.496836 S    
C37   H13   1.112268 S    
Zn2   O8    1.957928 S    
O16   C44   1.407530 S    
C43   H32   1.109282 S    
N1    C32   1.366813 A    
C15   O9    1.384066 S    
O12   C40   1.413391 S    
C45   H38   1.110531 S    
C16   H4    1.064845 S    
C25   C26   1.398267 A    
C10   C12   1.425193 A    
C41   H25   1.111682 S    
C41   H26   1.114920 S    
C42   H29   1.113266 S    
C12   C16   1.413531 A    
C46   H42   1.112852 S    
C4    C6    1.473811 S    
O3    C2    1.305793 A    
C7    H2    1.082800 S    
C31   C34   1.416949 A    
Zn2   N1    2.016424 S    
C24   C25   1.417429 A    
C44   H36   1.110171 S    
C29   C30   1.520458 S    
C30   H8    1.110860 S    
C38   H17   1.108554 S    
Zn1   O5    1.973946 S    
C11   C15   1.400631 A    
C37   H15   1.109355 S    
O1    Zn1   1.981375 S    
O2    Zn2   1.973945 S    
O8    C4    1.300370 A    
C39   H19   1.108303 S    
O6    C3    1.289402 A    
O4    Zn2   1.934700 S    
C6    C22   1.414414 A    
C41   H27   1.107454 S    
C38   H18   1.109186 S    
C18   C20   1.396879 A    
O2    C1    1.285224 A    
O11   C39   1.412022 S    
C40   H24   1.106959 S    
C35   C36   1.521516 S    
C20   C21   1.396705 A    
C43   H31   1.105230 S    
O9    C37   1.410856 S    
C7    C11   1.406362 A    
C13   C14   1.411532 A    
C9    O18   1.383584 S    
C23   C28   1.362917 A    
C10   C11   1.414900 A    
Zn2   O6    1.981375 S    
C31   N1    1.368213 A    
C27   C28   1.392031 A    
C42   H30   1.109160 S    
C17   C18   1.384623 A    
C12   C13   1.416770 A    
C32   C33   1.418995 A    
