data_mof_unit_57980.cif
_audit_creation_date              2012-12-10T16:52:03-0500
_audit_creation_method            fapswitch 2.2
_symmetry_space_group_name_H-M    P1
_symmetry_Int_Tables_number       1
_space_group_crystal_system       triclinic
_cell_length_a                    7.72577
_cell_length_b                    8.829287
_cell_length_c                    14.97477
_cell_angle_alpha                 89.11641
_cell_angle_beta                  85.867732
_cell_angle_gamma                 93.564296
_cell_volume                      1016.64517383

loop_
_atom_site_label
_atom_site_type_symbol
_atom_type_description
_atom_site_fract_x
_atom_site_fract_y
_atom_site_fract_z
_atom_type_partial_charge
C1    C     C_R   0.545915 0.794521 0.496347 1.009861
C2    C     C_R   0.577082 0.626191 0.809029 0.063670
C3    C     C_R   0.486555 0.504790 0.231962 -0.144368
C4    C     C_R   0.513445 0.495210 0.768038 -0.144368
C5    C     C_R   0.531438 0.639454 0.183166 0.053834
C6    C     C_R   0.468562 0.360546 0.816834 0.053834
C7    C     C_R   0.543221 0.637162 0.089964 0.088261
C8    C     C_R   0.456779 0.362838 0.910036 0.088261
C9    C     C_R   0.495063 0.501411 0.046919 0.020905
C10   C     C_R   0.504937 0.498589 0.953081 0.020904
C11   C     C_R   0.432917 0.369630 0.097568 0.083886
C12   C     C_R   0.454085 0.205479 0.503653 1.009862
C13   C     C_R   0.567083 0.630370 0.902432 0.083886
C14   C     C_R   0.603060 0.766924 0.038850 -0.173893
C15   C     C_R   0.396940 0.233075 0.961150 -0.173892
C16   C     C_3   0.743805 0.022756 0.437379 -0.380453
C17   C     C_3   0.883061 0.918643 0.400543 -0.762823
C18   C     C_3   0.256195 0.977243 0.562620 -0.380454
C19   C     C_3   0.116939 0.081357 0.599457 -0.762822
C20   C     C_R   0.615488 0.763360 0.946413 -0.167204
C21   C     C_R   0.384512 0.236639 0.053587 -0.167204
C22   C     C_2   0.569093 0.956555 0.485705 -0.065588
C23   C     C_2   0.430907 0.043445 0.514295 -0.065588
C24   C     C_R   0.503023 0.497120 0.672955 0.970726
C25   C     C_R   0.496977 0.502879 0.327045 0.970725
C26   C     C_R   0.422918 0.373809 0.190971 0.063670
H1    H     H_    0.644124 0.872189 0.069061 0.190772
H2    H     H_    0.713706 0.095064 0.379739 0.256151
H3    H     H_    0.813029 0.091735 0.485993 0.238161
H4    H     H_    0.166995 0.166432 0.645955 0.292810
H5    H     H_    0.059922 0.140365 0.544102 0.255703
H6    H     H_    0.010051 0.011531 0.636391 0.265381
H7    H     H_    0.186971 0.908265 0.514006 0.238161
H8    H     H_    0.286294 0.904936 0.620261 0.256151
H9    H     H_    0.355876 0.127811 0.930939 0.190772
H10   H     H_    0.661009 0.866903 0.910460 0.198020
H11   H     H_    0.338991 0.133097 0.089540 0.198020
H12   H     H_    0.015903 0.385419 0.434205 0.209554
H13   H     H_    0.984097 0.614581 0.565795 0.209554
H14   H     H_    0.940078 0.859635 0.455898 0.255703
H15   H     H_    0.833005 0.833567 0.354044 0.292810
H16   H     H_    0.989949 0.988469 0.363609 0.265381
I1    I     I_    0.291375 0.194091 0.272341 -0.400796
I2    I     I_    0.708625 0.805909 0.727658 -0.400796
I3    I     I_    0.544265 0.848733 0.250835 -0.405220
I4    I     I_    0.455734 0.151267 0.749165 -0.405220
N1    N     N_2   0.950330 0.457950 0.475660 -0.179017
N2    N     N_2   0.049670 0.542050 0.524340 -0.179017
O1    O     O_R   0.389250 0.738570 0.505970 -0.657387
O2    O     O_R   0.610750 0.261430 0.494030 -0.657388
O3    O     O_R   0.678390 0.711620 0.490370 -0.616004
O4    O     O_R   0.321610 0.288380 0.509630 -0.616004
O5    O     O_R   0.355420 0.513510 0.639950 -0.612653
O6    O     O_R   0.644580 0.486490 0.360050 -0.612653
O7    O     O_R   0.644560 0.486560 0.624350 -0.600949
O8    O     O_R   0.355440 0.513440 0.375650 -0.600949
Zn1   Zn    Zn3+2 0.306940 0.517990 0.510420 0.968660
Zn2   Zn    Zn3+2 0.693060 0.482010 0.489580 0.968660

loop_
_geom_bond_atom_site_label_1
_geom_bond_atom_site_label_2
_ccdc_geom_bond_type
C16   H2    S    
C2    C4    A    
C8    C10   A    
C14   H1    S    
C3    C26   A    
C9    C11   A    
C9    C10   A    
C12   O2    A    
N1    N2    D    
C11   C26   A    
C25   O8    A    
C3    C25   S    
C19   H5    S    
C24   O5    A    
O1    Zn1   S    
C1    C22   S    
O3    Zn2   S    
C10   C13   A    
C25   O6    A    
N1    Zn2   S    
C1    O3    A    
C12   C23   S    
H12   N1    S    
C5    I3    S    
C19   H6    S    
C15   H9    S    
C12   O4    A    
C26   I1    S    
C8    C15   A    
C5    C7    A    
C18   H8    S    
C4    C24   S    
C18   H7    S    
C17   H15   S    
O4    Zn1   S    
C18   C23   S    
C20   H10   S    
C14   C20   A    
C15   C21   A    
N2    Zn1   S    
C21   H11   S    
O8    Zn1   S    
C4    C6    A    
C18   C19   S    
O6    Zn2   S    
O7    Zn2   S    
C2    I2    S    
C7    C9    A    
C2    C13   A    
O5    Zn1   S    
C22   C23   D    
C16   C17   S    
C6    C8    A    
C6    I4    S    
C13   C20   A    
C3    C5    A    
C16   H3    S    
C17   H16   S    
C19   H4    S    
C1    O1    A    
C11   C21   A    
C7    C14   A    
C16   C22   S    
H13   N2    S    
C24   O7    A    
C17   H14   S    
O2    Zn2   S    
