data_mof_unit_58826.cif
_audit_creation_date              2012-12-11T14:35:48-0500
_audit_creation_method            fapswitch 2.2
_symmetry_space_group_name_H-M    P1
_symmetry_Int_Tables_number       1
_space_group_crystal_system       triclinic
_cell_length_a                    14.659275
_cell_length_b                    16.066886
_cell_length_c                    6.970746
_cell_angle_alpha                 89.763119
_cell_angle_beta                  81.077479
_cell_angle_gamma                 90.352761
_cell_volume                      1621.89227075

loop_
_atom_site_label
_atom_site_type_symbol
_atom_type_description
_atom_site_fract_x
_atom_site_fract_y
_atom_site_fract_z
_atom_type_partial_charge
O1    O     O_R   0.337460 0.413110 0.524760 -0.520533
O2    O     O_R   0.662540 0.913110 0.475240 -0.534257
O3    O     O_R   0.348690 0.587910 0.191230 -0.518323
O4    O     O_R   0.651310 0.087910 0.808770 -0.530660
O5    O     O_R   0.166530 0.586890 0.082470 -0.534517
O6    O     O_R   0.833470 0.086890 0.917530 -0.543571
C1    C     C_R   0.371117 0.616488 0.353999 0.749476
C2    C     C_R   0.629081 0.115903 0.644341 0.699702
O7    O     O_R   0.348700 0.413830 0.191250 -0.531376
O8    O     O_R   0.651300 0.913830 0.808750 -0.528944
O9    O     O_R   0.166530 0.411570 0.082490 -0.535526
O10   O     O_R   0.833470 0.911570 0.917510 -0.528343
C3    C     C_R   0.369983 0.385306 0.355681 0.782897
C4    C     C_R   0.629438 0.885634 0.646497 0.790475
O11   O     O_R   0.337460 0.588430 0.524740 -0.543717
O12   O     O_R   0.662540 0.088430 0.475260 -0.538207
O13   O     O_3   0.192230 0.499460 0.407330 -0.344507
O14   O     O_3   0.807770 0.999460 0.592670 -0.341470
V1    V     V_3+5 0.263080 0.500100 0.108540 1.591551
V2    V     V_3+5 0.736920 0.000100 0.891460 1.603683
O15   O     O_R   0.155290 0.412090 0.756570 -0.508675
O16   O     O_R   0.844710 0.912090 0.243430 -0.515079
C5    C     C_R   0.132188 0.383091 0.934713 0.643315
C6    C     C_R   0.867131 0.882806 0.066057 0.687671
O17   O     O_R   0.155290 0.586170 0.756550 -0.535072
O18   O     O_R   0.844710 0.086170 0.243450 -0.547389
C7    C     C_R   0.129559 0.612692 0.933223 0.657184
C8    C     C_R   0.867694 0.114402 0.066643 0.710576
V3    V     V_3+5 0.240910 0.499900 0.616030 1.600086
V4    V     V_3+5 0.759090 0.999900 0.383970 1.594917
O19   O     O_3   0.311760 0.500540 0.867100 -0.355106
O20   O     O_3   0.688240 0.000540 0.132900 -0.358035
C9    C     C_3   0.096945 0.757565 0.065263 -0.311875
C10   C     C_3   0.891252 0.268388 0.007939 -0.319787
H1    H     H_    0.117414 0.736706 0.204526 0.196312
H2    H     H_    0.849336 0.263390 0.888223 0.160917
H3    H     H_    0.160965 0.781106 0.973958 0.190989
H4    H     H_    0.841995 0.282886 0.141142 0.192492
C11   C     C_3   0.026968 0.829925 0.107771 -0.313473
C12   C     C_3   0.962625 0.340821 0.959914 -0.309544
H5    H     H_    0.058716 0.889502 0.050107 0.212167
H6    H     H_    0.942866 0.394971 0.055511 0.162108
H7    H     H_    0.010758 0.838720 0.267553 0.193163
H8    H     H_    0.960497 0.363741 0.810014 0.171623
H9    H     H_    0.975121 0.626495 0.222138 0.157436
H10   H     H_    0.971868 0.170555 0.719488 0.173275
H11   H     H_    0.890573 0.739225 0.290451 0.170645
H12   H     H_    0.080708 0.270350 0.673411 0.212972
C13   C     C_3   0.963969 0.654956 0.085967 -0.303918
C14   C     C_3   0.010009 0.170895 0.845621 -0.276133
C15   C     C_3   0.032098 0.715253 0.763628 -0.214349
C16   C     C_3   0.993904 0.190464 0.210928 -0.223769
C17   C     C_3   0.056730 0.682682 0.961820 0.010192
C18   C     C_3   0.939901 0.183833 0.033741 -0.009149
H13   H     H_    0.099355 0.736690 0.682184 0.152815
H14   H     H_    0.940362 0.198636 0.340693 0.123054
C19   C     C_3   0.936896 0.810564 0.024151 -0.029225
C20   C     C_3   0.061877 0.310580 0.976463 -0.050484
C21   C     C_3   0.897788 0.729566 0.132769 -0.300337
C22   C     C_3   0.082579 0.242182 0.817288 -0.299998
C23   C     C_3   0.962886 0.792098 0.795592 -0.098452
C24   C     C_3   0.060511 0.269814 0.188185 -0.086812
H15   H     H_    0.929181 0.604963 0.015865 0.195666
H16   H     H_    0.045261 0.110039 0.843823 0.212300
H17   H     H_    0.826988 0.713718 0.107984 0.189385
H18   H     H_    0.152789 0.216870 0.807867 0.227830
C25   C     C_2   0.434212 0.690137 0.351799 -0.217422
C26   C     C_2   0.561714 0.184643 0.645435 -0.220936
C27   C     C_2   0.476156 0.707192 0.511186 -0.112121
C28   C     C_2   0.514912 0.200709 0.492639 -0.115629
H19   H     H_    0.616160 0.753491 0.691072 0.157102
H20   H     H_    0.494524 0.318089 0.232130 0.169355
C29   C     C_2   0.578356 0.806637 0.648921 -0.292693
C30   C     C_2   0.439946 0.319626 0.355614 -0.347457
C31   C     C_2   0.503062 0.794682 0.560399 -0.056169
C32   C     C_2   0.441708 0.264774 0.505089 -0.080794
C33   C     C_2   0.873075 0.773574 0.710856 0.747894
O21   O     O_2   0.820654 0.717624 0.777742 -0.545137
O22   O     O_R   0.847114 0.822852 0.564276 -0.634019
H21   H     H_    0.787440 0.802884 0.523128 0.265599
C34   C     C_2   0.159212 0.243938 0.215623 0.753763
O23   O     O_2   0.202139 0.194029 0.104906 -0.540520
O24   O     O_R   0.198958 0.271950 0.373024 -0.647559
H22   H     H_    0.259995 0.243963 0.379636 0.302626
C35   C     C_2   0.440344 0.865338 0.530612 0.801458
O25   O     O_2   0.467904 0.937434 0.523841 -0.545508
O26   O     O_R   0.347907 0.848731 0.515813 -0.662978
H23   H     H_    0.311986 0.901011 0.496360 0.319805
C36   C     C_2   0.366237 0.256904 0.672390 0.848447
O27   O     O_2   0.323109 0.191435 0.698407 -0.527955
O28   O     O_R   0.351851 0.319911 0.810898 -0.627210
H24   H     H_    0.303324 0.304588 0.924882 0.305922
C37   C     C_2   0.496825 0.637374 0.640263 0.810860
O29   O     O_2   0.490775 0.647727 0.815290 -0.547840
O30   O     O_R   0.523607 0.559924 0.560065 -0.663854
H25   H     H_    0.534864 0.517535 0.661850 0.305096
C38   C     C_2   0.527338 0.151265 0.312035 0.902414
O31   O     O_2   0.597450 0.160261 0.193468 -0.552685
O32   O     O_R   0.456824 0.097867 0.273823 -0.611218
H26   H     H_    0.472940 0.068109 0.145153 0.320446
C39   C     C_2   0.440001 0.749124 0.184822 0.864472
O33   O     O_2   0.509796 0.791042 0.136474 -0.551601
O34   O     O_R   0.365786 0.755950 0.081605 -0.649771
H27   H     H_    0.377894 0.797916 0.971431 0.302915
C40   C     C_2   0.552435 0.240134 0.814493 0.816350
O35   O     O_2   0.488217 0.230226 0.946497 -0.544623
O36   O     O_R   0.618602 0.302322 0.823828 -0.661174
H28   H     H_    0.605513 0.336494 0.946695 0.291853
C41   C     C_2   0.005392 0.645451 0.634051 0.724432
O37   O     O_2   0.936738 0.602027 0.680510 -0.542181
O38   O     O_R   0.066693 0.625398 0.468270 -0.663200
H29   H     H_    0.050815 0.569198 0.416514 0.307193
C42   C     C_2   0.039006 0.108940 0.261468 0.814975
O39   O     O_2   0.041963 0.048084 0.156134 -0.570845
O40   O     O_R   0.076342 0.103965 0.433599 -0.667534
H30   H     H_    0.106872 0.048585 0.449497 0.312435
C43   C     C_2   0.014496 0.869194 0.694408 0.692161
O41   O     O_2   0.973956 0.922801 0.616544 -0.518279
O42   O     O_R   0.109144 0.880367 0.697698 -0.671482
H31   H     H_    0.134889 0.933520 0.631354 0.301056
C44   C     C_2   0.020197 0.333436 0.345862 0.684725
O43   O     O_2   0.070377 0.379371 0.421927 -0.527442
O44   O     O_R   0.924563 0.341382 0.400262 -0.683535
H32   H     H_    0.907125 0.386948 0.499075 0.301756

loop_
_geom_bond_atom_site_label_1
_geom_bond_atom_site_label_2
_ccdc_geom_bond_type
C20   C24   S    
C5    C20   S    
O26   H23   S    
C37   O29   D    
C13   H15   S    
C14   H16   S    
O30   H25   S    
C15   C23   S    
O4    C2    A    
V1    O19   S    
C38   O31   D    
O44   H32   S    
C11   H5    S    
C33   O21   D    
C40   O36   S    
O9    V1    S    
C9    C11   S    
C30   C32   D    
C10   C12   S    
O7    V1    S    
O3    C1    A    
C41   O38   S    
C35   O25   D    
C19   C21   S    
C20   C22   S    
O40   H30   S    
C11   C19   S    
O13   V3    S    
O7    C3    A    
C38   O32   S    
O5    C7    A    
C31   C35   S    
O6    C8    A    
O24   H22   S    
O8    V2    S    
C6    C19   S    
O36   H28   S    
O3    V1    S    
O14   V4    S    
C36   O28   S    
C15   H13   S    
C28   C38   S    
C32   C36   S    
H12   C22   S    
C12   H6    S    
C22   H18   S    
C2    O12   A    
O17   V3    S    
C29   C31   D    
C34   O24   S    
C16   C18   S    
O11   V3    S    
C33   O22   S    
C9    C17   S    
H11   C21   S    
C12   C20   S    
C35   O26   S    
C23   C43   S    
C39   O33   D    
H20   C30   S    
O8    C4    A    
C23   C33   S    
O28   H24   S    
H19   C29   S    
C8    C18   S    
O13   V1    S    
C11   H7    S    
C1    O11   A    
C16   C42   S    
O15   V3    S    
C34   O23   D    
C25   C27   D    
C4    C29   S    
O32   H26   S    
H9    C13   S    
O10   V2    S    
O1    V3    S    
C14   C18   S    
C44   O43   D    
C24   C34   S    
C2    C26   S    
O15   C5    A    
C28   C32   S    
O16   C6    A    
O1    C3    A    
C26   C40   S    
C25   C39   S    
C42   O39   D    
V2    O20   S    
O10   C6    A    
O16   V4    S    
O38   H29   S    
C10   H4    S    
O18   C8    A    
O42   H31   S    
C7    C17   S    
C19   C23   S    
O5    V1    S    
O17   C7    A    
O6    V2    S    
C40   O35   D    
H10   C14   S    
C27   C37   S    
C13   C21   S    
C39   O34   S    
O2    V4    S    
C14   C22   S    
C43   O42   S    
C15   C41   S    
V3    O19   S    
C16   C24   S    
C43   O41   D    
C21   H17   S    
V4    O20   S    
C10   C18   S    
C37   O30   S    
C13   C17   S    
O9    C5    A    
C9    H1    S    
C10   H2    S    
C27   C31   S    
O14   V2    S    
O2    C4    A    
C9    H3    S    
C44   O44   S    
C1    C25   S    
O22   H21   S    
O4    V2    S    
C12   H8    S    
C3    C30   S    
C26   C28   D    
O34   H27   S    
C15   C17   S    
C36   O27   D    
C41   O37   D    
O12   V4    S    
C24   C44   S    
C16   H14   S    
C42   O40   S    
O18   V4    S    
