data_mof_unit_19737.cif
_audit_creation_date              2012-12-10T18:59:53-0500
_audit_creation_method            fapswitch 2.2
_symmetry_space_group_name_H-M    P1
_symmetry_Int_Tables_number       1
_space_group_crystal_system       triclinic
_cell_length_a                    10.761015
_cell_length_b                    10.636333
_cell_length_c                    9.940669
_cell_angle_alpha                 89.408684
_cell_angle_beta                  92.299204
_cell_angle_gamma                 89.906619
_cell_volume                      1136.80760291

loop_
_atom_site_label
_atom_site_type_symbol
_atom_type_description
_atom_site_fract_x
_atom_site_fract_y
_atom_site_fract_z
_atom_type_partial_charge
C1    C     C_R   0.499884 0.260474 0.500452 1.057163
C2    C     C_R   0.580847 0.063399 0.590240 0.592448
C3    C     C_R   0.500631 0.871993 0.498943 -0.536463
C4    C     C_R   0.499369 0.128006 0.501057 -0.536463
C5    C     C_R   0.470106 0.606008 0.068540 0.689305
C6    C     C_R   0.529894 0.393992 0.931460 0.689305
C7    C     C_R   0.470891 0.606018 0.925700 -0.156810
C8    C     C_R   0.529109 0.393982 0.074300 -0.156810
C9    C     C_R   0.260050 0.494921 0.496858 0.980945
C10   C     C_R   0.739950 0.505078 0.503142 0.980944
C11   C     C_R   0.135729 0.683382 0.044998 -0.305990
C12   C     C_R   0.500115 0.739526 0.499548 1.057163
C13   C     C_R   0.864271 0.316618 0.955002 -0.305990
C14   C     C_R   0.103312 0.675479 0.179626 0.783120
C15   C     C_R   0.896688 0.324521 0.820374 0.783120
C16   C     C_R   0.103492 0.558117 0.245760 -0.018543
C17   C     C_R   0.896508 0.441883 0.754240 -0.018543
C18   C     C_R   0.137661 0.450088 0.176489 -0.328958
C19   C     C_R   0.862339 0.549912 0.823511 -0.328959
C20   C     C_R   0.173218 0.458487 0.043697 0.288882
C21   C     C_R   0.826781 0.541512 0.956303 0.288882
C22   C     C_R   0.169711 0.575107 0.976627 0.477215
C23   C     C_R   0.873304 0.511911 0.509558 -0.342956
C24   C     C_R   0.830289 0.424893 0.023373 0.477215
C25   C     C_R   0.930730 0.560325 0.397072 0.724714
C26   C     C_R   0.069270 0.439675 0.602928 0.724714
C27   C     C_R   0.126696 0.488089 0.490442 -0.342955
C28   C     C_R   0.943796 0.457618 0.617614 -0.102719
C29   C     C_R   0.056204 0.542382 0.382386 -0.102719
C30   C     C_R   0.418629 0.065668 0.410673 0.527805
C31   C     C_R   0.581371 0.934332 0.589327 0.527805
C32   C     C_R   0.419153 0.936601 0.409760 0.592448
Cl1   Cl    Cl    0.223264 0.321335 0.965803 -0.387944
Cl2   Cl    Cl    0.776736 0.678665 0.034197 -0.387944
F1    F     F_    0.200092 0.584632 0.846119 -0.608875
F2    F     F_    0.662003 0.125219 0.674166 -0.522020
F3    F     F_    0.437899 0.712934 0.130928 -0.573292
F4    F     F_    0.562101 0.287066 0.869072 -0.573292
F5    F     F_    0.799908 0.415368 0.153881 -0.608875
F6    F     F_    0.070080 0.781230 0.244537 -0.533482
F7    F     F_    0.929920 0.218769 0.755463 -0.533482
F8    F     F_    0.863578 0.624111 0.300436 -0.550061
F9    F     F_    0.136422 0.375889 0.699564 -0.550061
F10   F     F_    0.337911 0.129742 0.326434 -0.564840
F11   F     F_    0.662089 0.870258 0.673566 -0.564840
F12   F     F_    0.337996 0.874781 0.325834 -0.522020
H1    H     H_    0.446705 0.691196 0.870352 0.230686
H2    H     H_    0.553295 0.308803 0.129647 0.230686
H3    H     H_    0.134218 0.773510 0.993402 0.248479
H4    H     H_    0.865782 0.226490 0.006598 0.248479
H5    H     H_    0.136722 0.358999 0.226361 0.256195
H6    H     H_    0.863278 0.641001 0.773639 0.256195
N1    N     N_R   0.499970 0.499970 0.857200 -0.169523
N2    N     N_R   0.500030 0.500030 0.142800 -0.169523
O1    O     O_R   0.499990 0.316750 0.614620 -0.517880
O2    O     O_R   0.500010 0.683250 0.385380 -0.517880
O3    O     O_R   0.499990 0.316780 0.385290 -0.611211
O4    O     O_R   0.500010 0.683220 0.614710 -0.611211
O5    O     O_R   0.316760 0.500000 0.614660 -0.510817
O6    O     O_R   0.683240 0.500000 0.385340 -0.510816
O7    O     O_R   0.316760 0.500020 0.385330 -0.635459
O8    O     O_R   0.683240 0.499980 0.614670 -0.635458
Zn1   Zn    Zn3+2 0.500000 0.499980 0.653120 1.120888
Zn2   Zn    Zn3+2 0.500000 0.500020 0.346880 1.120888

loop_
_geom_bond_atom_site_label_1
_geom_bond_atom_site_label_2
_ccdc_geom_bond_type
C25   F8    S    
C18   H5    S    
O7    Zn2   S    
C2    C4    A    
C8    H2    S    
O8    Zn1   S    
C11   H3    S    
C1    O3    A    
C10   C23   S    
C27   C29   A    
C5    C7    A    
C11   C22   A    
C10   O6    A    
C21   Cl2   S    
C8    N2    A    
O6    Zn2   S    
C1    C4    S    
C12   O4    A    
C24   F5    S    
C6    F4    S    
C1    O1    A    
C32   F12   S    
C12   O2    A    
C23   C28   A    
C3    C31   A    
C22   F1    S    
N1    Zn1   S    
C30   F10   S    
O2    Zn2   S    
C10   O8    A    
N2    Zn2   S    
C9    O7    A    
C20   Cl1   S    
C15   F7    S    
C17   C19   A    
C20   C22   A    
C26   F9    S    
C18   C20   A    
C13   C15   A    
C25   C29   A    
C3    C32   A    
C11   C14   A    
C14   C16   A    
O5    Zn1   S    
C5    F3    S    
C7    N1    A    
C6    N1    A    
C14   F6    S    
C13   H4    S    
C30   C32   A    
C5    N2    A    
C23   C25   A    
C9    C27   S    
O3    Zn2   S    
C16   C18   A    
C31   F11   S    
C21   C24   A    
C2    F2    S    
O4    Zn1   S    
C15   C17   A    
C26   C27   A    
C6    C8    A    
C3    C12   S    
C19   C21   A    
C16   C29   S    
C17   C28   S    
C26   C28   A    
C19   H6    S    
C4    C30   A    
C13   C24   A    
O1    Zn1   S    
C2    C31   A    
C9    O5    A    
C7    H1    S    
