data_mof_unit_22679.cif
_audit_creation_date              2012-12-11T16:15:06-0500
_audit_creation_method            fapswitch 2.2
_symmetry_space_group_name_H-M    P1
_symmetry_Int_Tables_number       1
_space_group_crystal_system       triclinic
_cell_length_a                    13.557
_cell_length_b                    13.560993
_cell_length_c                    28.449813
_cell_angle_alpha                 90.395972
_cell_angle_beta                  90.306286
_cell_angle_gamma                 60.171315
_cell_volume                      4537.33498242

loop_
_atom_site_label
_atom_site_type_symbol
_atom_type_description
_atom_site_fract_x
_atom_site_fract_y
_atom_site_fract_z
_atom_type_partial_charge
C1    C     C_R   0.279650 0.620580 0.566523 0.543314
C2    C     C_1   0.648206 0.653002 0.652966 -0.060328
C3    C     C_1   0.634150 0.230104 0.611560 -0.016332
C4    C     C_R   0.621760 0.600905 0.566764 0.544236
C5    C     C_R   0.747724 0.204558 0.727478 0.033998
C6    C     C_R   0.753631 0.189833 0.776739 -0.083533
C7    C     C_R   0.619393 0.121134 0.772527 -0.113987
C8    C     C_R   0.612240 0.135284 0.724013 -0.121174
C9    C     C_R   0.675082 0.177215 0.701372 0.037171
C10   C     C_R   0.688963 0.149395 0.798969 0.019443
C11   C     C_1   0.698779 0.128931 0.848664 -0.059339
C12   C     C_1   0.638748 0.633656 0.612471 -0.015708
C13   C     C_1   0.655879 0.201090 0.651902 -0.068477
C14   C     C_1   0.707628 0.102264 0.889355 -0.009478
C15   C     C_1   0.232111 0.636663 0.612555 -0.011638
C16   C     C_R   0.600701 0.279328 0.565933 0.544769
C17   C     C_R   0.117798 0.615542 0.723331 -0.108100
C18   C     C_R   0.103999 0.620142 0.772124 -0.108802
C19   C     C_R   0.226704 0.702081 0.780358 -0.107533
C20   C     C_R   0.240226 0.697758 0.731644 -0.108224
C21   C     C_R   0.185510 0.654964 0.703047 0.039866
C22   C     C_R   0.158613 0.663254 0.800685 0.039541
C23   C     C_3   0.748288 0.693998 0.759504 -0.098616
C24   C     C_1   0.135449 0.677950 0.850180 -0.057469
C25   C     C_1   0.205332 0.646283 0.653291 -0.057748
C26   C     C_1   0.106725 0.697001 0.890686 -0.010832
C27   C     C_1   0.635360 0.632340 0.388101 -0.009520
C28   C     C_R   0.276639 0.621015 0.434456 0.544911
C29   C     C_R   0.599078 0.620606 0.266940 -0.100700
C30   C     C_R   0.605772 0.630918 0.218409 -0.103747
C31   C     C_R   0.704547 0.736748 0.231650 -0.101008
C32   C     C_R   0.698011 0.726284 0.280175 -0.103930
C33   C     C_R   0.645828 0.667604 0.297837 0.042249
C34   C     C_3   0.668163 0.684311 0.794877 0.050314
C35   C     C_R   0.659052 0.688536 0.200739 0.042133
C36   C     C_1   0.672721 0.694713 0.151093 -0.054568
C37   C     C_1   0.642141 0.651810 0.347450 -0.054890
C38   C     C_1   0.691825 0.702597 0.110493 -0.008985
C39   C     C_1   0.633818 0.227245 0.388743 -0.006808
C40   C     C_R   0.620227 0.600331 0.434055 0.544286
C41   C     C_R   0.725928 0.071760 0.280551 -0.104407
C42   C     C_R   0.734259 0.056557 0.232012 -0.100909
C43   C     C_R   0.630469 0.261370 0.220910 -0.104387
C44   C     C_R   0.622319 0.276570 0.269446 -0.100803
C45   C     C_3   0.759826 0.588471 0.733254 -0.104046
C46   C     C_R   0.669243 0.181787 0.299096 0.042697
C47   C     C_R   0.685752 0.151331 0.202354 0.042632
C48   C     C_1   0.689748 0.133149 0.152992 -0.055229
C49   C     C_1   0.654085 0.199917 0.348405 -0.055213
C50   C     C_1   0.697468 0.105948 0.112578 -0.006719
C51   C     C_1   0.225956 0.637267 0.389482 -0.006780
C52   C     C_R   0.600432 0.277195 0.433865 0.544909
C53   C     C_R   0.068928 0.697280 0.281789 -0.104339
C54   C     C_R   0.053176 0.702981 0.233287 -0.100859
C55   C     C_R   0.257923 0.601745 0.221590 -0.104123
C56   C     C_3   0.655876 0.667589 0.703380 0.051175
C57   C     C_R   0.273671 0.595840 0.270077 -0.100631
C58   C     C_R   0.179204 0.644619 0.300009 0.042553
C59   C     C_R   0.147660 0.656178 0.203348 0.042581
C60   C     C_1   0.129159 0.671265 0.154071 -0.055302
C61   C     C_1   0.197989 0.643325 0.349247 -0.055123
C62   C     C_1   0.102335 0.692277 0.113748 -0.007031
C63   C     C_R   0.720713 0.055157 0.935261 0.543780
C64   C     C_3   0.644040 0.772989 0.728838 -0.097946
C65   C     C_R   0.730691 0.717869 0.932133 0.544688
C66   C     C_R   0.057397 0.729303 0.936430 0.544167
C67   C     C_3   0.679946 0.579048 0.769361 -0.099459
C68   C     C_R   0.714562 0.056304 0.067320 0.545001
C69   C     C_R   0.725541 0.717325 0.064809 0.543863
C70   C     C_R   0.053810 0.727502 0.068544 0.545153
C71   C     C_3   0.564105 0.763573 0.765085 -0.102872
C72   C     C_1   0.698713 0.702415 0.886044 -0.013935
C73   C     C_3   0.814769 0.250735 0.702000 -0.271490
C74   C     C_3   0.903985 0.260935 0.731485 -0.454778
C75   C     C_3   0.575736 0.657927 0.738739 -0.098638
C76   C     C_1   0.680633 0.693168 0.845372 -0.058927
Cr1   Cr    Cr6+3 0.413560 0.417690 0.499580 1.036179
Cr2   Cr    Cr6+3 0.418030 0.668340 0.500400 1.036003
Cr3   Cr    Cr6+3 0.668390 0.413960 0.499990 1.033192
Cr4   Cr    Cr6+3 0.919710 0.916540 0.003080 1.036094
Cr5   Cr    Cr6+3 0.665300 0.919470 0.999630 1.036082
Cr6   Cr    Cr6+3 0.916060 0.665490 0.000390 1.035999
H1    H     H_    0.483621 0.835120 0.778886 0.104461
H2    H     H_    0.734629 0.762587 0.303763 0.103360
H3    H     H_    0.761918 0.998369 0.303420 0.103276
H4    H     H_    0.629717 0.852273 0.711607 0.107135
H5    H     H_    0.776842 0.971109 0.217572 0.099797
H6    H     H_    0.592527 0.334744 0.198034 0.103014
H7    H     H_    0.577984 0.361993 0.283876 0.099044
H8    H     H_    0.995775 0.735337 0.304876 0.103380
H9    H     H_    0.967556 0.745825 0.219097 0.099571
H10   H     H_    0.331081 0.566106 0.198501 0.103481
H11   H     H_    0.359296 0.555208 0.284243 0.099823
H12   H     H_    0.556192 0.114968 0.704125 0.111586
H13   H     H_    0.504863 0.642614 0.729429 0.105381
H14   H     H_    0.693449 0.500255 0.786748 0.107729
H15   H     H_    0.840406 0.517078 0.719461 0.104070
H16   H     H_    0.819549 0.708822 0.768774 0.108451
H17   H     H_    0.807634 0.209512 0.798255 0.113504
H18   H     H_    0.570499 0.088080 0.789477 0.116137
H19   H     H_    0.863000 0.324690 0.759976 0.140570
H20   H     H_    0.965776 0.177225 0.746671 0.156382
H21   H     H_    0.951232 0.289490 0.708753 0.140952
H22   H     H_    0.860068 0.193399 0.671907 0.155929
H23   H     H_    0.075823 0.581543 0.701546 0.107594
H24   H     H_    0.754138 0.335853 0.687549 0.154970
H25   H     H_    0.049730 0.591494 0.787523 0.106067
H26   H     H_    0.267922 0.737074 0.802045 0.109031
H27   H     H_    0.293223 0.727910 0.716228 0.104260
H28   H     H_    0.558736 0.574801 0.280385 0.098623
H29   H     H_    0.570933 0.592890 0.194805 0.103757
H30   H     H_    0.746462 0.781021 0.218198 0.098919
O1    O     O_R   0.503010 0.303330 0.550820 -0.505359
O2    O     O_R   0.827060 0.642880 0.947470 -0.507026
O3    O     O_R   0.013800 0.673690 0.954100 -0.495353
O4    O     O_R   0.320040 0.522690 0.547470 -0.494932
O5    O     O_R   0.031250 0.825430 0.055080 -0.504884
O6    O     O_R   0.814180 0.011990 0.050320 -0.494697
O7    O     O_R   0.640680 0.032900 0.051920 -0.505079
O8    O     O_R   0.671090 0.815590 0.046300 -0.493617
O9    O     O_R   0.822940 0.642440 0.050310 -0.504159
O10   O     O_R   0.009970 0.673280 0.049430 -0.494807
O11   O     O_3   0.833690 0.833830 0.001040 -0.254893
O12   O     O_R   0.522480 0.657560 0.452870 -0.493531
O13   O     O_R   0.303930 0.694040 0.551750 -0.506877
O14   O     O_R   0.523510 0.657900 0.548240 -0.494714
O15   O     O_R   0.694770 0.503160 0.551780 -0.508790
O16   O     O_R   0.657990 0.319990 0.547370 -0.497779
O17   O     O_R   0.501900 0.302960 0.447930 -0.504893
O18   O     O_R   0.319020 0.522350 0.452090 -0.494715
O19   O     O_R   0.302820 0.693680 0.448870 -0.505075
O20   O     O_R   0.693670 0.502790 0.448900 -0.503825
O21   O     O_R   0.656970 0.319650 0.452000 -0.494760
O22   O     O_3   0.499990 0.499990 0.499990 -0.254423
O23   O     O_R   0.035380 0.825870 0.952240 -0.506422
O24   O     O_R   0.818010 0.012400 0.954990 -0.495337
O25   O     O_R   0.644810 0.033340 0.949080 -0.506657
O26   O     O_R   0.674910 0.816000 0.950960 -0.495210

loop_
_geom_bond_atom_site_label_1
_geom_bond_atom_site_label_2
_ccdc_geom_bond_type
C7    C10   A    
Cr3   O16   S    
C23   C45   S    
C55   C59   A    
C41   C42   A    
C35   C36   S    
C51   C61   T    
C72   C76   T    
C2    C12   T    
C16   O1    A    
C73   H24   S    
C75   H13   S    
C7    C8    A    
C53   C54   A    
Cr5   O25   S    
Cr5   O8    S    
C29   C30   A    
Cr4   O23   S    
C30   C35   A    
Cr5   O11   S    
C52   O17   A    
C24   C26   T    
Cr6   O3    S    
C68   O7    A    
C5    C6    A    
C11   C14   T    
C15   C25   T    
Cr3   O20   S    
C70   O5    A    
C29   C33   A    
C62   C70   S    
C60   C62   T    
C73   C74   S    
C64   C71   S    
C9    C13   S    
C18   H25   S    
C21   C25   S    
C68   O6    A    
C73   H22   S    
C47   C48   S    
C45   C56   S    
C8    C9    A    
C45   C67   S    
C41   C46   A    
C56   C64   S    
C1    C15   S    
C1    O4    A    
C4    C12   S    
Cr1   O4    S    
Cr2   O12   S    
Cr6   O9    S    
C28   O18   A    
C3    C13   T    
C74   H20   S    
C19   H26   S    
C58   C61   S    
C48   C50   T    
C39   C52   S    
C40   O20   A    
C38   C69   S    
C59   C60   S    
C56   C75   S    
C57   H11   S    
C52   O21   A    
C63   O25   A    
Cr1   O1    S    
C64   H4    S    
C44   C46   A    
C71   H1    S    
C54   C59   A    
Cr5   O26   S    
C40   O12   A    
Cr4   O6    S    
C7    H18   S    
C26   C66   S    
C29   H28   S    
C19   C22   A    
C8    H12   S    
Cr6   O2    S    
C66   O3    A    
Cr1   O18   S    
C33   C37   S    
C20   H27   S    
Cr2   O19   S    
C5    C9    A    
C55   H10   S    
C17   H23   S    
C16   O16   A    
C70   O10   A    
C31   C32   A    
C46   C49   S    
C65   O2    A    
C69   O9    A    
C27   C40   S    
C31   H30   S    
C23   C34   S    
C17   C18   A    
Cr1   O17   S    
Cr2   O22   S    
C74   H19   S    
C65   O26   A    
C23   C64   S    
C39   C49   T    
C55   C57   A    
C43   C44   A    
C67   H14   S    
C22   C24   S    
C67   C75   S    
Cr1   O22   S    
C43   H6    S    
Cr2   O14   S    
Cr6   O11   S    
Cr3   O22   S    
Cr3   O15   S    
Cr4   O5    S    
C4    O15   A    
C18   C22   A    
C32   H2    S    
C1    O13   A    
C34   C67   S    
C6    C10   A    
C53   C58   A    
C65   C72   S    
C41   H3    S    
Cr5   O7    S    
C69   O8    A    
Cr4   O24   S    
C4    O14   A    
C30   H29   S    
C28   O19   A    
C6    H17   S    
C19   C20   A    
C36   C38   T    
C54   H9    S    
C45   H15   S    
C32   C33   A    
C71   C75   S    
C57   C58   A    
C43   C47   A    
C27   C37   T    
C14   C63   S    
C28   C51   S    
C31   C35   A    
C42   C47   A    
C5    C73   S    
Cr3   O21   S    
C17   C21   A    
C10   C11   S    
C3    C16   S    
C66   O23   A    
C23   H16   S    
C20   C21   A    
C53   H8    S    
C63   O24   A    
C2    C56   S    
C42   H5    S    
Cr2   O13   S    
C50   C68   S    
C34   C71   S    
Cr6   O10   S    
C44   H7    S    
C34   C76   S    
C74   H21   S    
Cr4   O11   S    
