data_mof_unit_13419.cif
_audit_creation_date              2012-12-11T15:34:54-0500
_audit_creation_method            fapswitch 2.2
_symmetry_space_group_name_H-M    P1
_symmetry_Int_Tables_number       1
_space_group_crystal_system       triclinic
_cell_length_a                    30.562946
_cell_length_b                    7.248358
_cell_length_c                    25.988421
_cell_angle_alpha                 90.000425
_cell_angle_beta                  112.007225
_cell_angle_gamma                 89.998666
_cell_volume                      5337.75299447

loop_
_atom_site_label
_atom_site_type_symbol
_atom_type_description
_atom_site_fract_x
_atom_site_fract_y
_atom_site_fract_z
_atom_type_partial_charge
O1    O     O_R   0.295360 0.592990 0.320420 -0.533018
O2    O     O_R   0.704640 0.407010 0.679580 -0.533017
O3    O     O_R   0.204640 0.092990 0.179580 -0.533019
O4    O     O_R   0.795360 0.907010 0.820420 -0.533019
O5    O     O_R   0.294060 0.265620 0.213230 -0.540834
O6    O     O_R   0.705940 0.734380 0.786770 -0.540837
O7    O     O_R   0.205940 0.765620 0.286770 -0.540837
O8    O     O_R   0.794060 0.234380 0.713230 -0.540838
C1    C     C_R   0.304225 0.432266 0.199588 0.696877
C2    C     C_R   0.695776 0.567734 0.800413 0.696880
C3    C     C_R   0.195774 0.932270 0.300411 0.696883
C4    C     C_R   0.804226 0.067730 0.699589 0.696885
O9    O     O_R   0.300850 0.263360 0.322080 -0.533692
O10   O     O_R   0.699150 0.736640 0.677920 -0.533692
O11   O     O_R   0.199150 0.763360 0.177920 -0.533690
O12   O     O_R   0.800850 0.236640 0.822080 -0.533691
O13   O     O_R   0.211480 0.091820 0.289210 -0.538158
O14   O     O_R   0.788520 0.908180 0.710790 -0.538160
O15   O     O_R   0.288520 0.591820 0.210790 -0.538154
O16   O     O_R   0.711480 0.408180 0.789210 -0.538156
C5    C     C_R   0.313271 0.431465 0.343170 0.685186
C6    C     C_R   0.686729 0.568535 0.656830 0.685189
C7    C     C_R   0.186729 0.931467 0.156830 0.685186
C8    C     C_R   0.813271 0.068533 0.843170 0.685186
O17   O     O_3   0.220670 0.426670 0.239090 -0.374951
O18   O     O_3   0.779330 0.573330 0.760910 -0.374951
O19   O     O_3   0.279330 0.926670 0.260910 -0.374947
O20   O     O_3   0.720670 0.073330 0.739090 -0.374948
V1    V     V_3+5 0.255440 0.152290 0.252020 1.417158
V2    V     V_3+5 0.744560 0.847710 0.747980 1.417155
V3    V     V_3+5 0.244560 0.652290 0.247980 1.417154
V4    V     V_3+5 0.755440 0.347710 0.752020 1.417153
C9    C     C_R   0.850248 0.063695 0.899374 -0.040156
C10   C     C_R   0.149752 0.936305 0.100626 -0.040157
C11   C     C_R   0.649751 0.563703 0.600626 -0.040162
C12   C     C_R   0.350249 0.436297 0.399374 -0.040161
C13   C     C_R   0.873752 0.127229 0.997349 -0.150153
C14   C     C_R   0.126248 0.872771 0.002651 -0.150156
C15   C     C_R   0.626244 0.627281 0.502653 -0.150154
C16   C     C_R   0.373756 0.372718 0.497347 -0.150156
C17   C     C_R   0.838919 0.118240 0.944359 -0.159684
C18   C     C_R   0.161081 0.881760 0.055641 -0.159685
C19   C     C_R   0.661078 0.618277 0.555642 -0.159675
C20   C     C_R   0.338922 0.381723 0.444357 -0.159675
C21   C     C_R   0.897213 0.018619 0.907750 -0.209177
C22   C     C_R   0.102787 0.981381 0.092250 -0.209178
C23   C     C_R   0.602787 0.518610 0.592249 -0.209180
C24   C     C_R   0.397212 0.481390 0.407751 -0.209180
C25   C     C_R   0.933806 0.030020 0.961469 0.086143
C26   C     C_R   0.066193 0.969980 0.038531 0.086143
C27   C     C_R   0.566193 0.530025 0.538531 0.086143
C28   C     C_R   0.433807 0.469974 0.461469 0.086143
C29   C     C_R   0.920861 0.085067 0.006248 0.130684
C30   C     C_R   0.079139 0.914933 0.993752 0.130685
C31   C     C_R   0.579137 0.585104 0.493753 0.130685
C32   C     C_R   0.420863 0.414895 0.506247 0.130685
C33   C     C_R   0.982630 0.991423 0.972313 0.056350
C34   C     C_R   0.017370 0.008577 0.027687 0.056350
C35   C     C_R   0.517371 0.491412 0.527686 0.056351
C36   C     C_R   0.482629 0.508586 0.472313 0.056352
C37   C     C_R   0.002094 0.063124 0.070341 -0.180388
C38   C     C_R   0.997906 0.936876 0.929659 -0.180388
C39   C     C_R   0.497903 0.563167 0.429661 -0.180392
C40   C     C_R   0.502097 0.436832 0.570338 -0.180391
C41   C     C_R   0.954946 0.100043 0.059714 -0.187895
C42   C     C_R   0.045054 0.899957 0.940286 -0.187896
C43   C     C_R   0.545051 0.600098 0.440289 -0.187898
C44   C     C_R   0.454950 0.399900 0.559711 -0.187898
H1    H     H_    0.945072 0.142091 0.093932 0.135764
H2    H     H_    0.054928 0.857910 0.906068 0.135764
H3    H     H_    0.554923 0.642173 0.406072 0.135757
H4    H     H_    0.445077 0.357826 0.593928 0.135760
H5    H     H_    0.096049 0.020090 0.128612 0.097586
H6    H     H_    0.903950 0.979910 0.871388 0.097586
H7    H     H_    0.403949 0.520119 0.371389 0.097585
H8    H     H_    0.596051 0.479880 0.628610 0.097587
H9    H     H_    0.197032 0.844841 0.061679 0.117015
H10   H     H_    0.802968 0.155159 0.938321 0.117017
H11   H     H_    0.302972 0.344791 0.438319 0.117020
H12   H     H_    0.697028 0.655210 0.561681 0.117021
H13   H     H_    0.863901 0.169969 0.031507 0.127630
H14   H     H_    0.136099 0.830031 0.968493 0.127628
H15   H     H_    0.636093 0.670046 0.468496 0.127629
H16   H     H_    0.363907 0.329953 0.531504 0.127629
H17   H     H_    0.025808 0.079358 0.112816 0.129145
H18   H     H_    0.974192 0.920642 0.887184 0.129145
H19   H     H_    0.474189 0.579418 0.387186 0.129139
H20   H     H_    0.525811 0.420580 0.612813 0.129141
C45   C     C_R   0.082341 0.100731 0.465075 0.617742
C46   C     C_R   0.917659 0.899271 0.534924 0.617740
C47   C     C_R   0.417671 0.600732 0.034939 0.617599
C48   C     C_R   0.582378 0.399371 0.965118 0.617689
N1    N     N_R   0.073890 0.969796 0.424457 -0.558232
N2    N     N_R   0.926110 0.030204 0.575543 -0.558229
N3    N     N_R   0.426112 0.469759 0.075546 -0.558193
N4    N     N_R   0.573918 0.530283 0.924492 -0.558235
C49   C     C_R   0.036794 0.849287 0.412990 0.607455
C50   C     C_R   0.963206 0.150710 0.587010 0.607448
C51   C     C_R   0.463205 0.349234 0.087012 0.607247
C52   C     C_R   0.536821 0.650789 0.913026 0.607399
C53   C     C_R   0.008371 0.848287 0.445564 -0.093820
C54   C     C_R   0.991630 0.151708 0.554437 -0.093818
C55   C     C_R   0.491662 0.348354 0.054476 -0.093825
C56   C     C_R   0.508392 0.651763 0.945595 -0.093874
C57   C     C_R   0.015152 0.991445 0.485031 -0.020943
C58   C     C_R   0.984849 0.008551 0.514969 -0.020936
C59   C     C_R   0.484874 0.491493 0.015002 -0.020718
C60   C     C_R   0.515181 0.508622 0.985068 -0.020927
C61   C     C_R   0.052327 0.117806 0.494710 -0.002648
C62   C     C_R   0.947673 0.882192 0.505290 -0.002646
C63   C     C_R   0.447688 0.617822 0.005311 -0.002549
C64   C     C_R   0.552370 0.382308 0.994760 -0.002569
C65   C     C_R   0.972379 0.714958 0.438979 -0.038816
C66   C     C_R   0.027622 0.285034 0.561022 -0.038811
C67   C     C_R   0.527696 0.215171 0.061110 -0.038712
C68   C     C_R   0.472390 0.785056 0.939000 -0.038684
C69   C     C_R   0.941768 0.737834 0.467359 -0.153350
C70   C     C_R   0.058233 0.262161 0.532642 -0.153363
C71   C     C_R   0.558302 0.238037 0.032725 -0.153376
C72   C     C_R   0.441778 0.762170 0.967376 -0.153302
O21   O     O_2   0.119707 0.214927 0.476784 -0.525563
O22   O     O_2   0.880292 0.785079 0.523214 -0.525564
O23   O     O_2   0.380307 0.714948 0.023235 -0.525597
O24   O     O_2   0.619747 0.285185 0.976825 -0.525567
O25   O     O_2   0.026264 0.737347 0.368569 -0.503615
O26   O     O_2   0.973737 0.262649 0.631432 -0.503622
O27   O     O_2   0.473693 0.237123 0.131391 -0.503713
O28   O     O_2   0.526294 0.762758 0.868611 -0.503641
H21   H     H_    0.914368 0.635946 0.461671 0.187609
H22   H     H_    0.085633 0.364049 0.538331 0.187599
H23   H     H_    0.585729 0.136228 0.038452 0.187340
H24   H     H_    0.414370 0.864037 0.961676 0.187506
C73   C     C_R   0.872802 0.205253 0.609903 -0.086120
C74   C     C_R   0.127202 0.794752 0.390101 -0.086122
C75   C     C_R   0.627235 0.705279 0.890139 -0.086137
C76   C     C_R   0.372768 0.294763 0.109861 -0.086111
H25   H     H_    0.877198 0.326432 0.587936 0.152856
H26   H     H_    0.122808 0.673577 0.412071 0.152854
H27   H     H_    0.622856 0.826444 0.912122 0.152825
H28   H     H_    0.377141 0.173618 0.087865 0.152834
C77   C     C_R   0.843608 0.215063 0.640438 -0.197627
C78   C     C_R   0.156395 0.784942 0.359566 -0.197626
C79   C     C_R   0.656423 0.715070 0.859596 -0.197614
C80   C     C_R   0.343574 0.284961 0.140396 -0.197622
H29   H     H_    0.826132 0.344345 0.641306 0.134861
H30   H     H_    0.173875 0.655664 0.358702 0.134861
H31   H     H_    0.673914 0.844324 0.858740 0.134860
H32   H     H_    0.326072 0.155719 0.141235 0.134864
C81   C     C_R   0.836327 0.058927 0.668463 -0.052588
C82   C     C_R   0.163673 0.941073 0.331537 -0.052589
C83   C     C_R   0.663681 0.558948 0.831547 -0.052589
C84   C     C_R   0.336324 0.441058 0.168460 -0.052595
C85   C     C_R   0.859550 0.893547 0.665767 -0.213105
C86   C     C_R   0.140447 0.106448 0.334229 -0.213106
C87   C     C_R   0.640443 0.393601 0.834230 -0.213102
C88   C     C_R   0.359576 0.606391 0.165799 -0.213096
H33   H     H_    0.855056 0.770969 0.687105 0.137652
H34   H     H_    0.144937 0.229022 0.312887 0.137653
H35   H     H_    0.644918 0.271038 0.812873 0.137651
H36   H     H_    0.355107 0.728935 0.187168 0.137655
C89   C     C_R   0.889296 0.884706 0.635916 -0.080139
C90   C     C_R   0.110701 0.115290 0.364080 -0.080136
C91   C     C_R   0.610704 0.384778 0.864091 -0.080143
C92   C     C_R   0.389322 0.615224 0.135947 -0.080170
H37   H     H_    0.907208 0.756483 0.635078 0.157244
H38   H     H_    0.092786 0.243509 0.364914 0.157246
H39   H     H_    0.592780 0.256582 0.864921 0.157225
H40   H     H_    0.407257 0.743407 0.135137 0.157203
C93   C     C_R   0.895949 0.040004 0.607273 0.356180
C94   C     C_R   0.104051 0.959996 0.392727 0.356182
C95   C     C_R   0.604073 0.540064 0.892755 0.356213
C96   C     C_R   0.395946 0.459964 0.107270 0.356232
C97   C     C_2   0.967167 0.541668 0.406824 0.838086
O29   O     O_2   0.001856 0.449024 0.411374 -0.544902
O30   O     O_R   0.922115 0.478507 0.373895 -0.656247
H41   H     H_    0.922966 0.356655 0.355130 0.306586
C98   C     C_2   0.032835 0.458319 0.593179 0.838092
O31   O     O_2   0.998146 0.550976 0.588623 -0.544911
O32   O     O_R   0.077886 0.521457 0.626117 -0.656242
H42   H     H_    0.077035 0.643307 0.644883 0.306585
C99   C     C_2   0.532993 0.042105 0.093377 0.838357
O33   O     O_2   0.498371 0.948856 0.088706 -0.544938
O34   O     O_R   0.578065 0.979901 0.126580 -0.656126
H43   H     H_    0.577282 0.858136 0.145421 0.306615
C100  C     C_2   0.467166 0.958319 0.906832 0.838164
O35   O     O_2   0.501844 0.051080 0.911418 -0.544906
O36   O     O_R   0.422112 0.021308 0.873844 -0.656237
H44   H     H_    0.422953 0.143162 0.855074 0.306580

loop_
_geom_bond_atom_site_label_1
_geom_bond_atom_site_label_2
_ccdc_geom_bond_type
O17   V3    S    
C51   C55   A    
C25   C29   A    
C1    C84   S    
O1    C5    A    
O19   V1    S    
C53   C65   A    
C16   H16   S    
C57   C58   A    
O3    C7    A    
C10   C18   A    
C48   N4    A    
C80   H32   S    
C11   C23   A    
C11   C19   A    
C100  O35   D    
C77   C81   A    
C33   C38   A    
C5    C12   S    
C99   O33   D    
C73   H25   S    
C6    C11   S    
C38   H18   S    
C35   C40   A    
C26   C30   A    
C36   C39   A    
C70   H22   S    
C40   C44   A    
O9    V1    S    
C23   H8    S    
C14   C18   A    
C78   H30   S    
C48   O24   S    
N2    C93   S    
C58   C62   A    
O4    C8    A    
N3    C51   A    
C100  O36   S    
N2    C50   A    
C45   C61   A    
O1    V3    S    
O13   V1    S    
C31   C43   A    
O2    V4    S    
C47   C63   A    
O3    V1    S    
C81   C85   A    
C73   C93   A    
C28   C36   A    
C90   H38   S    
C76   H28   S    
C1    O15   A    
C52   C56   A    
C15   C31   A    
C76   C96   A    
C2    O16   A    
C16   C32   A    
N4    C95   S    
C90   C94   A    
O2    C6    A    
C71   H23   S    
C59   C60   A    
C54   C58   A    
C10   C22   A    
C83   C87   A    
C69   H21   S    
N3    C96   S    
C43   H3    S    
C77   H29   S    
C13   C29   A    
C7    C10   S    
C34   C37   A    
O11   C7    A    
O15   V3    S    
C35   C36   A    
O12   C8    A    
C47   O23   S    
C14   H14   S    
C13   C17   A    
C46   O22   S    
C24   H7    S    
C13   H13   S    
O10   V2    S    
C62   C69   A    
C67   C99   S    
C72   H24   S    
C61   C70   A    
C46   N2    A    
O5    V1    S    
C97   O30   S    
C53   C57   A    
C39   C43   A    
N1    C94   S    
O7    V3    S    
C38   C42   A    
C87   H35   S    
C26   C34   A    
C84   C88   A    
C88   H36   S    
C44   H4    S    
C49   O25   S    
C99   O34   S    
C17   H10   S    
O18   V4    S    
C48   C64   A    
C15   C19   A    
C87   C91   A    
C19   H12   S    
C32   C44   A    
C47   N3    A    
C45   N1    A    
O4    V2    S    
C68   C72   A    
C85   C89   A    
C21   H6    S    
O8    V4    S    
C64   C71   A    
C79   H31   S    
O34   H43   S    
O5    C1    A    
C55   C67   A    
C54   C66   A    
C9    C21   A    
C2    C83   S    
C74   C78   A    
C3    C82   S    
O7    C3    A    
O30   H41   S    
C14   C30   A    
C24   C28   A    
C91   H39   S    
O8    C4    A    
C66   C98   S    
C29   C41   A    
C21   C25   A    
O9    C5    A    
C66   C70   A    
C37   H17   S    
C51   O27   S    
C92   H40   S    
O6    V2    S    
C75   C95   A    
C82   C86   A    
O14   V2    S    
C65   C69   A    
C92   C96   A    
C27   C35   A    
C46   C62   A    
N1    C49   A    
C56   C60   A    
C91   C95   A    
C65   C97   S    
O16   V4    S    
C50   O26   S    
C57   C61   A    
C3    O13   A    
C39   H19   S    
C52   O28   S    
C59   C63   A    
C4    C81   S    
C86   C90   A    
C20   H11   S    
C74   H26   S    
C25   C33   A    
C23   C27   A    
O11   V3    S    
C30   C42   A    
O12   V4    S    
C68   C100  S    
C22   C26   A    
C67   C71   A    
C8    C9    S    
C75   H27   S    
C9    C17   A    
C56   C68   A    
O10   C6    A    
O20   V2    S    
C89   C93   A    
O36   H44   S    
C76   C80   A    
C50   C54   A    
C78   C82   A    
C33   C34   A    
C42   H2    S    
C45   O21   S    
C41   H1    S    
N4    C52   A    
C79   C83   A    
C75   C79   A    
C98   O32   S    
C12   C24   A    
C27   C31   A    
C37   C41   A    
C85   H33   S    
C89   H37   S    
C15   H15   S    
C12   C20   A    
O6    C2    A    
C97   O29   D    
O32   H42   S    
C60   C64   A    
C16   C20   A    
C88   C92   A    
C18   H9    S    
C80   C84   A    
C98   O31   D    
C74   C94   A    
C4    O14   A    
C86   H34   S    
C63   C72   A    
C55   C59   A    
C73   C77   A    
C40   H20   S    
C22   H5    S    
C49   C53   A    
C28   C32   A    
