data_mof_unit_41399.cif
_audit_creation_date              2012-12-11T15:37:15-0500
_audit_creation_method            fapswitch 2.2
_symmetry_space_group_name_H-M    P1
_symmetry_Int_Tables_number       1
_space_group_crystal_system       monoclinic
_cell_length_a                    16.606199
_cell_length_b                    7.089217
_cell_length_c                    15.199323
_cell_angle_alpha                 90.0
_cell_angle_beta                  94.970014
_cell_angle_gamma                 90.0
_cell_volume                      1782.61191028

loop_
_atom_site_label
_atom_site_type_symbol
_atom_type_description
_atom_site_fract_x
_atom_site_fract_y
_atom_site_fract_z
_atom_type_partial_charge
O1    O     O_R   0.578230 0.505720 0.424270 -0.532504
O2    O     O_R   0.421770 0.005720 0.575730 -0.532504
O3    O     O_R   0.412470 0.173950 0.404530 -0.544282
O4    O     O_R   0.587530 0.673950 0.595470 -0.544282
C1    C     C_R   0.383752 0.346733 0.382736 0.656586
C2    C     C_R   0.616248 0.846733 0.617264 0.656587
O5    O     O_R   0.577030 0.175880 0.413670 -0.531826
O6    O     O_R   0.422970 0.675880 0.586330 -0.531826
O7    O     O_R   0.587510 0.007580 0.584940 -0.541539
O8    O     O_R   0.412490 0.507580 0.415060 -0.541539
C3    C     C_R   0.602989 0.344775 0.392738 0.721910
C4    C     C_R   0.397011 0.844775 0.607262 0.721910
O9    O     O_3   0.503240 0.339850 0.556180 -0.375153
O10   O     O_3   0.496760 0.839850 0.443820 -0.375154
V1    V     V_3+5 0.499400 0.064230 0.489580 1.370266
V2    V     V_3+5 0.500600 0.564230 0.510420 1.370267
C5    C     C_1   0.334701 0.854997 0.669708 -0.195704
C6    C     C_1   0.665299 0.354997 0.330292 -0.195704
C7    C     C_1   0.282019 0.865792 0.720987 -0.001302
C8    C     C_1   0.717980 0.365792 0.279012 -0.001302
C9    C     C_1   0.219649 0.879357 0.780944 -0.000580
C10   C     C_1   0.780351 0.379357 0.219056 -0.000580
C11   C     C_1   0.166742 0.890076 0.831961 -0.195032
C12   C     C_1   0.833258 0.390076 0.168039 -0.195032
C13   C     C_3   0.742034 0.765354 0.844992 0.187120
C14   C     C_3   0.257966 0.265354 0.155008 0.187120
H1    H     H_    0.765705 0.618653 0.853928 0.113480
H2    H     H_    0.234295 0.118653 0.146072 0.113480
C15   C     C_3   0.668717 0.759390 0.772935 -0.418521
C16   C     C_3   0.331283 0.259389 0.227065 -0.418521
H3    H     H_    0.613715 0.820978 0.798582 0.136861
H4    H     H_    0.386284 0.320977 0.201418 0.136861
H5    H     H_    0.653961 0.609401 0.757038 0.131640
H6    H     H_    0.346039 0.109401 0.242962 0.131640
H7    H     H_    0.864078 0.652339 0.742253 0.143642
H8    H     H_    0.135921 0.152340 0.257747 0.143642
H9    H     H_    0.752908 0.628641 0.642891 0.151948
H10   H     H_    0.247092 0.128641 0.357109 0.151948
C17   C     C_3   0.838403 0.794953 0.727304 -0.403285
C18   C     C_3   0.161597 0.294954 0.272696 -0.403286
C19   C     C_3   0.779876 0.086855 0.787902 -0.344494
C20   C     C_3   0.220124 0.586855 0.212098 -0.344494
C21   C     C_3   0.812182 0.887959 0.812948 0.051539
C22   C     C_3   0.187818 0.387959 0.187052 0.051539
H11   H     H_    0.830544 0.169532 0.763638 0.151872
H12   H     H_    0.169456 0.669532 0.236361 0.151872
H13   H     H_    0.762273 0.163289 0.847219 0.116417
H14   H     H_    0.237727 0.663288 0.152781 0.116417
C23   C     C_3   0.687884 0.867076 0.687663 0.076910
C24   C     C_3   0.312116 0.367076 0.312337 0.076909
C25   C     C_3   0.765474 0.776892 0.656395 -0.342987
C26   C     C_3   0.234525 0.276892 0.343604 -0.342986
C27   C     C_3   0.706628 0.078857 0.717068 -0.002890
C28   C     C_3   0.293371 0.578857 0.282932 -0.002890
H15   H     H_    0.653276 0.126566 0.750925 0.091477
H16   H     H_    0.346724 0.626566 0.249075 0.091477
H17   H     H_    0.887001 0.879896 0.700515 0.140651
H18   H     H_    0.112999 0.379897 0.299485 0.140651
H19   H     H_    0.781158 0.829767 0.591921 0.129990
H20   H     H_    0.218842 0.329767 0.408079 0.129989
O11   O     O_R   0.087480 0.241090 0.084980 -0.541393
O12   O     O_R   0.912520 0.741090 0.915020 -0.541393
O13   O     O_R   0.922960 0.569060 0.086330 -0.530735
O14   O     O_R   0.077040 0.069060 0.913670 -0.530735
C29   C     C_R   0.896148 0.400254 0.106283 0.710770
C30   C     C_R   0.103852 0.900254 0.893717 0.710771
O15   O     O_R   0.087520 0.570920 0.095480 -0.546526
O16   O     O_R   0.912480 0.070920 0.904520 -0.546526
O17   O     O_R   0.078240 0.739160 0.924260 -0.530198
O18   O     O_R   0.921760 0.239160 0.075740 -0.530198
C31   C     C_R   0.116211 0.401453 0.117265 0.703476
C32   C     C_R   0.883789 0.901453 0.882734 0.703476
O19   O     O_3   0.996740 0.404980 0.943840 -0.372434
O20   O     O_3   0.003260 0.904980 0.056160 -0.372435
V3    V     V_3+5 0.000600 0.680640 0.010420 1.416484
V4    V     V_3+5 0.999400 0.180640 0.989580 1.416484
C33   C     C_3   0.716942 0.235071 0.646547 -0.330501
C34   C     C_3   0.772679 0.189353 0.573770 -0.296428
C35   C     C_3   0.796966 0.365247 0.524605 -0.807108
H21   H     H_    0.743379 0.453531 0.504364 0.228954
H22   H     H_    0.841396 0.449136 0.567095 0.224705
H23   H     H_    0.826090 0.322944 0.464564 0.227216
H24   H     H_    0.829325 0.122862 0.602701 0.199448
H25   H     H_    0.740372 0.093561 0.524829 0.194338
H26   H     H_    0.658020 0.286915 0.616285 0.202864
H27   H     H_    0.742149 0.356730 0.684513 0.149522
C36   C     C_3   0.283058 0.735071 0.353452 -0.330501
C37   C     C_3   0.227321 0.689353 0.426230 -0.296428
C38   C     C_3   0.203034 0.865247 0.475395 -0.807108
H28   H     H_    0.256621 0.953531 0.495635 0.228954
H29   H     H_    0.158604 0.949136 0.432905 0.224705
H30   H     H_    0.173910 0.822944 0.535436 0.227216
H31   H     H_    0.170675 0.622862 0.397299 0.199448
H32   H     H_    0.259627 0.593562 0.475171 0.194338
H33   H     H_    0.341980 0.786915 0.383715 0.202864
H34   H     H_    0.257851 0.856730 0.315487 0.149522
N1    N     N_2   0.717543 0.833281 0.929171 -0.523490
H35   H     H_    0.687289 0.960455 0.926265 0.255295
C39   C     C_3   0.681521 0.694319 0.983437 -0.566298
H36   H     H_    0.669367 0.759019 0.047488 0.203863
H37   H     H_    0.723493 0.573785 0.997243 0.197118
H38   H     H_    0.623633 0.642596 0.949849 0.188848
N2    N     N_2   0.282456 0.333280 0.070829 -0.523490
H39   H     H_    0.312711 0.460454 0.073735 0.255295
C40   C     C_3   0.318479 0.194318 0.016562 -0.566297
H40   H     H_    0.330632 0.259017 0.952512 0.203863
H41   H     H_    0.276506 0.073784 0.002756 0.197118
H42   H     H_    0.376366 0.142593 0.050151 0.188848

loop_
_geom_bond_atom_site_label_1
_geom_bond_atom_site_label_2
_ccdc_geom_bond_type
C17   C25   S    
C36   C37   S    
O13   C29   A    
C3    C6    S    
C21   C32   S    
O19   V3    S    
C27   C33   S    
O1    C3    A    
O14   V4    S    
O2    C4    A    
C13   C21   S    
C2    O7    A    
N1    H35   S    
C14   C22   S    
C15   C23   S    
C33   C34   S    
O5    C3    A    
C40   H41   S    
C24   C28   S    
O20   V4    S    
C11   C30   S    
C7    C9    S    
C28   C36   S    
H9    C25   S    
C30   O17   A    
H10   C26   S    
C29   O18   A    
C17   H17   S    
C15   H5    S    
C22   C31   S    
C20   H12   S    
C26   H20   S    
C34   H24   S    
C23   C25   S    
C36   H33   S    
C4    C5    S    
C24   C26   S    
C38   H29   S    
C6    C8    T    
O6    C4    A    
O11   C31   A    
O5    V1    S    
C16   C24   S    
C33   H26   S    
O6    V2    S    
C19   C21   S    
C20   C22   S    
N1    C39   S    
C37   H32   S    
C27   H15   S    
O11   V4    S    
C13   C15   S    
C40   H42   S    
C28   H16   S    
C18   H18   S    
O20   V3    S    
C16   H6    S    
H8    C18   S    
O4    C2    A    
C35   H22   S    
C34   C35   S    
C17   C21   S    
C18   C26   S    
O14   C30   A    
O4    V2    S    
H7    C17   S    
C14   N2    S    
C39   H36   S    
O16   C32   A    
C36   H34   S    
C19   H13   S    
O12   C32   A    
N2    C40   S    
O1    V2    S    
C20   H14   S    
O16   V4    S    
C38   H30   S    
O2    V1    S    
C19   C27   S    
C12   C29   S    
C13   N1    S    
C39   H37   S    
C8    C10   S    
C33   H27   S    
C14   C16   S    
C9    C11   T    
O18   V4    S    
O19   V4    S    
C10   C12   T    
C1    C24   S    
C25   H19   S    
O3    V1    S    
C37   H31   S    
O3    C1    A    
C35   H23   S    
C13   H1    S    
C40   H40   S    
C14   H2    S    
O7    V1    S    
C1    O8    A    
C15   H3    S    
O8    V2    S    
C20   C28   S    
C16   H4    S    
O13   V3    S    
C23   C27   S    
C5    C7    T    
O17   V3    S    
O15   C31   A    
C2    C23   S    
O12   V3    S    
C35   H21   S    
C34   H25   S    
C18   C22   S    
C39   H38   S    
O15   V3    S    
C37   C38   S    
O9    V2    S    
N2    H39   S    
C19   H11   S    
O10   V1    S    
C38   H28   S    
