data_mof_unit_60672.cif
_audit_creation_date              2012-12-10T18:20:28-0500
_audit_creation_method            fapswitch 2.2
_symmetry_space_group_name_H-M    P1
_symmetry_Int_Tables_number       1
_space_group_crystal_system       triclinic
_cell_length_a                    21.516551
_cell_length_b                    21.502727
_cell_length_c                    22.2533
_cell_angle_alpha                 119.54531
_cell_angle_beta                  119.753773
_cell_angle_gamma                 89.745911
_cell_volume                      7372.14769911

loop_
_atom_site_label
_atom_site_type_symbol
_atom_type_description
_atom_site_fract_x
_atom_site_fract_y
_atom_site_fract_z
_atom_type_partial_charge
C1    C     C_R   0.501666 0.123014 0.503580 0.881280
C2    C     C_R   0.498308 0.876969 0.496382 0.931665
C3    C     C_3   0.711496 0.205814 0.917312 0.072585
C4    C     C_3   0.288347 0.794012 0.082687 0.070630
C5    C     C_3   0.728193 0.318758 0.049076 -0.675473
C6    C     C_3   0.275979 0.686072 0.951071 -0.676593
C7    C     C_3   0.794115 0.288516 0.082648 0.186206
C8    C     C_3   0.205720 0.711330 0.917351 0.186227
C9    C     C_3   0.758819 0.205373 0.047981 0.297421
C10   C     C_3   0.234569 0.795868 0.951919 0.297756
C11   C     C_3   0.712147 0.155216 0.949857 -0.200003
C12   C     C_3   0.281166 0.845780 0.050042 -0.203885
C13   C     C_1   0.838870 0.335218 0.174193 0.052030
C14   C     C_1   0.161039 0.664725 0.825807 0.051930
C15   C     C_1   0.665060 0.161185 0.825756 0.059165
C16   C     C_1   0.334881 0.838694 0.174245 0.060986
C17   C     C_1   0.626826 0.124592 0.750784 -0.156646
C18   C     C_1   0.373165 0.875326 0.249218 -0.160561
C19   C     C_3   0.459861 0.237421 0.542768 -0.029946
C20   C     C_3   0.539028 0.761926 0.455886 -0.043534
C21   C     C_3   0.463275 0.310331 0.545164 -0.478437
C22   C     C_3   0.535421 0.688923 0.453305 -0.475440
C23   C     C_R   0.581405 0.080933 0.661956 0.913254
C24   C     C_R   0.418596 0.919018 0.338045 0.877705
C25   C     C_3   0.582334 0.240438 0.549973 -0.477886
C26   C     C_3   0.417601 0.759906 0.450842 -0.495396
C27   C     C_3   0.457038 0.165366 0.409355 0.168533
C28   C     C_3   0.543698 0.834579 0.590359 0.152777
C29   C     C_3   0.500311 0.190486 0.502220 0.052473
C30   C     C_3   0.499532 0.809375 0.497523 0.085719
C31   C     C_3   0.498500 0.309754 0.498842 -0.001570
C32   C     C_3   0.501557 0.690197 0.501064 0.026811
C33   C     C_3   0.581078 0.310524 0.547531 -0.520976
C34   C     C_3   0.419030 0.690063 0.453756 -0.520044
C35   C     C_3   0.454202 0.236336 0.407176 0.333854
C36   C     C_3   0.547162 0.763648 0.592732 0.273201
C37   C     C_3   0.701271 0.552630 0.479952 -0.560342
C38   C     C_3   0.298371 0.446906 0.519276 -0.560287
C39   C     C_3   0.833771 0.522300 0.585719 -0.423331
C40   C     C_3   0.166358 0.478436 0.414493 -0.423670
C41   C     C_3   0.764807 0.520792 0.591214 0.256027
C42   C     C_3   0.235343 0.479949 0.409035 0.255886
C43   C     C_3   0.691287 0.497405 0.502766 0.109812
C44   C     C_3   0.308724 0.502673 0.497241 0.110168
C45   C     C_3   0.752001 0.417715 0.432320 -0.404029
C46   C     C_3   0.248238 0.582120 0.568209 -0.404646
C47   C     C_3   0.679631 0.417152 0.430983 -0.063382
C48   C     C_3   0.320592 0.582722 0.569517 -0.062857
C49   C     C_R   0.877333 0.498594 0.496870 0.869701
C50   C     C_R   0.122632 0.501365 0.503053 0.869079
C51   C     C_R   0.919267 0.418691 0.338013 0.895654
C52   C     C_R   0.080732 0.581308 0.661988 0.895938
C53   C     C_R   0.377901 0.502384 0.498994 0.839604
C54   C     C_R   0.622108 0.497704 0.501012 0.840253
C55   C     C_R   0.499437 0.378110 0.499432 0.894518
C56   C     C_R   0.500664 0.621883 0.500556 0.895904
C57   C     C_3   0.809519 0.498569 0.497468 0.066709
C58   C     C_3   0.190457 0.501407 0.502472 0.067165
C59   C     C_3   0.772710 0.555690 0.479850 -0.035351
C60   C     C_3   0.226889 0.443770 0.519291 -0.034986
C61   C     C_3   0.678385 0.269385 0.951336 0.263526
C62   C     C_3   0.325737 0.735520 0.048812 0.265878
C63   C     C_3   0.794436 0.243445 0.952495 0.158634
C64   C     C_3   0.207629 0.750179 0.047458 0.158326
C65   C     C_3   0.843135 0.293740 0.050843 -0.131747
C66   C     C_3   0.159031 0.699945 0.949114 -0.130876
C67   C     C_1   0.875573 0.373476 0.249170 -0.183161
C68   C     C_1   0.124386 0.626513 0.750831 -0.183349
H1    H     H_    0.650505 0.533889 0.417169 0.186395
H2    H     H_    0.349057 0.465202 0.581921 0.186190
H3    H     H_    0.653145 0.130522 0.926105 0.154578
H4    H     H_    0.338724 0.874941 0.073818 0.156401
H5    H     H_    0.719084 0.205725 0.066564 0.060909
H6    H     H_    0.273213 0.800206 0.933369 0.061937
H7    H     H_    0.694031 0.320130 0.074053 0.205844
H8    H     H_    0.308859 0.689153 0.926132 0.205623
H9    H     H_    0.399204 0.203426 0.502409 0.202001
H10   H     H_    0.599745 0.795497 0.495630 0.205649
H11   H     H_    0.405801 0.315650 0.516630 0.142313
H12   H     H_    0.592683 0.682937 0.480707 0.143867
H13   H     H_    0.737731 0.396021 0.368651 0.138580
H14   H     H_    0.262462 0.603282 0.631744 0.138337
H15   H     H_    0.497521 0.360866 0.611164 0.199494
H16   H     H_    0.500209 0.638508 0.387269 0.198428
H17   H     H_    0.616666 0.257489 0.616067 0.202242
H18   H     H_    0.382695 0.742584 0.384663 0.202830
H19   H     H_    0.614608 0.361906 0.612989 0.218331
H20   H     H_    0.384576 0.638515 0.388437 0.217144
H21   H     H_    0.489013 0.136408 0.382628 0.060326
H22   H     H_    0.512017 0.864085 0.617186 0.066463
H23   H     H_    0.483564 0.237338 0.378024 0.089739
H24   H     H_    0.519140 0.763239 0.623330 0.098796
H25   H     H_    0.611045 0.208365 0.520508 0.197839
H26   H     H_    0.389430 0.792409 0.480849 0.199152
H27   H     H_    0.608781 0.311604 0.516929 0.174740
H28   H     H_    0.392425 0.689820 0.485643 0.175199
H29   H     H_    0.703982 0.610217 0.523171 0.159510
H30   H     H_    0.295497 0.389401 0.475672 0.159251
H31   H     H_    0.633010 0.404508 0.368880 0.149355
H32   H     H_    0.367129 0.594896 0.631406 0.149134
H33   H     H_    0.863458 0.484427 0.601144 0.184052
H34   H     H_    0.137022 0.516744 0.399669 0.184172
H35   H     H_    0.876410 0.579697 0.633294 0.162520
H36   H     H_    0.123465 0.421180 0.366489 0.161734
H37   H     H_    0.777932 0.378695 0.448564 0.206952
H38   H     H_    0.222566 0.621547 0.552580 0.206662
H39   H     H_    0.813589 0.613668 0.531777 0.169836
H40   H     H_    0.185826 0.385943 0.466964 0.169641
H41   H     H_    0.751062 0.378123 0.072363 0.185290
H42   H     H_    0.257775 0.625868 0.927856 0.185228
H43   H     H_    0.679150 0.306484 0.930260 0.163292
H44   H     H_    0.329626 0.697570 0.069958 0.163643
H45   H     H_    0.818512 0.198370 0.930375 0.157919
H46   H     H_    0.180419 0.791685 0.069472 0.157144
H47   H     H_    0.861667 0.353884 0.073828 0.159605
H48   H     H_    0.145233 0.639372 0.926210 0.159732
O1    O     O_R   0.447710 0.092600 0.500010 -0.596644
O2    O     O_R   0.552290 0.907400 0.499990 -0.584636
O3    O     O_R   0.441990 0.534630 0.569310 -0.638673
O4    O     O_R   0.558010 0.465370 0.430690 -0.638184
O5    O     O_R   0.465370 0.372730 0.430660 -0.588220
O6    O     O_R   0.534630 0.627270 0.569340 -0.586635
O7    O     O_R   0.534650 0.442080 0.569370 -0.638312
O8    O     O_R   0.465350 0.557920 0.430630 -0.640757
O9    O     O_R   0.552280 0.092600 0.499960 -0.649926
O10   O     O_R   0.447720 0.907400 0.500040 -0.653825
O11   O     O_R   0.509140 0.061430 0.622880 -0.609980
O12   O     O_R   0.490860 0.938570 0.377120 -0.608287
O13   O     O_R   0.613710 0.061430 0.622840 -0.603992
O14   O     O_R   0.386290 0.938570 0.377160 -0.613515
O15   O     O_R   0.907580 0.552300 0.500030 -0.607210
O16   O     O_R   0.092420 0.447700 0.499970 -0.606929
O17   O     O_R   0.907560 0.447760 0.500050 -0.638787
O18   O     O_R   0.092440 0.552240 0.499950 -0.639017
O19   O     O_R   0.938770 0.490850 0.377130 -0.615367
O20   O     O_R   0.061230 0.509150 0.622870 -0.614949
O21   O     O_R   0.938740 0.386300 0.377150 -0.609726
O22   O     O_R   0.061260 0.613700 0.622850 -0.610633
O23   O     O_R   0.372700 0.465280 0.430600 -0.639050
O24   O     O_R   0.627300 0.534720 0.569400 -0.639027
Zn1   Zn    Zn3+2 0.430180 0.000000 0.500030 0.981292
Zn2   Zn    Zn3+2 0.569820 0.000000 0.499970 0.989997
Zn3   Zn    Zn3+2 0.000200 0.569810 0.499990 0.963783
Zn4   Zn    Zn3+2 0.999800 0.430190 0.500010 0.964860
Zn5   Zn    Zn3+2 0.453740 0.453690 0.407380 0.945253
Zn6   Zn    Zn3+2 0.546260 0.546310 0.592620 0.943985
N1    N     N_3   0.912241 0.274695 0.087009 -0.415824
H49   H     H_    0.900104 0.216441 0.057241 0.235237
H50   H     H_    0.948103 0.291446 0.075121 0.188481
N2    N     N_3   0.086558 0.713880 0.912819 -0.416315
H51   H     H_    0.094512 0.771646 0.942514 0.235171
H52   H     H_    0.053069 0.693197 0.924684 0.187713
N3    N     N_3   0.738146 0.090359 0.918260 -0.434156
H53   H     H_    0.705232 0.057393 0.852686 0.187948
H54   H     H_    0.794430 0.107416 0.939730 0.214724
N4    N     N_3   0.250630 0.906363 0.081513 -0.424969
H55   H     H_    0.283566 0.939360 0.147091 0.198692
H56   H     H_    0.195168 0.884955 0.060041 0.213741
O25   O     O_3   0.601942 0.239914 0.917926 -0.749599
H57   H     H_    0.599265 0.220069 0.948712 0.331737
O26   O     O_3   0.400687 0.770689 0.082278 -0.748915
H58   H     H_    0.399882 0.792093 0.051445 0.331690
O27   O     O_3   0.814886 0.177195 0.084111 -0.748830
H59   H     H_    0.788816 0.132997 0.076019 0.344724
O28   O     O_3   0.174190 0.820145 0.915671 -0.748648
H60   H     H_    0.196274 0.866265 0.923715 0.346010
N5    N     N_3   0.491889 0.253889 0.626678 -0.451691
H61   H     H_    0.545699 0.293817 0.669575 0.194913
H62   H     H_    0.457915 0.277939 0.646752 0.189234
N6    N     N_3   0.506231 0.745576 0.371900 -0.457958
H63   H     H_    0.452242 0.706024 0.329469 0.195702
H64   H     H_    0.539593 0.721099 0.351038 0.190556
O29   O     O_3   0.383652 0.115515 0.360745 -0.745519
H65   H     H_    0.386757 0.063506 0.337064 0.326527
O30   O     O_3   0.616363 0.885064 0.637762 -0.765664
H66   H     H_    0.634717 0.912158 0.697667 0.350845
O31   O     O_3   0.379601 0.233375 0.356038 -0.705950
H67   H     H_    0.351374 0.230883 0.379352 0.361245
O32   O     O_3   0.621985 0.766082 0.642225 -0.732096
H68   H     H_    0.649351 0.769463 0.618397 0.360693
N7    N     N_3   0.755899 0.541723 0.400857 -0.441705
H69   H     H_    0.738593 0.585686 0.396429 0.187714
H70   H     H_    0.710926 0.491919 0.349666 0.184904
N8    N     N_3   0.243532 0.457013 0.597948 -0.441200
H71   H     H_    0.260575 0.412742 0.601807 0.187668
H72   H     H_    0.288632 0.506633 0.649442 0.184989
N9    N     N_3   0.781504 0.596143 0.663006 -0.469582
H73   H     H_    0.768628 0.634931 0.647297 0.194686
H74   H     H_    0.753731 0.594104 0.689730 0.210616
N10   N     N_3   0.218387 0.404799 0.336815 -0.469856
H75   H     H_    0.230812 0.365604 0.351956 0.194454
H76   H     H_    0.246335 0.407023 0.310324 0.210863
N11   N     N_3   0.757155 0.464342 0.608527 -0.435269
H77   H     H_    0.804635 0.481565 0.667476 0.186225
H78   H     H_    0.710662 0.461315 0.611945 0.183110
N12   N     N_3   0.243423 0.536842 0.392433 -0.435258
H79   H     H_    0.196024 0.520063 0.333628 0.186394
H80   H     H_    0.289946 0.539837 0.389055 0.182579
N13   N     N_3   0.659455 0.356905 0.437906 -0.451467
H81   H     H_    0.653904 0.305672 0.389348 0.182827
H82   H     H_    0.605765 0.351432 0.426392 0.172340
N14   N     N_3   0.341059 0.643385 0.563289 -0.451541
H83   H     H_    0.346736 0.694454 0.612137 0.182051
H84   H     H_    0.394745 0.648836 0.574795 0.172358
O33   O     O_3   0.797073 0.284571 0.919785 -0.761897
H85   H     H_    0.788126 0.332752 0.948020 0.324728
O34   O     O_3   0.210634 0.707508 0.080247 -0.762433
H86   H     H_    0.222776 0.661731 0.052106 0.324763

loop_
_geom_bond_atom_site_label_1
_geom_bond_atom_site_label_2
_ccdc_geom_bond_type
C26   H26   S    
C20   N6    S    
C39   H35   S    
C63   C65   S    
O16   Zn4   S    
N10   H75   S    
C54   O4    A    
C27   C29   S    
C65   H47   S    
O27   H59   S    
C38   H30   S    
C27   O29   S    
C38   H2    S    
O26   H58   S    
C2    O2    A    
C49   C57   S    
N5    H62   S    
O28   H60   S    
C20   C30   S    
O33   H85   S    
O3    Zn6   S    
C8    C66   S    
C49   O15   A    
C23   O13   A    
C17   C23   S    
N14   H84   S    
C18   C24   S    
C56   O8    A    
N4    H55   S    
N1    H50   S    
C1    O9    A    
C66   N2    S    
C37   H1    S    
O22   Zn3   S    
C61   O25   S    
O25   H57   S    
C11   H3    S    
C57   C59   S    
C62   O26   S    
C40   H36   S    
N6    H63   S    
C58   C60   S    
C39   C57   S    
C4    C62   S    
C47   H31   S    
N8    H71   S    
C41   N9    S    
C19   H9    S    
O11   Zn1   S    
C45   C47   S    
C9    O27   S    
O14   Zn1   S    
C41   N11   S    
C55   O5    A    
O18   Zn3   S    
C46   H14   S    
C51   O19   A    
C44   C53   S    
C26   C34   S    
C54   O24   A    
C24   O12   A    
N1    H49   S    
N10   H76   S    
N11   H78   S    
C52   O22   A    
C31   C33   S    
N3    H54   S    
C43   C47   S    
C22   C32   S    
C52   C68   S    
C36   H24   S    
C40   C42   S    
C60   H40   S    
C12   H4    S    
N13   H81   S    
O29   H65   S    
C46   C58   S    
C6    H42   S    
C47   N13   S    
C36   O32   S    
C19   N5    S    
C12   N4    S    
C15   C17   T    
C33   H27   S    
C37   H29   S    
C4    C16   S    
C45   H37   S    
C25   H17   S    
C39   H33   S    
C55   O7    A    
C35   O31   S    
C3    C61   S    
C25   C29   S    
C48   H32   S    
C64   O34   S    
C46   C48   S    
C40   C58   S    
N14   H83   S    
O34   H86   S    
C50   C58   S    
C21   H15   S    
C64   H46   S    
C39   C41   S    
C50   O18   A    
N7    H70   S    
O24   Zn6   S    
N5    H61   S    
C5    C7    S    
C6    C8    S    
O13   Zn2   S    
C27   C35   S    
N7    H69   S    
C59   H39   S    
C32   C34   S    
C5    H7    S    
O1    Zn1   S    
C38   C44   S    
N2    H52   S    
C7    C65   S    
C21   C31   S    
C42   N10   S    
C43   C54   S    
O30   H66   S    
O7    Zn6   S    
C7    C13   S    
O9    Zn2   S    
C26   H18   S    
C45   C57   S    
C21   H11   S    
C1    C29   S    
C5    C61   S    
C16   C18   T    
C34   H20   S    
C50   O16   A    
C42   N12   S    
C9    C11   S    
C64   C66   S    
C37   C59   S    
C10   C12   S    
O31   H67   S    
C38   C60   S    
C2    O10   A    
N12   H80   S    
O21   Zn4   S    
C20   C22   S    
C26   C30   S    
C52   O20   A    
C48   N14   S    
O5    Zn5   S    
C37   C43   S    
C4    C12   S    
C61   H43   S    
C51   O21   A    
C53   O3    A    
O15   Zn3   S    
C23   O11   A    
C13   C67   T    
C7    C9    S    
C49   O17   A    
O23   Zn5   S    
O17   Zn4   S    
C8    C14   S    
C19   C21   S    
C53   O23   A    
C9    H5    S    
C45   H13   S    
C41   C43   S    
C34   H28   S    
N12   H79   S    
O2    Zn2   S    
C59   N7    S    
C65   N1    S    
C28   H22   S    
C32   C36   S    
C28   O30   S    
C6    H8    S    
C3    C63   S    
C22   H16   S    
O8    Zn5   S    
C4    C64   S    
O10   Zn1   S    
C20   H10   S    
C2    C30   S    
C25   H25   S    
C6    C62   S    
C28   C30   S    
C66   H48   S    
C42   C44   S    
C22   H12   S    
C60   N8    S    
O20   Zn4   S    
C10   H6    S    
C51   C67   S    
C5    H41   S    
C10   O28   S    
C46   H38   S    
N4    H56   S    
O19   Zn3   S    
N8    H72   S    
C27   H21   S    
C31   C35   S    
O6    Zn6   S    
C33   H19   S    
N9    H74   S    
C3    C11   S    
C11   N3    S    
C40   H34   S    
O32   H68   S    
C63   H45   S    
C24   O14   A    
O4    Zn5   S    
C62   H44   S    
C28   C36   S    
C8    C10   S    
N11   H77   S    
C63   O33   S    
C25   C33   S    
N13   H82   S    
C14   C68   T    
N2    H51   S    
C3    C15   S    
N9    H73   S    
N6    H64   S    
C31   C55   S    
N3    H53   S    
C1    O1    A    
O12   Zn2   S    
C32   C56   S    
C44   C48   S    
C35   H23   S    
C56   O6    A    
C19   C29   S    
