data_mof_unit_33562.cif
_audit_creation_date              2012-12-11T17:29:44-0500
_audit_creation_method            fapswitch 2.2
_symmetry_space_group_name_H-M    P1
_symmetry_Int_Tables_number       1
_space_group_crystal_system       triclinic
_cell_length_a                    8.510983
_cell_length_b                    16.435901
_cell_length_c                    18.955726
_cell_angle_alpha                 100.336833
_cell_angle_beta                  91.140426
_cell_angle_gamma                 94.029669
_cell_volume                      2600.72070204

loop_
_atom_site_label
_atom_site_type_symbol
_atom_type_description
_atom_site_fract_x
_atom_site_fract_y
_atom_site_fract_z
_atom_type_partial_charge
Ba1   Ba    Ba6+2 0.845660 0.536000 0.465120 1.745600
Ba2   Ba    Ba6+2 0.344160 0.464070 0.534880 1.732778
C1    C     C_3   0.652771 0.835406 0.300770 -0.302906
C2    C     C_R   0.978427 0.389423 0.075164 -0.089507
C3    C     C_R   0.804334 0.440460 0.957642 -0.021723
C4    C     C_3   0.126737 0.731925 0.277677 0.146458
C5    C     C_R   0.964082 0.463878 0.973513 0.027582
C6    C     C_R   0.731280 0.449290 0.893172 -0.043797
C7    C     C_R   0.822487 0.476509 0.838306 -0.097012
C8    C     C_R   0.980228 0.510359 0.857841 0.002629
C9    C     C_R   0.046748 0.508175 0.927572 0.023305
C10   C     C_R   0.767062 0.471791 0.765486 0.009603
C11   C     C_R   0.865830 0.502961 0.716964 -0.256416
C12   C     C_3   0.626667 0.748817 0.318209 0.305584
C13   C     C_R   0.018585 0.536908 0.735153 0.008838
C14   C     C_R   0.073333 0.545343 0.807832 -0.042840
C15   C     C_R   0.175407 0.497778 0.065917 0.042262
C16   C     C_3   0.158715 0.785745 0.219738 -0.261066
C17   C     C_R   0.230373 0.496644 0.138209 0.021368
C18   C     C_R   0.133452 0.455607 0.185062 -0.041595
C19   C     C_R   0.008385 0.400343 0.149616 -0.051667
C20   C     C_R   0.216203 0.589795 0.833091 -0.033275
C21   C     C_R   0.274649 0.593080 0.902995 -0.076452
C22   C     C_R   0.197174 0.547731 0.950339 0.045756
C23   C     C_3   0.492740 0.280140 0.301778 0.154387
C24   C     C_R   0.261781 0.542225 0.020069 0.066339
C25   C     C_R   0.415887 0.572254 0.042705 -0.033378
C26   C     C_R   0.382432 0.534238 0.161848 -0.081328
C27   C     C_R   0.480022 0.563263 0.109351 -0.058054
C28   C     C_3   0.268216 0.729105 0.661216 0.309834
C29   C     C_R   0.425205 0.543503 0.236447 -0.046805
C30   C     C_R   0.310911 0.520921 0.284581 -0.228397
C31   C     C_R   0.171246 0.470061 0.262201 0.043651
C32   C     C_R   0.384430 0.729551 0.474763 -0.295943
C33   C     C_R   0.529290 0.758473 0.509522 -0.009388
C34   C     C_3   0.565384 0.248645 0.228929 -0.288025
C35   C     C_R   0.581895 0.842502 0.516623 -0.149245
C36   C     C_R   0.487383 0.898471 0.490006 0.260831
C37   C     C_R   0.339239 0.868649 0.457940 -0.151497
C38   C     C_R   0.287589 0.784621 0.450560 -0.013154
C39   C     C_R   0.612956 0.148249 0.498678 -0.064199
C40   C     C_3   0.366251 0.765421 0.729440 -0.377621
C41   C     C_R   0.661532 0.232090 0.502463 -0.086026
C42   C     C_R   0.707942 0.095420 0.529683 0.271257
C43   C     C_R   0.801832 0.264305 0.539924 -0.336974
C44   C     C_R   0.903169 0.212621 0.566874 0.004245
C45   C     C_3   0.138134 0.328872 0.736596 0.339698
C46   C     C_R   0.854737 0.128329 0.562375 -0.110444
C47   C     C_3   0.957356 0.265433 0.360025 0.146311
C48   C     C_3   0.900315 0.176004 0.316826 -0.177727
C49   C     C_3   0.723681 0.664646 0.682168 0.299184
C50   C     C_3   0.782351 0.707682 0.757082 -0.350032
C51   C     C_2   0.064527 0.259814 0.422058 0.388489
C52   C     C_2   0.810020 0.120958 0.359994 0.502228
C53   C     C_2   0.024753 0.127019 0.276942 0.585078
C54   C     C_2   0.326656 0.246606 0.293573 0.450182
C55   C     C_2   0.503172 0.373377 0.316132 0.433719
C56   C     C_3   0.124352 0.327972 0.817454 -0.195084
C57   C     C_2   0.546906 0.155842 0.203695 0.598534
C58   C     C_2   0.260003 0.863755 0.251780 0.599649
C59   C     C_2   0.176933 0.252432 0.842166 0.684239
C60   C     C_2   0.749442 0.264577 0.726524 0.630649
C61   C     C_2   0.501084 0.218482 0.660837 0.487820
C62   C     C_2   0.557987 0.442129 0.892624 0.511339
C63   C     C_2   0.892583 0.357881 0.186112 0.475020
C64   C     C_2   0.653327 0.572763 0.114468 0.511500
C65   C     C_2   0.898914 0.309247 0.035699 0.505072
C66   C     C_2   0.839019 0.353241 0.556124 0.559496
C67   C     C_3   0.573368 0.255490 0.733439 0.163407
C68   C     C_2   0.249458 0.737225 0.160648 0.442057
C69   C     C_2   0.002160 0.806929 0.190378 0.650333
C70   C     C_2   0.221081 0.799881 0.626893 0.506635
C71   C     C_3   0.534445 0.196095 0.786485 -0.202285
C72   C     C_R   0.036806 0.450918 0.038243 0.019540
H1    H     H_    0.423699 0.715380 0.749412 0.104461
H2    H     H_    0.041611 0.364642 0.721264 -0.029805
H3    H     H_    0.196129 0.382630 0.847457 0.025832
H4    H     H_    0.407060 0.177562 0.784276 0.131246
H5    H     H_    0.571102 0.226383 0.842159 0.151333
H6    H     H_    0.819721 0.504781 0.664012 0.038978
H7    H     H_    0.284302 0.623752 0.799520 0.090555
H8    H     H_    0.383037 0.630819 0.917962 0.072857
H9    H     H_    0.504193 0.124193 0.469325 0.154026
H10   H     H_    0.931669 0.088142 0.583589 0.127759
H11   H     H_    0.696458 0.747152 0.368055 0.088021
H12   H     H_    0.290061 0.795718 0.771789 0.132786
H13   H     H_    0.459206 0.812447 0.719279 0.112671
H14   H     H_    0.107575 0.315835 0.457428 0.133179
H15   H     H_    0.820669 0.184436 0.273812 0.049860
H16   H     H_    0.864064 0.104996 0.407240 0.056863
H17   H     H_    0.045665 0.132213 0.221593 0.076328
H18   H     H_    0.826596 0.642089 0.651779 0.057811
H19   H     H_    0.637398 0.612014 0.686604 0.029476
H20   H     H_    0.875369 0.757341 0.752999 0.170486
H21   H     H_    0.599130 0.880838 0.342085 0.092163
H22   H     H_    0.279077 0.214110 0.333462 0.095850
H23   H     H_    0.854095 0.298015 0.380580 0.033866
H24   H     H_    0.581878 0.408553 0.287050 0.065517
H25   H     H_    0.483333 0.115607 0.234709 0.101770
H26   H     H_    0.516521 0.278924 0.186096 0.134848
H27   H     H_    0.689586 0.266631 0.235784 0.103323
H28   H     H_    0.292639 0.876834 0.308465 -0.020596
H29   H     H_    0.000566 0.334898 0.833187 0.114538
H30   H     H_    0.275751 0.258271 0.880171 0.020944
H31   H     H_    0.800338 0.308596 0.696437 -0.343819
H32   H     H_    0.495352 0.256673 0.620395 0.021835
H33   H     H_    0.593934 0.137453 0.772716 0.146510
H34   H     H_    0.780690 0.853355 0.300378 0.172263
H35   H     H_    0.055900 0.673627 0.253723 0.078145
H36   H     H_    0.493740 0.488257 0.873769 0.015251
H37   H     H_    0.918491 0.300273 0.201714 0.034133
H38   H     H_    0.718075 0.521193 0.123824 0.047135
H39   H     H_    0.337289 0.538880 0.341492 0.100549
H40   H     H_    0.731798 0.420577 0.998674 0.085660
H41   H     H_    0.822019 0.270273 0.062846 0.045496
H42   H     H_    0.241350 0.714030 0.296982 -0.084781
H43   H     H_    0.494656 0.596379 0.006232 0.077856
H44   H     H_    0.263149 0.911294 0.439653 0.115285
H45   H     H_    0.831696 0.662952 0.787089 0.059604
H46   H     H_    0.693531 0.863989 0.544444 0.141043
H47   H     H_    0.342299 0.665138 0.470684 0.076211
H48   H     H_    0.826291 0.383874 0.609630 -0.039740
H49   H     H_    0.363435 0.716876 0.173534 0.013170
H50   H     H_    0.915169 0.757210 0.167974 0.082144
H51   H     H_    0.337658 0.688838 0.622393 -0.027163
H52   H     H_    0.311250 0.842516 0.611331 -0.067521
H53   H     H_    0.684768 0.735900 0.788190 0.117975
H54   H     H_    0.499525 0.737041 0.327444 -0.084248
H55   H     H_    0.598235 0.837290 0.247451 0.149779
H56   H     H_    0.247984 0.363946 0.727204 0.094421
N1    N     N_2   0.533032 0.984816 0.495647 -0.190775
N2    N     N_2   0.664806 0.008825 0.525427 -0.206092
O1    O     O_2   0.884010 0.444810 0.325060 -0.450271
O2    O     O_2   0.232867 0.210000 0.562469 -0.416405
O3    O     O_3   0.133516 0.248778 0.694350 -0.546300
O4    O     O_3   0.132090 0.451130 0.414310 -0.436843
O5    O     O_3   0.558660 0.599640 0.536520 -0.479334
O6    O     O_2   0.381010 0.300300 0.465220 -0.450548
O7    O     O_3   0.573515 0.247094 0.355017 -0.667808
O8    O     O_2   0.451254 0.481727 0.752290 -0.507623
O9    O     O_3   0.505760 0.331305 0.760485 -0.645815
O10   O     O_3   0.640770 0.594650 0.368950 -0.473186
O11   O     O_2   0.761350 0.540316 0.248332 -0.446209
O12   O     O_3   0.649286 0.721817 0.649406 -0.637857
O13   O     O_3   0.038133 0.311283 0.313854 -0.642909
O14   O     O_3   0.676084 0.690421 0.260975 -0.584177
O15   O     O_2   0.808690 0.699720 0.534830 -0.410156
O16   O     O_3   0.053760 0.638480 0.405010 -0.477757
O17   O     O_2   0.964978 0.787213 0.465265 -0.431822
O18   O     O_2   0.107600 0.193683 0.432694 -0.589210
O19   O     O_2   0.679263 0.089067 0.339645 -0.572165
O20   O     O_2   0.099426 0.079429 0.304612 -0.530841
O21   O     O_2   0.249937 0.250719 0.239198 -0.639845
O22   O     O_2   0.425704 0.410576 0.362902 -0.596664
O23   O     O_3   0.041114 0.775859 0.333064 -0.600297
O24   O     O_2   0.604561 0.125089 0.147617 -0.535177
O25   O     O_2   0.306378 0.913161 0.214285 -0.495918
O26   O     O_2   0.106791 0.184600 0.822059 -0.474731
O27   O     O_2   0.835569 0.218992 0.750368 -0.537353
O28   O     O_2   0.450175 0.145803 0.646059 -0.552248
O29   O     O_2   0.486206 0.387832 0.918041 -0.604228
O30   O     O_2   0.759912 0.381344 0.187883 -0.631302
O31   O     O_2   0.724977 0.635444 0.102260 -0.570443
O32   O     O_2   0.924630 0.284026 0.972693 -0.557020
O33   O     O_2   0.902053 0.390059 0.512938 -0.572711
O34   O     O_2   0.305690 0.555220 0.674980 -0.474066
O35   O     O_2   0.198898 0.721357 0.098534 -0.548942
O36   O     O_2   0.971045 0.878609 0.191454 -0.517833
O37   O     O_2   0.082606 0.811205 0.617261 -0.523759
O38   O     O_3   0.057610 0.548940 0.585700 -0.444934
O39   O     O_3   0.548930 0.405410 0.631060 -0.504577
O40   O     O_3   0.131495 0.687093 0.680619 -0.628821
O41   O     O_3   0.631040 0.400420 0.463490 -0.395721
O42   O     O_3   0.135930 0.361590 0.595000 -0.505161
P1    P     P_3+3 0.056550 0.421630 0.336220 1.066961
P2    P     P_3+3 0.635450 0.689180 0.556380 1.014676
P3    P     P_3+3 0.088378 0.746339 0.414611 1.010168
P4    P     P_3+3 0.133150 0.578440 0.663790 0.991486
P5    P     P_3+3 0.102113 0.256977 0.604026 1.044404
P6    P     P_3+3 0.622530 0.590670 0.277246 0.978450
P7    P     P_3+3 0.559820 0.294744 0.446298 1.025730
P8    P     P_3+3 0.574468 0.420171 0.725483 0.891228

loop_
_geom_bond_atom_site_label_1
_geom_bond_atom_site_label_2
_ccdc_geom_bond_type
C16   C68   S    
Ba1   P2    S    
O16   P3    S    
C21   H8    S    
C3    H40   S    
C25   C27   A    
C57   H25   S    
Ba1   O38   S    
O39   P8    S    
C17   C18   A    
C23   C54   S    
C34   C57   S    
C10   P8    S    
C53   O20   D    
C60   H31   S    
C49   O12   S    
C5    C9    A    
Ba1   O41   S    
C40   H1    S    
C48   C52   S    
O38   P4    S    
C32   C38   A    
C33   P2    S    
C26   C27   A    
C33   C35   A    
C22   C24   A    
C45   H2    S    
C52   H16   S    
Ba2   O41   S    
C36   C37   A    
C58   H28   S    
C71   H33   S    
C67   O9    S    
C13   C14   A    
C39   H9    S    
C9    C22   A    
C23   O7    S    
C12   H54   S    
C32   C33   A    
O6    P7    D    
C65   H41   S    
C63   H37   S    
C53   H17   S    
Ba1   O10   S    
C56   H3    S    
C15   C17   A    
C68   H49   S    
O10   P6    S    
C61   C67   S    
C6    C7    A    
C63   O30   D    
C21   C22   A    
C67   C71   S    
O34   P4    D    
C30   H39   S    
Ba1   O4    S    
C7    C8    A    
Ba2   O34   S    
C2    C72   A    
C4    O23   S    
O7    P7    S    
Ba2   O39   S    
C45   O3    S    
C66   O33   D    
C56   C59   S    
C28   H51   S    
O41   P7    S    
C39   C41   A    
C23   C55   S    
C61   O28   D    
Ba1   O1    S    
C65   O32   D    
C50   H53   S    
C5    C72   A    
C25   H43   S    
C4    C16   S    
C44   C46   A    
C45   H56   S    
C47   O13   S    
C49   C50   S    
Ba2   O6    S    
C20   H7    S    
O13   P1    S    
C69   H50   S    
C59   H30   S    
C58   O25   D    
O5    P2    S    
C66   H48   S    
C37   C38   A    
C3    C5    A    
O15   P2    D    
C54   O21   D    
C43   C44   A    
C41   P7    S    
Ba2   O4    S    
C46   H10   S    
C60   C67   S    
C70   H52   S    
C34   H27   S    
C35   C36   A    
C49   H18   S    
C2    C65   S    
C41   C43   A    
C48   H15   S    
C62   H36   S    
C29   C30   A    
C71   H4    S    
C4    H42   S    
O12   P2    S    
C43   C66   S    
O17   P3    D    
C71   H5    S    
O14   P6    S    
C34   H26   S    
O11   P6    D    
C10   C11   A    
C61   H32   S    
C50   H20   S    
C17   C26   A    
O1    P1    D    
C28   O40   S    
C1    C12   S    
C6    C62   S    
C40   H12   S    
C18   C31   A    
C16   C58   S    
C49   H19   S    
C32   H47   S    
C69   O36   D    
C11   C13   A    
C24   C25   A    
C15   C72   A    
O2    P5    D    
C39   C42   A    
Ba1   O15   S    
C15   C24   A    
N1    N2    D    
C38   P3    S    
C60   O27   D    
Ba1   O5    S    
O40   P4    S    
C16   C69   S    
C54   H22   S    
Ba1   P1    S    
C14   C20   A    
C19   C63   S    
C1    H55   S    
Ba2   O5    S    
C44   P5    S    
C26   C29   A    
O4    P1    S    
O9    P8    S    
C12   H11   S    
C62   O29   D    
C3    C6    A    
C28   C70   S    
C57   O24   D    
C52   O19   D    
C40   H13   S    
C1    H34   S    
C42   N2    S    
C37   H44   S    
C55   O22   D    
C12   O14   S    
C48   C53   S    
C29   P6    S    
C36   N1    S    
O3    P5    S    
Ba2   O38   S    
C8    C14   A    
C68   O35   D    
C70   O37   D    
C45   C56   S    
C2    C19   A    
C51   O18   D    
C35   H46   S    
C47   C51   S    
C55   H24   S    
Ba1   Ba2   S    
C4    H35   S    
C64   O31   D    
C51   H14   S    
C30   C31   A    
C31   P1    S    
C7    C10   A    
O8    P8    D    
C11   H6    S    
C8    C9    A    
C23   C34   S    
C47   H23   S    
C27   C64   S    
C50   H45   S    
C42   C46   A    
C18   C19   A    
C47   C48   S    
C13   P4    S    
C20   C21   A    
C28   C40   S    
Ba1   O16   S    
C1    H21   S    
C56   H29   S    
Ba2   P4    S    
C64   H38   S    
C59   O26   D    
O42   P5    S    
Ba2   O42   S    
O23   P3    S    
