data_mof_unit_44419.cif
_audit_creation_date              2012-12-11T15:34:58-0500
_audit_creation_method            fapswitch 2.2
_symmetry_space_group_name_H-M    P1
_symmetry_Int_Tables_number       1
_space_group_crystal_system       triclinic
_cell_length_a                    30.373254
_cell_length_b                    7.252836
_cell_length_c                    26.035732
_cell_angle_alpha                 89.999828
_cell_angle_beta                  112.293326
_cell_angle_gamma                 89.99967
_cell_volume                      5306.76556015

loop_
_atom_site_label
_atom_site_type_symbol
_atom_type_description
_atom_site_fract_x
_atom_site_fract_y
_atom_site_fract_z
_atom_type_partial_charge
O1    O     O_R   0.295360 0.592990 0.320420 -0.530737
O2    O     O_R   0.704640 0.407010 0.679580 -0.525876
O3    O     O_R   0.204640 0.092990 0.179580 -0.530427
O4    O     O_R   0.795360 0.907010 0.820420 -0.525808
O5    O     O_R   0.294060 0.265620 0.213230 -0.539571
O6    O     O_R   0.705940 0.734380 0.786770 -0.541697
O7    O     O_R   0.205940 0.765620 0.286770 -0.539409
O8    O     O_R   0.794060 0.234380 0.713230 -0.541569
C1    C     C_R   0.304263 0.432299 0.199540 0.723325
C2    C     C_R   0.695804 0.567737 0.800550 0.720078
C3    C     C_R   0.195737 0.932298 0.300459 0.723875
C4    C     C_R   0.804196 0.067737 0.699453 0.720774
O9    O     O_R   0.300850 0.263360 0.322080 -0.527968
O10   O     O_R   0.699150 0.736640 0.677920 -0.530844
O11   O     O_R   0.199150 0.763360 0.177920 -0.527821
O12   O     O_R   0.800850 0.236640 0.822080 -0.530716
O13   O     O_R   0.211480 0.091820 0.289210 -0.534177
O14   O     O_R   0.788520 0.908180 0.710790 -0.533165
O15   O     O_R   0.288520 0.591820 0.210790 -0.534390
O16   O     O_R   0.711480 0.408180 0.789210 -0.533111
C5    C     C_R   0.313294 0.431305 0.343360 0.749010
C6    C     C_R   0.686626 0.568236 0.656736 0.757469
C7    C     C_R   0.186692 0.931309 0.156644 0.749437
C8    C     C_R   0.813384 0.068235 0.843264 0.753050
O17   O     O_3   0.220670 0.426670 0.239090 -0.379077
O18   O     O_3   0.779330 0.573330 0.760910 -0.378483
O19   O     O_3   0.279330 0.926670 0.260910 -0.379746
O20   O     O_3   0.720670 0.073330 0.739090 -0.378235
V1    V     V_3+5 0.255440 0.152290 0.252020 1.482606
V2    V     V_3+5 0.744560 0.847710 0.747980 1.495616
V3    V     V_3+5 0.244560 0.652290 0.247980 1.483058
V4    V     V_3+5 0.755440 0.347710 0.752020 1.495665
C9    C     C_R   0.849560 0.058026 0.900392 -0.143635
C10   C     C_R   0.150207 0.933010 0.099546 -0.121334
C11   C     C_R   0.650386 0.557976 0.599655 -0.142019
C12   C     C_R   0.349736 0.433000 0.400475 -0.123082
C13   C     C_R   0.869556 0.047520 0.999431 -0.174129
C14   C     C_R   0.126722 0.848929 0.002987 -0.178542
C15   C     C_R   0.630226 0.546848 0.500587 -0.128029
C16   C     C_R   0.373124 0.349168 0.497032 -0.177190
C17   C     C_R   0.835806 0.069671 0.945792 0.393489
C18   C     C_R   0.162155 0.873296 0.055405 0.389852
C19   C     C_R   0.664058 0.569430 0.554162 0.362779
C20   C     C_R   0.337732 0.373435 0.444586 0.390092
C21   C     C_R   0.897551 0.025188 0.909588 -0.209817
C22   C     C_R   0.102261 0.968763 0.090090 -0.275518
C23   C     C_R   0.602408 0.525074 0.590606 -0.213782
C24   C     C_R   0.397694 0.468641 0.409979 -0.274077
C25   C     C_R   0.931978 0.986488 0.963620 0.096980
C26   C     C_R   0.064945 0.925563 0.038485 0.077108
C27   C     C_R   0.567916 0.486205 0.536628 0.072131
C28   C     C_R   0.434974 0.425420 0.461606 0.077373
C29   C     C_R   0.917500 0.005496 0.009184 -0.058038
C30   C     C_R   0.078163 0.872725 0.993773 -0.006006
C31   C     C_R   0.582386 0.504769 0.491106 -0.000526
C32   C     C_R   0.421697 0.372874 0.506302 -0.010716
C33   C     C_R   0.980365 0.934554 0.973862 -0.020846
C34   C     C_R   0.015204 0.937062 0.029580 -0.092598
C35   C     C_R   0.519516 0.434450 0.526335 -0.021090
C36   C     C_R   0.484729 0.436662 0.470556 -0.059338
C37   C     C_R   0.998327 0.936612 0.073903 0.224077
C38   C     C_R   0.994491 0.865112 0.931297 0.211877
C39   C     C_R   0.501683 0.435652 0.426254 0.163276
C40   C     C_R   0.505327 0.365563 0.568905 0.211724
C41   C     C_R   0.950542 0.974973 0.063680 0.204811
C42   C     C_R   0.042748 0.837681 0.941009 0.142167
C43   C     C_R   0.549709 0.473770 0.436773 0.198921
C44   C     C_R   0.457060 0.338126 0.559119 0.140911
H1    H     H_    0.095067 0.029815 0.123711 0.124546
H2    H     H_    0.907162 0.036606 0.873914 0.148523
H3    H     H_    0.404912 0.529750 0.376389 0.127940
H4    H     H_    0.592880 0.536558 0.626338 0.151214
H5    H     H_    0.857360 0.060306 0.033261 0.163644
H6    H     H_    0.137831 0.806167 0.969969 0.164369
H7    H     H_    0.642037 0.559130 0.466373 0.202091
H8    H     H_    0.361971 0.306589 0.530032 0.164360
C45   C     C_R   0.089779 0.910302 0.477146 0.615626
C46   C     C_R   0.908129 0.081076 0.520383 0.612548
C47   C     C_R   0.409977 0.412686 0.022600 0.616481
C48   C     C_R   0.592067 0.578747 0.979813 0.611886
N1    N     N_R   0.072510 0.966772 0.422865 -0.572317
N2    N     N_R   0.925728 0.028340 0.575013 -0.571697
N3    N     N_R   0.427462 0.466778 0.077100 -0.571611
N4    N     N_R   0.574273 0.528278 0.924991 -0.571581
C49   C     C_R   0.026929 0.030541 0.397666 0.569861
C50   C     C_R   0.970970 0.960901 0.599883 0.577245
C51   C     C_R   0.473237 0.528276 0.102500 0.566349
C52   C     C_R   0.528815 0.463205 0.899898 0.577287
C53   C     C_R   0.996901 0.043423 0.427479 -0.038238
C54   C     C_R   0.000818 0.945983 0.569886 -0.040310
C55   C     C_R   0.503279 0.541061 0.072701 -0.036755
C56   C     C_R   0.498946 0.448393 0.929872 -0.040321
C57   C     C_R   0.013906 0.987963 0.483481 -0.067605
C58   C     C_R   0.983826 0.001515 0.513888 -0.067841
C59   C     C_R   0.486062 0.488003 0.016482 -0.067619
C60   C     C_R   0.516153 0.501510 0.986087 -0.068058
C61   C     C_R   0.060878 0.919090 0.509010 -0.028045
C62   C     C_R   0.936851 0.070338 0.488349 -0.025900
C63   C     C_R   0.438866 0.421590 0.990724 -0.028474
C64   C     C_R   0.563350 0.567890 0.011853 -0.025843
C65   C     C_R   0.950371 0.111294 0.402346 -0.197143
C66   C     C_R   0.047225 0.876759 0.594890 -0.199275
C67   C     C_R   0.550032 0.606475 0.098060 -0.198140
C68   C     C_R   0.452310 0.381651 0.904632 -0.199113
C69   C     C_R   0.920379 0.125480 0.431917 0.198164
C70   C     C_R   0.077221 0.862591 0.565316 0.198369
C71   C     C_R   0.580039 0.620575 0.068505 0.198517
C72   C     C_R   0.422299 0.367564 0.934190 0.198341
O21   O     O_2   0.134838 0.847270 0.500015 -0.470726
O22   O     O_2   0.862952 0.142794 0.497381 -0.473062
O23   O     O_2   0.364722 0.351872 0.999535 -0.470429
O24   O     O_2   0.637422 0.638400 0.002991 -0.474104
O25   O     O_2   0.010720 0.081739 0.343834 -0.520438
O26   O     O_2   0.987093 0.908784 0.653631 -0.518740
O27   O     O_2   0.489624 0.577345 0.156515 -0.526040
O28   O     O_2   0.512500 0.413334 0.845953 -0.518806
H9    H     H_    0.936843 0.154710 0.359304 0.173830
H10   H     H_    0.060710 0.832892 0.637890 0.172593
H11   H     H_    0.563729 0.647978 0.141274 0.173218
H12   H     H_    0.438653 0.339702 0.861458 0.172604
C73   C     C_R   0.872858 0.882040 0.614935 -0.088264
C74   C     C_R   0.109772 0.792946 0.368705 -0.087533
C75   C     C_R   0.626948 0.381812 0.884826 -0.089805
C76   C     C_R   0.390061 0.292771 0.131075 -0.092399
H13   H     H_    0.877695 0.751698 0.597511 0.158817
H14   H     H_    0.091661 0.669996 0.373787 0.142724
H15   H     H_    0.621956 0.251320 0.902054 0.158970
H16   H     H_    0.408043 0.169697 0.125823 0.142607
C77   C     C_R   0.843567 0.890544 0.645327 -0.142296
C78   C     C_R   0.139755 0.783370 0.339107 -0.163926
C79   C     C_R   0.656241 0.390341 0.854434 -0.142552
C80   C     C_R   0.360087 0.283203 0.160684 -0.166487
H17   H     H_    0.826381 0.765177 0.650602 0.179281
H18   H     H_    0.144164 0.651816 0.321974 0.153659
H19   H     H_    0.673267 0.264821 0.848958 0.179083
H20   H     H_    0.355552 0.151510 0.177653 0.153381
C81   C     C_R   0.836208 0.058606 0.667999 -0.122197
C82   C     C_R   0.163481 0.941696 0.331594 -0.124426
C83   C     C_R   0.663795 0.558602 0.832010 -0.122115
C84   C     C_R   0.336521 0.441697 0.168404 -0.123893
C85   C     C_R   0.859393 0.217651 0.659802 -0.132355
C86   C     C_R   0.156479 0.109552 0.354710 -0.103416
C87   C     C_R   0.640815 0.717838 0.840475 -0.132576
C88   C     C_R   0.343691 0.609729 0.145498 -0.105653
H21   H     H_    0.854716 0.348850 0.676970 0.153777
H22   H     H_    0.174384 0.233766 0.349984 0.182288
H23   H     H_    0.645659 0.849221 0.823526 0.153979
H24   H     H_    0.325921 0.734096 0.150393 0.181783
C89   C     C_R   0.889114 0.209596 0.629674 0.233934
C90   C     C_R   0.126881 0.119445 0.384877 0.230341
C91   C     C_R   0.611104 0.709758 0.870615 0.234072
C92   C     C_R   0.373297 0.619622 0.115341 0.229728
C93   C     C_R   0.895720 0.040515 0.606664 0.317817
C94   C     C_R   0.103066 0.960053 0.391800 0.317464
C95   C     C_R   0.604285 0.540460 0.893348 0.318196
C96   C     C_R   0.396924 0.460042 0.108183 0.318235
N5    N     N_3   0.936202 0.977158 0.110315 -0.609610
H25   H     H_    0.922888 0.107826 0.113405 0.235501
H26   H     H_    0.909638 0.878226 0.104132 0.246690
N6    N     N_3   0.054703 0.770434 0.896004 -0.666226
H27   H     H_    0.076333 0.867294 0.887164 0.247659
H28   H     H_    0.073054 0.645723 0.907786 0.244092
N7    N     N_3   0.565815 0.476914 0.391504 -0.652304
H29   H     H_    0.559999 0.347125 0.372619 0.274046
H30   H     H_    0.545715 0.574196 0.362413 0.252506
N8    N     N_3   0.445039 0.271294 0.604120 -0.665780
H31   H     H_    0.423379 0.368289 0.612851 0.247776
H32   H     H_    0.426703 0.146531 0.592399 0.244141
N9    N     N_3   0.912713 0.374051 0.623490 -0.663736
H33   H     H_    0.949342 0.348904 0.639286 0.247113
H34   H     H_    0.901942 0.403138 0.581178 0.255200
N10   N     N_3   0.122037 0.292045 0.408892 -0.641347
H35   H     H_    0.086143 0.329535 0.392675 0.237567
H36   H     H_    0.132401 0.273501 0.451696 0.264251
N11   N     N_3   0.587758 0.874451 0.877137 -0.664749
H37   H     H_    0.551090 0.850162 0.861272 0.247256
H38   H     H_    0.598557 0.902531 0.919514 0.254747
N12   N     N_3   0.378379 0.792465 0.091613 -0.642902
H39   H     H_    0.414337 0.829044 0.107842 0.236220
H40   H     H_    0.367938 0.774701 0.048771 0.264749
Cl1   Cl    Cl    0.221674 0.828208 0.064414 -0.637016
Cl2   Cl    Cl    0.776166 0.111919 0.936780 -0.644118
Cl3   Cl    Cl    0.278193 0.328521 0.435515 -0.637909
Cl4   Cl    Cl    0.723643 0.611740 0.562984 -0.637461
N13   N     N_3   0.025773 0.862857 0.127914 -0.625708
H41   H     H_    0.041275 0.969763 0.155824 0.237402
H42   H     H_    0.050494 0.764774 0.126534 0.233165
N14   N     N_3   0.959755 0.797839 0.880082 -0.671943
H43   H     H_    0.964710 0.864713 0.847081 0.255199
H44   H     H_    0.965211 0.656535 0.877059 0.258032
N15   N     N_3   0.474132 0.362180 0.372241 -0.683599
H45   H     H_    0.458577 0.469100 0.344366 0.227981
H46   H     H_    0.449470 0.263911 0.373668 0.246365
N16   N     N_3   0.540015 0.298938 0.620243 -0.670730
H47   H     H_    0.534985 0.366309 0.653124 0.255181
H48   H     H_    0.534589 0.157691 0.623427 0.258077
N17   N     N_3   0.873299 0.196991 0.403975 -0.571109
H49   H     H_    0.855724 0.113564 0.369494 0.241885
H50   H     H_    0.876122 0.329347 0.389589 0.235731
N18   N     N_3   0.124228 0.790313 0.593179 -0.573390
H51   H     H_    0.141864 0.873079 0.627801 0.239614
H52   H     H_    0.121267 0.657762 0.607346 0.235008
N19   N     N_3   0.627365 0.689417 0.096697 -0.572193
H53   H     H_    0.644674 0.604177 0.130819 0.241514
H54   H     H_    0.625008 0.821362 0.111645 0.235647
N20   N     N_3   0.375045 0.297936 0.906073 -0.573260
H55   H     H_    0.357672 0.382509 0.871806 0.239549
H56   H     H_    0.377543 0.165779 0.891349 0.235213

loop_
_geom_bond_atom_site_label_1
_geom_bond_atom_site_label_2
_ccdc_geom_bond_type
O17   V3    S    
N3    C51   A    
N19   H53   S    
O1    C5    A    
N5    H25   S    
C51   C55   A    
O19   V1    S    
C9    C21   A    
N9    H33   S    
C86   H22   S    
O3    C7    A    
C59   C60   A    
C10   C18   A    
O1    V3    S    
C48   N4    A    
C11   C23   A    
C42   N6    S    
N12   H39   S    
N13   H41   S    
C25   C33   A    
C33   C38   A    
N11   H38   S    
C5    C12   S    
C75   C95   A    
C87   H23   S    
C6    C11   S    
N19   H54   S    
C35   C40   A    
C57   C58   A    
C62   C69   A    
C73   C93   A    
C36   C39   A    
C89   N9    S    
C40   C44   A    
N14   H44   S    
C53   C65   A    
N7    H30   S    
C3    C82   S    
C14   C18   A    
C79   H19   S    
O16   V4    S    
O4    C8    A    
N4    C95   S    
C59   C63   A    
C80   H20   S    
N13   H42   S    
C58   C62   A    
C19   Cl4   S    
C56   C60   A    
O13   V1    S    
C31   C43   A    
C76   C80   A    
O2    V4    S    
N17   H50   S    
C89   C93   A    
O12   V4    S    
C54   C66   A    
C22   H1    S    
C13   H5    S    
C28   C36   A    
C47   C63   A    
N2    C93   S    
C83   C87   A    
C1    O15   A    
C15   C31   A    
C52   C56   A    
C2    O16   A    
N18   H51   S    
C16   C32   A    
C40   N16   S    
C46   C62   A    
C45   C61   A    
C10   C22   A    
C38   N14   S    
C91   C95   A    
C11   C19   A    
C16   C20   A    
C51   O27   S    
C66   H10   S    
C85   H21   S    
C76   H16   S    
C13   C29   A    
C74   H14   S    
C34   C37   A    
O11   C7    A    
N16   H47   S    
O15   V3    S    
C35   C36   A    
N5    H26   S    
C48   C64   A    
C53   C57   A    
N9    H34   S    
C71   N19   S    
C78   H18   S    
O10   V2    S    
N10   H36   S    
C54   C58   A    
O5    V1    S    
C18   Cl1   S    
C65   C69   A    
C90   N10   S    
C91   N11   S    
C38   C42   A    
C85   C89   A    
N15   H45   S    
C26   C34   A    
C92   C96   A    
N8    H32   S    
O7    V3    S    
C41   N5    S    
C82   C86   A    
C73   C77   A    
C49   C53   A    
O18   V4    S    
C23   C27   A    
N3    C96   S    
C32   C44   A    
O10   C6    A    
N1    C94   S    
C16   H8    S    
N14   H43   S    
O8    V4    S    
C52   O28   S    
O7    C3    A    
N15   H46   S    
C39   C43   A    
C73   H13   S    
C63   C72   A    
C37   C41   A    
C46   N2    A    
C75   H15   S    
N11   H37   S    
C14   C30   A    
C92   N12   S    
C21   C25   A    
O8    C4    A    
C7    C10   S    
C48   O24   S    
C37   N13   S    
N16   H48   S    
O9    C5    A    
C46   O22   S    
C26   C30   A    
C45   O21   S    
C20   Cl3   S    
C77   H17   S    
C61   C70   A    
C72   N20   S    
O6    V2    S    
C74   C94   A    
C15   H7    S    
C76   C96   A    
C50   C54   A    
N8    H31   S    
C17   Cl2   S    
C12   C20   A    
C27   C35   A    
C2    C83   S    
C24   H3    S    
C78   C82   A    
C57   C61   A    
C68   C72   A    
C29   C41   A    
N10   H35   S    
C70   N18   S    
C14   H6    S    
O9    V1    S    
C81   C85   A    
C3    O13   A    
C64   C71   A    
C87   C91   A    
C75   C79   A    
C21   H2    S    
N20   H55   S    
C67   H11   S    
C84   C88   A    
C55   C67   A    
O6    C2    A    
N12   H40   S    
O11   V3    S    
C30   C42   A    
C80   C84   A    
C22   C26   A    
C8    C9    S    
C47   O23   S    
C50   O26   S    
C9    C17   A    
N6    H27   S    
C86   C90   A    
C49   O25   S    
C65   H9    S    
O20   V2    S    
C88   C92   A    
N2    C50   A    
O2    C6    A    
C47   N3    A    
O3    V1    S    
C33   C34   A    
N4    C52   A    
C25   C29   A    
C60   C64   A    
C69   N17   S    
C1    C84   S    
C12   C24   A    
C27   C31   A    
C13   C17   A    
N17   H49   S    
N1    C49   A    
C23   H4    S    
N7    H29   S    
C79   C83   A    
C56   C68   A    
O14   V2    S    
C55   C59   A    
C43   N7    S    
C24   C28   A    
C77   C81   A    
C15   C19   A    
O12   C8    A    
C45   N1    A    
C90   C94   A    
C66   C70   A    
C4    O14   A    
C4    C81   S    
C67   C71   A    
O5    C1    A    
C39   N15   S    
N20   H56   S    
C74   C78   A    
N18   H52   S    
O4    V2    S    
C28   C32   A    
N6    H28   S    
C68   H12   S    
C88   H24   S    
C44   N8    S    
