data_mof_unit_41758.cif
_audit_creation_date              2013-03-05T16:19:44-0500
_audit_creation_method            fapswitch 2.2
_symmetry_space_group_name_H-M    P1
_symmetry_Int_Tables_number       1
_space_group_crystal_system       triclinic
_cell_length_a                    10.658461
_cell_length_b                    9.758533
_cell_length_c                    27.717817
_cell_angle_alpha                 90.391159
_cell_angle_beta                  89.707439
_cell_angle_gamma                 89.914462
_cell_volume                      2882.8481637

loop_
_atom_site_label
_atom_site_type_symbol
_atom_site_description
_atom_site_fract_x
_atom_site_fract_y
_atom_site_fract_z
_atom_type_partial_charge
O1    O     O_R   0.314910 0.616040 0.499990 -0.634432
O2    O     O_R   0.314910 0.383960 0.499990 -0.600773
C1    C     C_R   0.257908 0.500332 0.500885 0.875711
O3    O     O_R   0.500140 0.616020 0.428740 -0.575801
O4    O     O_R   0.500140 0.383980 0.428740 -0.648037
C2    C     C_R   0.501138 0.499557 0.406025 0.899838
Zn1   Zn    Zn3+2 0.500150 0.654960 0.499980 0.966913
Zn2   Zn    Zn3+2 0.500150 0.345040 0.499980 0.983859
O5    O     O_R   0.685320 0.616040 0.499970 -0.574625
O6    O     O_R   0.685320 0.383960 0.499970 -0.594090
O7    O     O_R   0.500090 0.616050 0.571230 -0.652108
O8    O     O_R   0.500090 0.383950 0.571230 -0.533998
C3    C     C_R   0.742442 0.500103 0.500432 0.893370
C4    C     C_R   0.500026 0.500489 0.594058 0.918127
C5    C     C_R   0.397652 0.504493 0.177375 0.559901
O9    O     O_2   0.291026 0.525837 0.202828 -0.456768
N1    N     N_R   0.506476 0.479861 0.201396 -0.376945
C6    C     C_R   0.617340 0.456337 0.178055 0.554697
C7    C     C_R   0.550395 0.601964 0.276293 -0.211360
C8    C     C_R   0.549888 0.609500 0.326774 0.429338
C9    C     C_R   0.458414 0.380425 0.329024 -0.306773
C10   C     C_R   0.459472 0.374526 0.278996 -0.086507
C11   C     C_R   0.505479 0.485141 0.252761 0.252904
C12   C     C_R   0.512419 0.491244 0.101665 -0.205009
C13   C     C_R   0.397448 0.510306 0.126749 -0.059166
C14   C     C_R   0.286130 0.533814 0.100735 0.477974
C15   C     C_R   0.623445 0.461104 0.127421 -0.058018
C16   C     C_R   0.502915 0.497460 0.353255 -0.085234
H1    H     H_    0.421789 0.293717 0.348788 0.171853
H2    H     H_    0.424683 0.284199 0.260545 0.155379
C17   C     C_R   0.502975 0.503463 0.647015 -0.093549
C18   C     C_R   0.415608 0.571446 0.975566 0.015177
C19   C     C_R   0.627220 0.469067 0.974315 0.095207
C20   C     C_R   0.522006 0.523016 0.949678 -0.000031
C21   C     C_R   0.322451 0.647163 0.950509 0.422888
C22   C     C_R   0.325254 0.650857 0.899981 -0.248061
C23   C     C_R   0.422342 0.587994 0.874038 -0.072913
C24   C     C_R   0.522910 0.527639 0.898762 -0.061466
C25   C     C_R   0.623873 0.470605 0.872469 -0.008927
C26   C     C_R   0.620113 0.470820 0.822052 0.516860
N2    N     N_R   0.519564 0.526365 0.798868 -0.348969
C27   C     C_R   0.422385 0.586017 0.823562 0.547623
C28   C     C_R   0.527141 0.637515 0.720372 -0.086861
C29   C     C_R   0.521396 0.630123 0.670481 -0.271165
C30   C     C_R   0.489179 0.382876 0.674532 0.447907
C31   C     C_R   0.495232 0.392187 0.724958 -0.203099
C32   C     C_R   0.514383 0.518735 0.747556 0.264115
O10   O     O_2   0.325339 0.641113 0.799269 -0.538806
C33   C     C_R   0.407579 0.543814 0.025615 0.038858
C34   C     C_R   0.516287 0.502617 0.050815 0.057214
C35   C     C_R   0.628394 0.471901 0.025386 0.027422
C36   C     C_R   0.292513 0.548319 0.050638 -0.252810
H3    H     H_    0.532354 0.724036 0.650299 0.191520
H4    H     H_    0.541888 0.735516 0.738004 0.158854
H5    H     H_    0.251833 0.704997 0.881033 0.192820
O11   O     O_2   0.720841 0.429224 0.204191 -0.456625
C37   C     C_R   0.737101 0.439006 0.102173 0.508882
H6    H     H_    0.585972 0.686379 0.255065 0.140319
C38   C     C_R   0.726966 0.412117 0.946940 -0.207624
C39   C     C_R   0.724944 0.412716 0.896906 -0.132561
O12   O     O_2   0.715812 0.415947 0.796292 -0.541575
C40   C     C_R   0.738083 0.444467 0.051747 -0.332541
H7    H     H_    0.805862 0.361197 0.963190 0.148397
H8    H     H_    0.827471 0.431729 0.033902 0.136029
C41   C     C_3   0.070208 0.651451 0.506055 0.293573
C42   C     C_3   0.070809 0.410796 0.544071 0.274624
H9    H     H_    0.104794 0.710620 0.474431 0.129428
H10   H     H_    0.094392 0.301149 0.536404 0.166393
C43   C     C_3   0.927391 0.650492 0.503660 -0.424633
C44   C     C_3   0.926794 0.422652 0.546019 -0.382431
H11   H     H_    0.887246 0.703212 0.535904 0.245729
H12   H     H_    0.896125 0.477345 0.579459 0.206576
H13   H     H_    0.896734 0.708217 0.471216 0.176145
H14   H     H_    0.886198 0.317976 0.547442 0.211540
H15   H     H_    0.105704 0.502100 0.422833 0.191926
H16   H     H_    0.112304 0.333607 0.448093 0.205311
H17   H     H_    0.891922 0.484254 0.422074 0.193643
H18   H     H_    0.899408 0.322846 0.452769 0.193522
C45   C     C_3   0.073784 0.438664 0.453792 -0.573207
C46   C     C_3   0.121499 0.501211 0.501992 0.023482
C47   C     C_3   0.878867 0.500860 0.501115 0.001939
C48   C     C_3   0.929774 0.431893 0.454477 -0.414098
C49   C     C_3   0.371293 0.081612 0.507950 0.320880
C50   C     C_3   0.374349 0.919595 0.513656 0.191739
H19   H     H_    0.311909 0.103632 0.475920 0.100371
H20   H     H_    0.300309 0.875979 0.489856 0.137044
H21   H     H_    0.477709 0.121707 0.422326 0.190189
H22   H     H_    0.451715 0.888027 0.424841 0.194874
C51   C     C_3   0.538255 0.079492 0.451218 -0.457142
C52   C     C_3   0.527568 0.918126 0.450236 -0.392270
C53   C     C_3   0.585200 0.080766 0.536686 0.313915
C54   C     C_3   0.593217 0.919223 0.533758 0.340845
N3    N     N_3   0.499750 0.138610 0.498940 -0.124912
N4    N     N_3   0.499750 0.861390 0.498940 -0.146100
O13   O     O_3   0.846508 0.412130 0.127073 -0.673650
H23   H     H_    0.916373 0.395986 0.103964 0.332008
O14   O     O_3   0.469077 0.258330 0.651917 -0.769334
H24   H     H_    0.461852 0.185529 0.676566 0.336399
H25   H     H_    0.802857 0.366614 0.877445 0.194191
H26   H     H_    0.484587 0.301408 0.746881 0.142606
O15   O     O_3   0.112712 0.720359 0.547738 -0.718440
H27   H     H_    0.066254 0.685904 0.576225 0.392550
O16   O     O_3   0.122128 0.448834 0.588869 -0.745123
H28   H     H_    0.204223 0.401478 0.591730 0.364114
O17   O     O_3   0.309905 0.149089 0.546558 -0.710962
H29   H     H_    0.349768 0.124404 0.577393 0.387557
O18   O     O_3   0.344709 0.885236 0.561627 -0.749774
H30   H     H_    0.335319 0.784926 0.563098 0.416430
O19   O     O_3   0.704159 0.142732 0.536832 -0.717104
H31   H     H_    0.744529 0.130141 0.504965 0.330695
O20   O     O_3   0.715639 0.872465 0.524167 -0.740136
H32   H     H_    0.744904 0.909226 0.492947 0.323922
H33   H     H_    0.546828 0.106364 0.572808 0.153865
H34   H     H_    0.571108 0.879562 0.570326 0.149462
H35   H     H_    0.634456 0.111657 0.441087 0.185319
H36   H     H_    0.614044 0.871473 0.434868 0.237376
O21   O     O_3   0.171821 0.541321 0.124488 -0.674509
H37   H     H_    0.104431 0.561820 0.101071 0.330487
O22   O     O_3   0.235970 0.726044 0.975674 -0.776348
H38   H     H_    0.179571 0.773087 0.952729 0.339112
H39   H     H_    0.205126 0.556544 0.031366 0.191299
O23   O     O_3   0.597160 0.722851 0.350591 -0.785574
H40   H     H_    0.625884 0.790970 0.326566 0.331942

loop_
_geom_bond_atom_site_label_1
_geom_bond_atom_site_label_2
_geom_bond_distance
_ccdc_geom_bond_type
C42   H10   1.117487 S    
C51   H35   1.108132 S    
O15   H27   0.990874 S    
C52   N4    1.491136 S    
N2    C27   1.365906 A    
C21   O22   1.382994 S    
O13   H23   0.991479 S    
C14   O21   1.383519 S    
C41   O15   1.409925 S    
C4    C17   1.468456 S    
C39   H25   1.083502 S    
C45   C48   1.536475 S    
C47   C48   1.548647 S    
C37   C40   1.399086 A    
C42   C44   1.539811 S    
C30   C31   1.401828 A    
Zn1   O7    2.013609 S    
N1    C11   1.424277 S    
C22   C23   1.395976 A    
C50   H20   1.114263 S    
O4    C2    1.295477 A    
O7    C4    1.296844 A    
C5    C13   1.404780 A    
C5    O9    1.349728 S    
C49   N3    1.499005 S    
C3    C47   1.454332 S    
C50   O18   1.407967 S    
N1    C6    1.362673 A    
C23   C27   1.399078 A    
C43   H11   1.111593 S    
C44   C47   1.552687 S    
O5    C3    1.284160 A    
C40   H8    1.077855 S    
C29   H3    1.083106 S    
C2    C16   1.462687 S    
C21   C22   1.401403 A    
C41   H9    1.114392 S    
C54   H34   1.111678 S    
C44   H14   1.110812 S    
O18   H30   0.985230 S    
C12   C15   1.416673 A    
C43   H13   1.114525 S    
C52   H36   1.109204 S    
C8    O23   1.381415 S    
C6    O11   1.349688 S    
C38   C39   1.387152 A    
C19   C38   1.413905 A    
C41   C46   1.567093 S    
O1    Zn1   2.011127 S    
C9    C10   1.387454 A    
C35   C40   1.408127 A    
O3    Zn1   2.008300 S    
C1    C46   1.454088 S    
O14   H24   0.991810 S    
C7    H6    1.083444 S    
C12   C34   1.414965 A    
C17   C29   1.407250 A    
C6    C15   1.405728 A    
C18   C21   1.423380 A    
C12   C13   1.417211 A    
O3    C2    1.295493 A    
C15   C37   1.411460 A    
C53   C54   1.580119 S    
C27   O10   1.350099 S    
C8    C16   1.411966 A    
C34   C35   1.414870 A    
C13   C14   1.410844 A    
C9    H1    1.083319 S    
C26   O12   1.350052 S    
C53   H33   1.106431 S    
O1    C1    1.283339 A    
C18   C20   1.417651 A    
C7    C11   1.396053 A    
C28   C29   1.385926 A    
C23   C24   1.405929 A    
C14   C36   1.398064 A    
C53   N3    1.502995 S    
C36   H39   1.079233 S    
H18   C48   1.113506 S    
C28   H4    1.083058 S    
C49   C50   1.590320 S    
Zn2   O8    2.008518 S    
C33   C36   1.406352 A    
C54   N4    1.498807 S    
C19   C20   1.418465 A    
N2    C32   1.425056 S    
C50   N4    1.504807 S    
C26   N2    1.365768 A    
C49   H19   1.114867 S    
C9    C16   1.405284 A    
H22   C52   1.113142 S    
H21   C51   1.111984 S    
C17   C30   1.414121 A    
C25   C26   1.398264 A    
Zn1   O5    2.009281 S    
Zn1   N4    2.014856 S    
C31   H26   1.083448 S    
C31   C32   1.396616 A    
C10   H2    1.082946 S    
O20   H32   0.988228 S    
C20   C24   1.412291 A    
C42   O16   1.407160 S    
O2    Zn2   2.010013 S    
Zn2   N3    2.014476 S    
O8    C4    1.297633 A    
O6    C3    1.287384 A    
O4    Zn2   2.013395 S    
O22   H38   0.991788 S    
C54   O20   1.405166 S    
C5    N1    1.362245 A    
C19   C35   1.415778 A    
C42   C46   1.561972 S    
O17   H29   0.987535 S    
C38   H7    1.078242 S    
C53   O19   1.405560 S    
C7    C8    1.400641 A    
O2    C1    1.287161 A    
C51   C52   1.579030 S    
C22   H5    1.083568 S    
C30   O14   1.381217 S    
O21   H37   0.991633 S    
C24   C25   1.408397 A    
H15   C45   1.113651 S    
H17   C48   1.113499 S    
C41   C43   1.524040 S    
C25   C39   1.396158 A    
C51   N3    1.494732 S    
C18   C33   1.417210 A    
C43   C47   1.551077 S    
C45   C46   1.553317 S    
C49   O17   1.410254 S    
H16   C45   1.113745 S    
Zn2   O6    2.010395 S    
C33   C34   1.415176 A    
C37   O13   1.383734 S    
O16   H28   0.992711 S    
C10   C11   1.393957 A    
C44   H12   1.113757 S    
O23   H40   0.991780 S    
O19   H31   0.987371 S    
C28   C32   1.393248 A    
