data_mof_unit_23687.cif
_audit_creation_date              2013-03-05T15:51:12-0500
_audit_creation_method            fapswitch 2.2
_symmetry_space_group_name_H-M    P1
_symmetry_Int_Tables_number       1
_space_group_crystal_system       triclinic
_cell_length_a                    22.936215
_cell_length_b                    6.952915
_cell_length_c                    20.767882
_cell_angle_alpha                 89.989235
_cell_angle_beta                  93.302596
_cell_angle_gamma                 89.959373
_cell_volume                      3306.42659411

loop_
_atom_site_label
_atom_site_type_symbol
_atom_site_description
_atom_site_fract_x
_atom_site_fract_y
_atom_site_fract_z
_atom_type_partial_charge
O1    O     O_R   0.188030 0.379840 0.189340 -0.597859
O2    O     O_R   0.811970 0.620160 0.810660 -0.599218
O3    O     O_R   0.311970 0.879840 0.310660 -0.598468
O4    O     O_R   0.688030 0.120160 0.689340 -0.599445
O5    O     O_R   0.307090 0.708420 0.185790 -0.582644
O6    O     O_R   0.692910 0.291580 0.814210 -0.581148
O7    O     O_R   0.192910 0.208420 0.314210 -0.580554
O8    O     O_R   0.807090 0.791580 0.685790 -0.581281
C1    C     C_R   0.326679 0.540705 0.170700 0.974715
C2    C     C_R   0.673311 0.459288 0.829287 0.976946
C3    C     C_R   0.173227 0.040792 0.329196 0.978372
C4    C     C_R   0.826621 0.959232 0.670635 0.976756
O9    O     O_R   0.188180 0.709480 0.181650 -0.600219
O10   O     O_R   0.811820 0.290520 0.818350 -0.595958
O11   O     O_R   0.311820 0.209480 0.318350 -0.594488
O12   O     O_R   0.688180 0.790520 0.681650 -0.596150
O13   O     O_R   0.192210 0.880960 0.306500 -0.590809
O14   O     O_R   0.807790 0.119040 0.693500 -0.591900
O15   O     O_R   0.307790 0.380960 0.193500 -0.591847
O16   O     O_R   0.692210 0.619040 0.806500 -0.591972
C5    C     C_R   0.167599 0.540664 0.165558 0.950076
C6    C     C_R   0.832379 0.459323 0.834477 0.950630
C7    C     C_R   0.332346 0.040545 0.334522 0.956299
C8    C     C_R   0.667695 0.959455 0.665450 0.950578
O17   O     O_3   0.251460 0.546730 0.290970 -0.269799
O18   O     O_3   0.748540 0.453270 0.709030 -0.273969
O19   O     O_3   0.248540 0.046730 0.209030 -0.275412
O20   O     O_3   0.751460 0.953270 0.790970 -0.273756
V1    V     V_3+5 0.249730 0.821120 0.242400 1.176212
V2    V     V_3+5 0.750270 0.178880 0.757600 1.175762
V3    V     V_3+5 0.250270 0.321120 0.257600 1.181745
V4    V     V_3+5 0.749730 0.678880 0.742400 1.175607
C9    C     C_R   0.578744 0.817401 0.607797 -0.130933
C10   C     C_R   0.422039 0.181218 0.391265 -0.131891
C11   C     C_R   0.921482 0.317069 0.892167 -0.131424
C12   C     C_R   0.077909 0.681805 0.108692 -0.136886
C13   C     C_R   0.618603 0.970076 0.615816 -0.191334
C14   C     C_R   0.381671 0.029716 0.383913 -0.201650
C15   C     C_R   0.881548 0.469830 0.884046 -0.190270
C16   C     C_R   0.118211 0.529917 0.116282 -0.203392
C17   C     C_R   0.610893 0.134673 0.576904 -0.212061
C18   C     C_R   0.389083 0.865802 0.423226 -0.197751
C19   C     C_R   0.889136 0.634463 0.922930 -0.213043
C20   C     C_R   0.110454 0.364990 0.077579 -0.209094
C21   C     C_R   0.564796 0.146359 0.529256 -0.000568
C22   C     C_R   0.435866 0.852380 0.470023 0.008980
C23   C     C_R   0.935211 0.646399 0.970574 0.006208
C24   C     C_R   0.063793 0.351922 0.030708 0.003393
C25   C     C_R   0.524348 0.993204 0.522436 -0.049594
C26   C     C_R   0.476894 0.004092 0.476041 -0.062515
C27   C     C_R   0.975862 0.493655 0.977336 -0.041959
C28   C     C_R   0.023277 0.504908 0.023796 -0.048197
C29   C     C_R   0.531110 0.829601 0.562339 0.177168
C30   C     C_R   0.469952 0.168324 0.436357 0.157738
C31   C     C_R   0.969081 0.329345 0.937696 0.166579
C32   C     C_R   0.030009 0.668874 0.063548 0.173019
C33   C     C_R   0.558530 0.307580 0.488170 0.520633
C34   C     C_R   0.441713 0.691831 0.511481 0.515529
C35   C     C_R   0.941052 0.806953 0.011989 0.517679
C36   C     C_R   0.056983 0.188965 0.990583 0.496333
C37   C     C_R   0.510665 0.318374 0.442821 -0.341787
C38   C     C_R   0.490138 0.680371 0.556354 -0.343693
C39   C     C_R   0.988831 0.817856 0.057454 -0.329184
C40   C     C_R   0.009624 0.178649 0.944677 -0.328408
H1    H     H_    0.584026 0.690741 0.638054 0.128245
H2    H     H_    0.416748 0.307884 0.361018 0.130533
H3    H     H_    0.916156 0.190017 0.862136 0.128490
H4    H     H_    0.083196 0.808640 0.138829 0.131993
H5    H     H_    0.641647 0.252254 0.583181 0.174448
H6    H     H_    0.357539 0.750121 0.417939 0.182153
H7    H     H_    0.858244 0.751823 0.916700 0.174391
H8    H     H_    0.141630 0.248184 0.083319 0.175633
H9    H     H_    0.504904 0.446468 0.413366 0.152198
H10   H     H_    0.496096 0.553454 0.586247 0.147058
H11   H     H_    0.994192 0.945316 0.087258 0.152050
H12   H     H_    0.003822 0.049994 0.915550 0.152507
C41   C     C_3   0.036305 0.134753 0.518580 0.419552
C42   C     C_3   0.962437 0.865065 0.480023 0.420016
C43   C     C_3   0.462749 0.633750 0.980484 0.420611
C44   C     C_3   0.537225 0.365910 0.019475 0.420559
C45   C     C_3   0.022517 0.956187 0.558945 -0.260136
C46   C     C_3   0.976253 0.043641 0.439636 -0.265074
C47   C     C_3   0.476938 0.454911 0.940409 -0.263073
C48   C     C_3   0.523038 0.544756 0.059551 -0.264639
H13   H     H_    0.042010 0.923465 0.607889 0.180887
H14   H     H_    0.956757 0.076381 0.390694 0.179123
H15   H     H_    0.457508 0.421212 0.891524 0.179879
H16   H     H_    0.542474 0.578467 0.108431 0.179162
H17   H     H_    0.050084 0.688137 0.495197 0.211743
H18   H     H_    0.948647 0.311640 0.503397 0.211006
H19   H     H_    0.449967 0.187152 0.004597 0.209903
H20   H     H_    0.550012 0.812511 0.995366 0.209559
C49   C     C_1   0.871799 0.968709 0.624694 -0.273844
C50   C     C_1   0.127639 0.031321 0.374674 -0.269410
C51   C     C_1   0.627932 0.468899 0.874993 -0.273573
C52   C     C_1   0.372051 0.531043 0.124981 -0.273695
C53   C     C_3   0.970974 0.170349 0.501176 -0.258256
C54   C     C_3   0.027778 0.829457 0.497420 -0.253154
C55   C     C_3   0.528011 0.670796 0.997803 -0.258687
C56   C     C_3   0.471961 0.328879 0.002158 -0.256581
C57   C     C_3   0.956815 0.988566 0.540509 0.000579
C58   C     C_3   0.041964 0.011270 0.458097 0.001407
C59   C     C_3   0.542575 0.488745 0.958783 0.002526
C60   C     C_3   0.457399 0.510933 0.041179 0.003255
C61   C     C_1   0.909943 0.977301 0.586602 0.145840
C62   C     C_1   0.089136 0.022636 0.412345 0.147211
C63   C     C_1   0.589604 0.477555 0.912869 0.144671
C64   C     C_1   0.410373 0.522264 0.087098 0.144630
O21   O     O_3   0.595592 0.463767 0.497225 -0.666356
C65   C     C_3   0.631557 0.483722 0.444491 0.183173
H21   H     H_    0.639934 0.639795 0.438195 0.141194
H22   H     H_    0.611068 0.431546 0.397679 0.086074
C66   C     C_3   0.690022 0.381686 0.459213 -0.358971
H23   H     H_    0.710011 0.434666 0.505925 0.227022
H24   H     H_    0.682552 0.224373 0.463348 0.196285
C67   C     C_3   0.732304 0.417738 0.406424 -0.854198
H25   H     H_    0.713612 0.363399 0.359361 0.250148
H26   H     H_    0.774054 0.341389 0.418518 0.284063
H27   H     H_    0.741520 0.573966 0.402333 0.271999
O22   O     O_3   0.402847 0.539532 0.503088 -0.670321
C68   C     C_3   0.377580 0.488704 0.561398 0.196900
H28   H     H_    0.329447 0.503056 0.553521 0.142858
H29   H     H_    0.390519 0.582677 0.603421 0.081718
C69   C     C_3   0.392016 0.278709 0.577527 -0.299350
H30   H     H_    0.375252 0.185583 0.537112 0.220497
H31   H     H_    0.440101 0.260075 0.583578 0.199126
C70   C     C_3   0.364742 0.214750 0.639256 -0.956784
H32   H     H_    0.381855 0.302977 0.680735 0.271232
H33   H     H_    0.375865 0.061634 0.649070 0.268118
H34   H     H_    0.316462 0.229102 0.634068 0.278045
O23   O     O_3   0.903583 0.962413 0.003254 -0.666079
C71   C     C_3   0.867464 0.980017 0.055953 0.180871
H35   H     H_    0.858487 0.135641 0.062506 0.141653
H36   H     H_    0.888103 0.927769 0.102702 0.085052
C72   C     C_3   0.809397 0.876075 0.040979 -0.358582
H37   H     H_    0.789264 0.929129 0.994326 0.227152
H38   H     H_    0.817459 0.719122 0.036608 0.195740
C73   C     C_3   0.766917 0.909631 0.093756 -0.853791
H39   H     H_    0.785759 0.855180 0.140758 0.250028
H40   H     H_    0.725470 0.831936 0.081481 0.283196
H41   H     H_    0.757104 0.065430 0.098078 0.272706
O24   O     O_3   0.092372 0.029962 0.001733 -0.664520
C74   C     C_3   0.132494 0.016557 0.953037 0.167649
H42   H     H_    0.159295 0.150107 0.951441 0.101876
H43   H     H_    0.109365 0.992229 0.905084 0.106361
C75   C     C_3   0.172988 0.845862 0.968376 -0.287726
H44   H     H_    0.195249 0.865987 0.016902 0.216542
H45   H     H_    0.146720 0.711573 0.969213 0.205449
C76   C     C_3   0.218978 0.825197 0.918602 -0.893492
H46   H     H_    0.197708 0.802060 0.869809 0.254631
H47   H     H_    0.247374 0.699653 0.931128 0.281375
H48   H     H_    0.246643 0.956216 0.918075 0.283593
N1    N     N_R   0.076339 0.285838 0.541399 0.230824
O25   O     O_R   0.066091 0.380797 0.593487 -0.410955
O26   O     O_R   0.122051 0.327717 0.509924 -0.412871
N2    N     N_R   0.922315 0.714141 0.457235 0.229142
O27   O     O_R   0.932505 0.619001 0.405167 -0.416288
O28   O     O_R   0.876445 0.673144 0.488568 -0.422696
N3    N     N_R   0.422299 0.783643 0.957435 0.229677
O29   O     O_R   0.432311 0.878395 0.905234 -0.412564
O30   O     O_R   0.376330 0.824177 0.988684 -0.423828
N4    N     N_R   0.577651 0.215925 0.042514 0.229168
O31   O     O_R   0.567619 0.121151 0.094706 -0.415638
O32   O     O_R   0.623565 0.175096 0.011209 -0.422248

loop_
_geom_bond_atom_site_label_1
_geom_bond_atom_site_label_2
_geom_bond_distance
_ccdc_geom_bond_type
C34   C38   1.410318 A    
C72   C73   1.525765 S    
C55   C59   1.549672 S    
O1    C5    1.298566 A    
O19   V1    1.714359 S    
O13   V1    1.971692 S    
O3    C7    1.298760 A    
C56   C60   1.549683 S    
C44   C48   1.541388 S    
O4    V2    1.995519 S    
O15   V3    1.971982 S    
C10   H2    1.084341 S    
C9    H1    1.084410 S    
C72   H37   1.111802 S    
C45   C57   1.549569 S    
O7    C3    1.294550 A    
C21   C33   1.410865 A    
C26   C30   1.411655 A    
C47   C59   1.549745 S    
O9    V1    1.995981 S    
N2    O27   1.300265 A    
C14   C18   1.406319 A    
C24   C28   1.413789 A    
C76   H47   1.110581 S    
C43   N3    1.457163 S    
O4    C8    1.298652 A    
C45   C54   1.562579 S    
C74   H42   1.115506 S    
C74   H43   1.114068 S    
O1    V3    1.994996 S    
C67   H25   1.110842 S    
O17   V1    2.157162 S    
O2    V4    1.994996 S    
C18   C22   1.408649 A    
O3    V1    1.995520 S    
C65   H21   1.111183 S    
C12   C16   1.405828 A    
C65   H22   1.115948 S    
C41   N1    1.456933 S    
C66   H23   1.111810 S    
C76   H46   1.110822 S    
C1    O15   1.292159 A    
C33   O21   1.385722 S    
C2    O16   1.292170 A    
C71   H35   1.111171 S    
C68   C69   1.529705 S    
C42   C54   1.541098 S    
N3    O30   1.300295 A    
C41   C53   1.540865 S    
O14   V2    1.971692 S    
C21   C25   1.414561 A    
H19   C56   1.109822 S    
N1    O26   1.300246 A    
H18   C53   1.109719 S    
C75   H45   1.112244 S    
C66   C67   1.525763 S    
C49   C61   1.214347 T    
O11   C7    1.301907 A    
C52   C64   1.214444 T    
O12   C8    1.301716 A    
C22   C34   1.411212 A    
C42   C57   1.533251 S    
C57   C61   1.482194 S    
C41   C58   1.533236 S    
O10   V2    1.995983 S    
C24   C36   1.410019 A    
N4    O32   1.300305 A    
C9    C29   1.404686 A    
C44   C56   1.541074 S    
O7    V3    1.976463 S    
C44   C59   1.533233 S    
C11   C31   1.405163 A    
C27   C28   1.413887 A    
O8    V4    1.976464 S    
O20   V4    2.157546 S    
C74   C75   1.528686 S    
O18   V4    1.714634 S    
C15   C19   1.406115 A    
C37   H9    1.084053 S    
C54   C58   1.549717 S    
O19   V3    2.157546 S    
C9    C13   1.405083 A    
C46   C58   1.549880 S    
C36   O24   1.382622 S    
C11   C15   1.405790 A    
C70   H33   1.110649 S    
C18   H6    1.083584 S    
O5    C1    1.294420 A    
C12   C32   1.405579 A    
C75   C76   1.525545 S    
C29   C38   1.401125 A    
C42   C46   1.541539 S    
N3    O29   1.300265 A    
C65   C66   1.531763 S    
C11   H3    1.084365 S    
O8    C4    1.294365 A    
C35   O23   1.385805 S    
C31   C40   1.402355 A    
C34   O22   1.389201 S    
C8    C13   1.483905 S    
C40   H12   1.083931 S    
C32   C39   1.402066 A    
O9    C5    1.301921 A    
C33   C37   1.406652 A    
C1    C52   1.450095 S    
C44   N4    1.457228 S    
C68   H28   1.111103 S    
C73   H40   1.110566 S    
C69   C70   1.524848 S    
C3    C50   1.450365 S    
O6    V2    1.975897 S    
C10   C30   1.404965 A    
C47   C56   1.562697 S    
C48   C60   1.549769 S    
C46   C53   1.562799 S    
C43   C60   1.533209 S    
C76   H48   1.110970 S    
O12   V4    1.995024 S    
O23   C71   1.415448 S    
O5    V1    1.975898 S    
C60   C64   1.482382 S    
O22   C68   1.417095 S    
C69   H31   1.110304 S    
C75   H44   1.112104 S    
O16   V4    1.971982 S    
C43   C55   1.541059 S    
C72   H38   1.111309 S    
C3    O13   1.292230 A    
C19   H7    1.083135 S    
C10   C14   1.405478 A    
C48   C55   1.562697 S    
O17   V3    1.714634 S    
C48   H16   1.110082 S    
C73   H41   1.110938 S    
C47   H15   1.110096 S    
O6    C2    1.294379 A    
C23   C27   1.414346 A    
C12   H4    1.084318 S    
O11   V3    1.995020 S    
C70   H32   1.110851 S    
C51   C63   1.214406 T    
C30   C37   1.401927 A    
N4    O31   1.300265 A    
C7    C14   1.484537 S    
C22   C26   1.414845 A    
C35   C39   1.406843 A    
C67   H27   1.110937 S    
H17   C54   1.109680 S    
C36   C40   1.405277 A    
O10   C6    1.301839 A    
N2    O28   1.300313 A    
C70   H34   1.110818 S    
C46   H14   1.110074 S    
O2    C6    1.298739 A    
C43   C47   1.541348 S    
C42   N2    1.457164 S    
C5    C16   1.484110 S    
C39   H11   1.084070 S    
C2    C51   1.450033 S    
C71   C72   1.531838 S    
C25   C29   1.410441 A    
C6    C15   1.484344 S    
O20   V2    1.714360 S    
C67   H26   1.110566 S    
C20   H8    1.083702 S    
C27   C31   1.411706 A    
C13   C17   1.406030 A    
C4    C49   1.449940 S    
C41   C45   1.541084 S    
C53   C57   1.549517 S    
C68   H29   1.116828 S    
C50   C62   1.214605 T    
C73   H39   1.110841 S    
C23   C35   1.411087 A    
C28   C32   1.411020 A    
C16   C20   1.406003 A    
C71   H36   1.115929 S    
C25   C26   1.413428 A    
C58   C62   1.482644 S    
C4    O14   1.292207 A    
C17   C21   1.408197 A    
O24   C74   1.409044 S    
C38   H10   1.082881 S    
C59   C63   1.482301 S    
N1    O25   1.300275 A    
O21   C65   1.415388 S    
C17   H5    1.083120 S    
C19   C23   1.407971 A    
C45   H13   1.110076 S    
C20   C24   1.407598 A    
H20   C55   1.109826 S    
C69   H30   1.111269 S    
C66   H24   1.111318 S    
O18   V2    2.157161 S    
