data_mof_unit_43475.cif
_audit_creation_date              2012-12-11T14:30:17-0500
_audit_creation_method            fapswitch 2.2
_symmetry_space_group_name_H-M    P1
_symmetry_Int_Tables_number       1
_space_group_crystal_system       triclinic
_cell_length_a                    12.854372
_cell_length_b                    12.854783
_cell_length_c                    27.025916
_cell_angle_alpha                 89.999008
_cell_angle_beta                  90.000744
_cell_angle_gamma                 120.14456
_cell_volume                      3861.82148178

loop_
_atom_site_label
_atom_site_type_symbol
_atom_type_description
_atom_site_fract_x
_atom_site_fract_y
_atom_site_fract_z
_atom_type_partial_charge
C1    C     C_R   0.559746 0.456395 0.822074 0.536355
C2    C     C_R   0.454280 0.559170 0.177606 0.538538
C3    C     C_R   0.876995 0.288636 0.461887 0.140688
C4    C     C_R   0.414096 0.122008 0.038303 0.162229
C5    C     C_R   0.709456 0.596405 0.462601 0.140454
C6    C     C_R   0.411633 0.133791 0.512951 0.111649
C7    C     C_R   0.871593 0.274279 0.986590 0.158777
C8    C     C_R   0.726375 0.605865 0.514085 0.124275
C9    C     C_R   0.411611 0.133768 0.987042 0.111642
C10   C     C_R   0.871588 0.274282 0.513414 0.158770
C11   C     C_R   0.726383 0.605881 0.985917 0.124261
C12   C     C_1   0.139384 0.839605 0.039737 0.182412
C13   C     C_R   0.441390 0.895902 0.322118 0.534278
C14   C     C_1   0.705399 0.865960 0.460123 0.193969
C15   C     C_1   0.161400 0.305663 0.036230 0.195866
C16   C     C_1   0.139420 0.839607 0.460263 0.182380
C17   C     C_1   0.705429 0.865994 0.039889 0.193956
C18   C     C_1   0.161394 0.305663 0.463770 0.195872
C19   C     C_1   0.680434 0.860749 0.565455 0.192167
C20   C     C_1   0.138051 0.818451 0.934658 0.194005
C21   C     C_1   0.183813 0.338583 0.568557 0.196187
C22   C     C_1   0.680489 0.860793 0.934557 0.192140
C23   C     C_1   0.138101 0.818452 0.565343 0.193997
C24   C     C_R   0.103774 0.545161 0.177942 0.536973
C25   C     C_1   0.183818 0.338571 0.931443 0.196199
C26   C     C_R   0.983102 0.493099 0.975789 0.021408
C27   C     C_R   0.509776 0.014348 0.524411 0.030023
C28   C     C_R   0.507672 0.506519 0.973919 0.012176
C29   C     C_R   0.983120 0.493100 0.524213 0.021416
C30   C     C_R   0.509776 0.014344 0.975588 0.030017
C31   C     C_R   0.507665 0.506520 0.526080 0.012168
C32   C     C_R   0.506078 0.997301 0.472911 0.016921
C33   C     C_R   0.895079 0.439680 0.677544 0.535554
C34   C     C_R   0.001842 0.506537 0.027178 0.003613
C35   C     C_R   0.492977 0.508079 0.474589 0.000398
C36   C     C_R   0.506077 0.997300 0.027089 0.016918
C37   C     C_R   0.001865 0.506538 0.472825 0.003595
C38   C     C_R   0.492983 0.508083 0.025410 0.000395
C39   C     C_R   0.093555 0.712052 0.965509 -0.000630
C40   C     C_R   0.618104 0.904368 0.534565 -0.014238
C41   C     C_R   0.288948 0.399511 0.962972 0.000800
C42   C     C_R   0.093591 0.712053 0.534492 -0.000689
C43   C     C_R   0.618138 0.904395 0.965442 -0.014201
C44   C     C_R   0.543907 0.103526 0.822224 0.533961
C45   C     C_R   0.288942 0.399516 0.537027 0.000797
C46   C     C_R   0.620325 0.894034 0.482621 -0.017144
C47   C     C_R   0.106196 0.724865 0.017293 -0.022392
C48   C     C_R   0.275151 0.393503 0.485172 -0.009319
C49   C     C_R   0.620355 0.894062 0.017386 -0.017097
C50   C     C_R   0.106232 0.724866 0.482708 -0.022454
C51   C     C_R   0.275157 0.393500 0.014827 -0.009326
C52   C     C_R   0.004168 0.579141 0.893248 -0.131097
C53   C     C_R   0.574561 0.993421 0.607050 -0.121563
C54   C     C_R   0.422103 0.442991 0.891057 -0.147176
C55   C     C_R   0.559745 0.456397 0.677926 0.536355
C56   C     C_R   0.004185 0.579142 0.606753 -0.131014
C57   C     C_R   0.574580 0.993432 0.892952 -0.121582
C58   C     C_R   0.422099 0.442991 0.608943 -0.147173
C59   C     C_R   0.544485 0.909406 0.401160 -0.124001
C60   C     C_R   0.091972 0.633923 0.098613 -0.127762
C61   C     C_R   0.364558 0.463330 0.402823 -0.132302
C62   C     C_R   0.544498 0.909422 0.098843 -0.124009
C63   C     C_R   0.091996 0.633923 0.401389 -0.127748
C64   C     C_R   0.364563 0.463330 0.097176 -0.132297
C65   C     C_R   0.051303 0.531898 0.128686 -0.007126
C66   C     C_R   0.895078 0.439679 0.822456 0.535560
C67   C     C_R   0.480912 0.948093 0.371373 -0.030090
C68   C     C_R   0.466463 0.522575 0.127644 -0.023111
C69   C     C_R   0.051315 0.531898 0.371316 -0.007120
C70   C     C_R   0.480911 0.948096 0.128627 -0.030094
C71   C     C_R   0.466459 0.522570 0.372355 -0.023110
C72   C     C_R   0.525424 0.059950 0.626488 -0.004013
C73   C     C_R   0.935565 0.463416 0.873976 -0.007141
C74   C     C_R   0.536333 0.477316 0.626938 -0.010975
C75   C     C_R   0.525422 0.059941 0.873511 -0.004029
C76   C     C_R   0.935567 0.463418 0.626025 -0.007138
C77   C     C_R   0.543907 0.103528 0.677775 0.533960
C78   C     C_R   0.536335 0.477311 0.873063 -0.010964
C79   C     C_R   0.029867 0.595750 0.944441 0.020859
C80   C     C_R   0.564940 0.967167 0.555795 0.023659
C81   C     C_R   0.405464 0.454266 0.942134 -0.003450
C82   C     C_R   0.029891 0.595751 0.555560 0.020913
C83   C     C_R   0.564958 0.967178 0.944208 0.023667
C84   C     C_R   0.405459 0.454269 0.557865 -0.003455
C85   C     C_R   0.557435 0.933096 0.452173 0.007175
C86   C     C_R   0.067634 0.622722 0.047717 -0.023443
C87   C     C_R   0.376539 0.455184 0.454165 -0.021447
C88   C     C_R   0.454279 0.559168 0.322394 0.538538
C89   C     C_R   0.557449 0.933110 0.047831 0.007187
C90   C     C_R   0.067663 0.622723 0.452284 -0.023445
C91   C     C_R   0.376545 0.455184 0.045834 -0.021447
C92   C     C_R   0.893308 0.363555 0.905210 -0.094927
C93   C     C_R   0.465025 0.098854 0.595325 -0.103968
C94   C     C_R   0.635844 0.530890 0.904689 -0.099604
C95   C     C_R   0.893307 0.363557 0.594791 -0.094904
C96   C     C_R   0.465002 0.098824 0.904671 -0.103983
C97   C     C_R   0.635842 0.530905 0.595312 -0.099590
C98   C     C_R   0.441515 0.021951 0.391171 -0.110560
C99   C     C_R   0.441390 0.895903 0.177882 0.534283
C100  C     C_R   0.975277 0.418256 0.109234 -0.127535
C101  C     C_R   0.580019 0.562490 0.392089 -0.104762
C102  C     C_R   0.441501 0.021941 0.108826 -0.110570
C103  C     C_R   0.975287 0.418257 0.390769 -0.127518
C104  C     C_R   0.580024 0.562506 0.107910 -0.104772
C105  C     C_R   0.916902 0.376461 0.955740 0.012801
C106  C     C_R   0.459899 0.080756 0.544412 0.005792
C107  C     C_R   0.624441 0.551261 0.954450 0.017005
C108  C     C_R   0.916904 0.376463 0.544262 0.012828
C109  C     C_R   0.459883 0.080735 0.955585 0.005773
C110  C     C_R   0.103777 0.545160 0.322058 0.536970
C111  C     C_R   0.624433 0.551258 0.545550 0.017029
C112  C     C_R   0.454617 0.048266 0.441731 0.034008
C113  C     C_R   0.949468 0.403937 0.058506 0.000794
C114  C     C_R   0.594457 0.554598 0.442982 0.032169
C115  C     C_R   0.454603 0.048255 0.058266 0.033990
C116  C     C_R   0.949482 0.403939 0.441497 0.000812
C117  C     C_R   0.594464 0.554614 0.057018 0.032139
C118  C     C_R   0.876992 0.288633 0.038116 0.140692
C119  C     C_R   0.414119 0.122028 0.461690 0.162236
C120  C     C_R   0.709465 0.596431 0.037399 0.140465
Cr1   Cr    Cr6+3 0.487630 0.241180 0.750000 1.042515
Cr2   Cr    Cr6+3 0.753550 0.512370 0.750000 1.043107
Cr3   Cr    Cr6+3 0.758820 0.246450 0.750000 1.045212
Cr4   Cr    Cr6+3 0.241180 0.487630 0.250000 1.036980
Cr5   Cr    Cr6+3 0.512370 0.753550 0.250000 1.036032
Cr6   Cr    Cr6+3 0.246450 0.758820 0.250000 1.040541
H1    H     H_    0.149907 0.722134 0.114361 0.158450
H2    H     H_    0.621835 0.965086 0.868188 0.136896
H3    H     H_    0.034383 0.654941 0.631631 0.135306
H4    H     H_    0.346837 0.401049 0.865713 0.139476
H5    H     H_    0.942573 0.341349 0.133596 0.133502
H6    H     H_    0.395132 0.053460 0.367404 0.178607
H7    H     H_    0.657488 0.605723 0.132178 0.179051
H8    H     H_    0.942576 0.341351 0.366406 0.133500
H9    H     H_    0.395107 0.053442 0.132591 0.178614
H10   H     H_    0.657483 0.605702 0.367822 0.179040
H11   H     H_    0.427843 0.150402 0.611112 0.148172
H12   H     H_    0.575892 0.852789 0.385216 0.157151
H13   H     H_    0.835214 0.274660 0.890081 0.165067
H14   H     H_    0.721803 0.548431 0.609550 0.148485
H15   H     H_    0.427801 0.150354 0.888882 0.148191
H16   H     H_    0.835212 0.274660 0.609920 0.165099
H17   H     H_    0.721791 0.548383 0.890451 0.148375
H18   H     H_    0.751058 0.201893 0.091393 0.229944
H19   H     H_    0.863671 0.168802 0.091107 0.257407
H20   H     H_    0.436950 0.278413 0.434808 0.247723
H21   H     H_    0.291273 0.168311 0.439712 0.289613
H22   H     H_    0.839958 0.567371 0.062594 0.250845
H23   H     H_    0.276146 0.431088 0.113021 0.157962
H24   H     H_    0.877190 0.714270 0.064616 0.270797
H25   H     H_    0.751060 0.201912 0.408608 0.229954
H26   H     H_    0.863657 0.168799 0.408897 0.257409
H27   H     H_    0.436938 0.278392 0.065188 0.247706
H28   H     H_    0.291254 0.168307 0.060270 0.289621
H29   H     H_    0.839986 0.567366 0.437439 0.250887
H30   H     H_    0.877141 0.714236 0.435343 0.270723
H31   H     H_    0.290661 0.149894 0.555245 0.262987
H32   H     H_    0.431609 0.272105 0.553128 0.229030
H33   H     H_    0.880992 0.159226 0.937859 0.246058
H34   H     H_    0.149934 0.722134 0.385639 0.158451
H35   H     H_    0.829581 0.099650 0.991610 0.273903
H36   H     H_    0.848013 0.699149 0.569855 0.245466
H37   H     H_    0.888892 0.757657 0.515354 0.252369
H38   H     H_    0.290637 0.149868 0.944747 0.262997
H39   H     H_    0.431586 0.272079 0.946859 0.229031
H40   H     H_    0.881014 0.159219 0.562130 0.246086
H41   H     H_    0.829464 0.099614 0.508390 0.273907
H42   H     H_    0.848057 0.699014 0.930121 0.245413
H43   H     H_    0.888760 0.757837 0.984594 0.252460
H44   H     H_    0.575916 0.852815 0.114791 0.157159
H45   H     H_    0.276141 0.431093 0.386978 0.157961
H46   H     H_    0.621799 0.965059 0.631818 0.136894
H47   H     H_    0.034362 0.654939 0.868370 0.135305
H48   H     H_    0.346833 0.401045 0.634287 0.139479
N1    N     N_1   0.161848 0.929529 0.058246 -0.284146
N2    N     N_1   0.730486 0.826816 0.909667 -0.299403
N3    N     N_1   0.173085 0.903057 0.590022 -0.299808
N4    N     N_1   0.101024 0.290035 0.905749 -0.308769
N5    N     N_3   0.807035 0.185048 0.068820 -0.622425
N6    N     N_3   0.377336 0.186716 0.429588 -0.616818
N7    N     N_3   0.808215 0.625934 0.070284 -0.628743
N8    N     N_3   0.807028 0.185055 0.431182 -0.622464
N9    N     N_3   0.377309 0.186694 0.070403 -0.616803
N10   N     N_3   0.808195 0.625870 0.429716 -0.628835
N11   N     N_3   0.363444 0.204032 0.532236 -0.638002
N12   N     N_1   0.775802 0.848082 0.441477 -0.296018
N13   N     N_3   0.823037 0.156088 0.965615 -0.609702
N14   N     N_3   0.847041 0.674188 0.533125 -0.626400
N15   N     N_3   0.363423 0.204009 0.967754 -0.638010
N16   N     N_3   0.823014 0.156093 0.534394 -0.609732
N17   N     N_3   0.847056 0.674278 0.966889 -0.626377
N18   N     N_1   0.072321 0.232783 0.053687 -0.302638
N19   N     N_1   0.161883 0.929530 0.441753 -0.284161
N20   N     N_1   0.775831 0.848118 0.058539 -0.295992
N21   N     N_1   0.072316 0.232780 0.446313 -0.302627
N22   N     N_1   0.730412 0.826757 0.590350 -0.299435
N23   N     N_1   0.173022 0.903057 0.909979 -0.299818
N24   N     N_1   0.101021 0.290055 0.594253 -0.308777
O1    O     O_R   0.460870 0.120930 0.805240 -0.504374
O2    O     O_R   0.120930 0.460870 0.194760 -0.513576
O3    O     O_R   0.539130 0.660060 0.305240 -0.511955
O4    O     O_R   0.339940 0.879070 0.194760 -0.510163
O5    O     O_R   0.498910 0.350470 0.801870 -0.501947
O6    O     O_R   0.851560 0.501090 0.698130 -0.503110
O7    O     O_R   0.649530 0.148440 0.801870 -0.501458
O8    O     O_R   0.498910 0.350470 0.698130 -0.501945
O9    O     O_R   0.851560 0.501090 0.801870 -0.503119
O10   O     O_R   0.649530 0.148440 0.698130 -0.501458
O11   O     O_R   0.350470 0.498910 0.301870 -0.498517
O12   O     O_R   0.660060 0.539130 0.694760 -0.502110
O13   O     O_R   0.501090 0.851560 0.198130 -0.502211
O14   O     O_R   0.148440 0.649530 0.301870 -0.500474
O15   O     O_R   0.350470 0.498910 0.198130 -0.498515
O16   O     O_R   0.501090 0.851560 0.301870 -0.502209
O17   O     O_R   0.148440 0.649530 0.198130 -0.500472
O18   O     O_3   0.666667 0.333333 0.750000 -0.262764
O19   O     O_3   0.333333 0.666667 0.250000 -0.257117
O20   O     O_R   0.879070 0.339940 0.805240 -0.501849
O21   O     O_R   0.460870 0.120930 0.694760 -0.504366
O22   O     O_R   0.660060 0.539130 0.805240 -0.502107
O23   O     O_R   0.879070 0.339940 0.694760 -0.501852
O24   O     O_R   0.120930 0.460870 0.305240 -0.513580
O25   O     O_R   0.539130 0.660060 0.194760 -0.511955
O26   O     O_R   0.339940 0.879070 0.305240 -0.510163

loop_
_geom_bond_atom_site_label_1
_geom_bond_atom_site_label_2
_ccdc_geom_bond_type
C36   C89   A    
C15   N18   T    
C56   C76   A    
C5    C114  A    
C43   C83   A    
C4    C115  A    
C10   C108  A    
C42   C82   A    
C21   N24   T    
C44   O7    A    
C57   H2    S    
C7    C118  A    
H30   N10   S    
C100  H5    S    
Cr6   O17   S    
C14   C46   S    
C37   C116  A    
C99   O13   A    
C8    N14   S    
C34   C113  A    
C40   C46   A    
Cr3   O23   S    
C6    N11   S    
Cr5   O3    S    
Cr2   O12   S    
C10   N16   S    
H42   N17   S    
Cr2   O22   S    
C37   C90   A    
C94   H17   S    
C64   C68   A    
C7    N13   S    
C103  H8    S    
C16   C50   S    
C2    C68   S    
C3    C116  A    
C76   C95   A    
C97   C111  A    
C24   O17   A    
Cr6   O26   S    
C101  H10   S    
C29   C37   A    
Cr4   O11   S    
C102  C115  A    
C28   C107  A    
H33   N13   S    
C62   C89   A    
Cr3   O7    S    
C35   C114  A    
C34   C86   A    
Cr2   O6    S    
C30   C83   A    
C55   O8    A    
C102  H9    S    
Cr1   O1    S    
C16   N19   T    
C61   C87   A    
C67   C98   A    
C59   C67   A    
C96   H15   S    
C55   C74   S    
C35   C87   A    
H21   N6    S    
C26   C34   A    
C63   C69   A    
H22   N7    S    
C25   N4    T    
H39   N15   S    
C40   C80   A    
C29   C108  A    
C33   O23   A    
C61   H45   S    
C15   C51   S    
C88   O3    A    
C74   C97   A    
C52   C79   A    
C120  N7    S    
C5    N10   S    
C56   H3    S    
C53   H46   S    
Cr6   O19   S    
C46   C85   A    
C51   C91   A    
C118  N5    S    
C61   C71   A    
Cr5   O25   S    
C71   C101  A    
C19   N22   T    
Cr3   O18   S    
C101  C114  A    
C38   C117  A    
C62   C70   A    
C17   N20   T    
C58   H48   S    
Cr1   O8    S    
C12   C47   S    
C9    N15   S    
C11   C120  A    
H31   N11   S    
C26   C105  A    
C50   C90   A    
C75   C96   A    
H24   N7    S    
C21   C45   S    
Cr4   O15   S    
C69   C103  A    
C9    C109  A    
C62   H44   S    
C110  O14   A    
C94   C107  A    
C98   C112  A    
C104  H7    S    
C30   C109  A    
C1    C78   S    
Cr1   O18   S    
H27   N9    S    
C53   C80   A    
Cr1   O5    S    
C27   C80   A    
C19   C40   S    
C117  C120  A    
C17   C49   S    
C20   C39   S    
C60   C86   A    
H29   N10   S    
C43   C49   A    
C54   H4    S    
C27   C106  A    
C66   C73   S    
C38   C91   A    
Cr6   O4    S    
C31   C84   A    
C71   C88   S    
H37   N14   S    
H40   N16   S    
C39   C79   A    
C13   O16   A    
C44   C75   S    
C47   C86   A    
C72   C77   S    
C58   C84   A    
C93   C106  A    
C5    C8    A    
Cr5   O16   S    
C33   C76   S    
C22   C43   S    
H18   N5    S    
C28   C38   A    
C95   H16   S    
C41   C81   A    
H28   N9    S    
H19   N5    S    
C57   C83   A    
C6    C106  A    
C48   C87   A    
H20   N6    S    
C23   C42   S    
C92   H13   S    
C24   C65   S    
C42   C50   A    
C12   N1    T    
C72   C93   A    
C69   C110  S    
Cr4   O24   S    
C60   C65   A    
C52   C73   A    
C88   O11   A    
C99   O4    A    
C11   C107  A    
C31   C35   A    
C8    C111  A    
C45   C84   A    
C119  N6    S    
H43   N17   S    
C13   O26   A    
C25   C41   S    
H38   N15   S    
C1    O5    A    
H32   N11   S    
C6    C119  A    
C70   C99   S    
C58   C74   A    
H25   N8    S    
C39   C47   A    
C104  C117  A    
C13   C67   S    
C45   C48   A    
H41   N16   S    
Cr4   O19   S    
C32   C112  A    
C18   N21   T    
Cr1   O21   S    
Cr2   O9    S    
Cr3   O20   S    
C60   H1    S    
C77   O21   A    
C100  C113  A    
C68   C104  A    
C73   C92   A    
C49   C89   A    
C65   C100  A    
C18   C48   S    
C112  C119  A    
C22   N2    T    
C70   C102  A    
C56   C82   A    
C44   O1    A    
C96   C109  A    
Cr4   O2    S    
C33   O6    A    
C63   H34   S    
C26   C79   A    
C59   H12   S    
C30   C36   A    
C64   H23   S    
C57   C75   A    
C103  C116  A    
C28   C81   A    
C29   C82   A    
H35   N13   S    
C3    C10   A    
Cr6   O14   S    
C55   O12   A    
H36   N14   S    
C66   O9    A    
C53   C72   A    
C78   C94   A    
C14   N12   T    
C32   C85   A    
C52   H47   S    
C63   C90   A    
C2    O25   A    
Cr2   O18   S    
Cr3   O10   S    
C1    O22   A    
C11   N17   S    
Cr5   O13   S    
C4    N9    S    
C3    N8    S    
C20   N23   T    
C23   N3    T    
C93   H11   S    
C95   C108  A    
C27   C32   A    
C113  C118  A    
C92   C105  A    
C77   O10   A    
C24   O2    A    
C2    O15   A    
C66   O20   A    
C7    C105  A    
C98   H6    S    
C97   H14   S    
C31   C111  A    
C64   C91   A    
C4    C9    A    
C36   C115  A    
H26   N8    S    
C59   C85   A    
C41   C51   A    
C54   C81   A    
Cr5   O19   S    
C54   C78   A    
C110  O24   A    
