data_mof_unit_27151.cif
_audit_creation_date              2012-10-26T20:01:53-0400
_audit_creation_method            fapswitch 2.2
_symmetry_space_group_name_H-M    P1
_symmetry_Int_Tables_number       1
_space_group_crystal_system       triclinic
_cell_length_a                    11.691781
_cell_length_b                    10.850739
_cell_length_c                    9.609804
_cell_angle_alpha                 90.821563
_cell_angle_beta                  89.584627
_cell_angle_gamma                 93.518098
_cell_volume                      1216.69524262

loop_
_atom_site_label
_atom_site_type_symbol
_atom_type_description
_atom_site_fract_x
_atom_site_fract_y
_atom_site_fract_z
_atom_type_partial_charge
C1    C     C_R   0.506894 0.262928 0.499705 0.536835
C2    C     C_R   0.477185 0.871108 0.507540 -0.007980
C3    C     C_R   0.672750 0.635479 0.148885 -0.106109
C4    C     C_R   0.284149 0.499695 0.500372 0.533362
C5    C     C_R   0.779488 0.658155 0.089115 -0.160336
C6    C     C_R   0.792747 0.639976 0.947939 0.259490
C7    C     C_R   0.694180 0.620286 0.866180 0.285727
C8    C     C_R   0.590101 0.564161 0.927002 0.057344
C9    C     C_R   0.585580 0.566992 0.076345 0.092512
C10   C     C_R   0.418935 0.434724 0.073897 -0.010445
C11   C     C_R   0.415995 0.437276 0.925155 0.369386
C12   C     C_R   0.576642 0.066410 0.873861 -0.089207
C13   C     C_R   0.489855 0.736864 0.501802 0.579465
C14   C     C_R   0.715831 0.499732 0.499560 0.569922
C15   C     C_1   0.162447 0.500195 0.500932 -0.029846
C16   C     C_1   0.059935 0.500452 0.500521 -0.023519
C17   C     C_1   0.940116 0.500419 0.499547 0.002671
C18   C     C_1   0.837579 0.500135 0.499003 0.024115
C19   C     C_R   0.582543 0.123454 0.744886 -0.051530
C20   C     C_3   0.221730 0.385161 0.895367 -0.011848
C21   C     C_3   0.163986 0.265950 0.950755 -0.381819
C22   C     C_3   0.315235 0.847534 0.255011 -0.001271
C23   C     C_R   0.518526 0.951694 0.886733 -0.092698
C24   C     C_3   0.284087 0.772646 0.124138 -0.350965
C25   C     C_R   0.476157 0.889037 0.768481 -0.051538
C26   C     C_R   0.493757 0.939803 0.634127 0.010988
C27   C     C_R   0.530255 0.065479 0.626245 0.021523
C28   C     C_R   0.511438 0.128620 0.501043 -0.055202
C29   C     C_R   0.478112 0.062195 0.380758 -0.132408
C30   C     C_R   0.462655 0.934583 0.382174 0.225220
Cl1   Cl    Cl    0.929435 0.674416 0.873944 -0.590409
Cl2   Cl    Cl    0.700679 0.730882 0.733968 -0.534372
Cu1   Cu    Cu3+1 0.499990 0.499990 0.640660 1.033919
Cu2   Cu    Cu3+1 0.500010 0.500010 0.359340 0.941479
H1    H     H_    0.462505 0.109142 0.284555 0.148682
H2    H     H_    0.214400 0.461079 0.973946 0.107749
H3    H     H_    0.210226 0.234712 0.042992 0.137521
H4    H     H_    0.074153 0.281397 0.981272 0.125290
H5    H     H_    0.163587 0.192554 0.868994 0.174613
H6    H     H_    0.270058 0.934956 0.252897 0.126811
H7    H     H_    0.284566 0.792397 0.346463 0.133480
H8    H     H_    0.330395 0.686316 0.121533 0.172087
H9    H     H_    0.190436 0.748203 0.123052 0.130207
H10   H     H_    0.307265 0.827283 0.030211 0.142173
H11   H     H_    0.629930 0.211963 0.739262 0.137317
H12   H     H_    0.614361 0.112815 0.964478 0.119668
H13   H     H_    0.508756 0.909778 0.987919 0.161642
H14   H     H_    0.427754 0.802562 0.785203 0.141173
H15   H     H_    0.354969 0.379084 0.130430 0.120496
H16   H     H_    0.663611 0.668660 0.253031 0.205976
H17   H     H_    0.850436 0.695744 0.151581 0.155203
H18   H     H_    0.172964 0.412374 0.803186 0.182876
N1    N     N_R   0.501070 0.501210 0.147910 -0.267382
N2    N     N_R   0.501110 0.501290 0.852040 -0.235425
O1    O     O_R   0.499990 0.319640 0.618810 -0.474620
O2    O     O_3   0.435146 0.873019 0.258703 -0.555147
O3    O     O_R   0.500000 0.319660 0.381240 -0.510097
O4    O     O_R   0.337190 0.500000 0.618790 -0.463143
O5    O     O_R   0.337200 0.500030 0.381210 -0.516732
O6    O     O_R   0.500000 0.680340 0.618760 -0.474820
O7    O     O_R   0.500010 0.680360 0.381190 -0.472079
O8    O     O_R   0.662800 0.499970 0.618790 -0.463524
O9    O     O_R   0.662810 0.500000 0.381210 -0.526088
O10   O     O_3   0.335123 0.364268 0.851636 -0.526358

loop_
_geom_bond_atom_site_label_1
_geom_bond_atom_site_label_2
_ccdc_geom_bond_type
C17   C18   T    
Cu1   O1    S    
Cu2   O3    S    
C19   H11   S    
C20   O10   S    
C6    C7    A    
C3    C9    A    
C1    O3    A    
C8    C9    A    
C1    C28   S    
C19   C27   A    
C14   C18   S    
C21   H5    S    
Cu1   O4    S    
C2    C30   A    
C22   H6    S    
C4    C15   S    
C2    C26   A    
C6    Cl1   S    
C1    O1    A    
C13   O7    A    
C7    C8    A    
C20   H18   S    
C13   O6    A    
C24   H8    S    
C12   C23   A    
C26   C27   A    
C29   C30   A    
C11   N2    A    
C14   O9    A    
C4    O5    A    
Cu2   O9    S    
C3    H16   S    
Cu1   Cu2   S    
Cu1   O6    S    
C25   H14   S    
C23   C25   A    
C5    C6    A    
C24   H10   S    
C22   C24   S    
Cu2   O5    S    
C22   H7    S    
C9    N1    A    
C10   C11   A    
C23   H13   S    
C4    O4    A    
C15   C16   T    
C20   H2    S    
C27   C28   A    
C21   H3    S    
C20   C21   S    
C12   C19   A    
Cu2   N1    S    
C12   H12   S    
C11   O10   S    
C10   N1    A    
C8    N2    A    
Cu1   N2    S    
C24   H9    S    
C2    C13   S    
C29   H1    S    
C28   C29   A    
C22   O2    S    
C7    Cl2   S    
C25   C26   A    
C10   H15   S    
C30   O2    S    
Cu2   O7    S    
C5    H17   S    
C21   H4    S    
C16   C17   S    
Cu1   O8    S    
C3    C5    A    
C14   O8    A    
