data_mof_unit_35156.cif
_audit_creation_date              2012-12-10T18:29:34-0500
_audit_creation_method            fapswitch 2.2
_symmetry_space_group_name_H-M    P1
_symmetry_Int_Tables_number       1
_space_group_crystal_system       triclinic
_cell_length_a                    11.542962
_cell_length_b                    14.977403
_cell_length_c                    15.546565
_cell_angle_alpha                 81.310848
_cell_angle_beta                  89.849425
_cell_angle_gamma                 104.797765
_cell_volume                      2566.38759923

loop_
_atom_site_label
_atom_site_type_symbol
_atom_type_description
_atom_site_fract_x
_atom_site_fract_y
_atom_site_fract_z
_atom_type_partial_charge
C1    C     C_R   0.482836 0.440858 0.661996 0.876835
C2    C     C_R   0.516188 0.559131 0.337944 0.892764
C3    C     C_R   0.423329 0.348646 0.934537 -0.094192
C4    C     C_R   0.558389 0.649733 0.064371 -0.091736
C5    C     C_R   0.492812 0.513466 0.954290 -0.173060
C6    C     C_R   0.487019 0.484695 0.045619 -0.171501
C7    C     C_R   0.463509 0.386789 0.079108 0.383755
C8    C     C_R   0.515222 0.611139 0.920434 0.377270
C9    C     C_R   0.419552 0.320205 0.024727 0.395557
C10   C     C_R   0.558772 0.677985 0.974424 0.401301
C11   C     C_R   0.671126 0.837644 0.641902 -0.291107
C12   C     C_R   0.314375 0.157574 0.368693 -0.298868
C13   C     C_R   0.646186 0.751279 0.614768 0.072269
C14   C     C_R   0.351213 0.247696 0.387116 0.052702
C15   C     C_R   0.506564 0.792857 0.515740 -0.068101
C16   C     C_R   0.484168 0.204309 0.491101 -0.044804
C17   C     C_R   0.526484 0.882179 0.540648 -0.017357
C18   C     C_R   0.449003 0.110315 0.477273 -0.013816
C19   C     C_R   0.612446 0.905136 0.604917 0.102133
C20   C     C_R   0.362224 0.086965 0.413567 0.102473
C21   C     C_R   0.466835 0.949197 0.501677 0.041331
C22   C     C_R   0.498940 0.040470 0.523303 0.041209
C23   C     C_R   0.718077 0.501229 0.500147 0.899861
C24   C     C_R   0.281915 0.498722 0.499968 0.881596
C25   C     C_R   0.579398 0.059443 0.590635 -0.227862
C26   C     C_R   0.375730 0.927034 0.441997 -0.249542
C27   C     C_R   0.638030 0.994243 0.630978 0.097142
C28   C     C_R   0.324186 0.994152 0.396526 0.100589
C29   C     C_1   0.839320 0.503016 0.500686 -0.188697
C30   C     C_1   0.160662 0.496856 0.499625 -0.197671
C31   C     C_1   0.941111 0.501503 0.500496 -0.007519
C32   C     C_1   0.058864 0.498333 0.499926 -0.010801
C33   C     C_R   0.466196 0.403424 0.754804 -0.194541
C34   C     C_R   0.526484 0.596288 0.244920 -0.203224
C35   C     C_R   0.385317 0.283139 0.877617 -0.260424
C36   C     C_R   0.600181 0.715634 0.120087 -0.249171
C37   C     C_R   0.401460 0.311148 0.787345 0.451575
C38   C     C_R   0.585640 0.689478 0.210614 0.458536
C39   C     C_R   0.508288 0.465934 0.812033 -0.236566
C40   C     C_R   0.480172 0.533177 0.188821 -0.245018
C41   C     C_R   0.473847 0.443684 0.899981 0.036994
C42   C     C_R   0.508803 0.554826 0.099870 0.041092
H1    H     H_    0.596224 0.124860 0.613929 0.142284
H2    H     H_    0.341444 0.856530 0.431309 0.135858
H3    H     H_    0.421117 0.466428 0.215779 0.225929
H4    H     H_    0.568989 0.532676 0.786922 0.224777
H5    H     H_    0.343185 0.210473 0.902461 0.191178
H6    H     H_    0.645587 0.787270 0.093911 0.194122
H7    H     H_    0.550748 0.230115 0.535682 0.140432
H8    H     H_    0.446833 0.769278 0.466302 0.130447
H9    H     H_    0.312825 0.301645 0.354184 0.147526
H10   H     H_    0.690064 0.698929 0.643639 0.138204
H11   H     H_    0.736105 0.849980 0.691535 0.153964
H12   H     H_    0.247742 0.144575 0.320256 0.155430
N1    N     N_R   0.566020 0.731700 0.552730 -0.109180
N2    N     N_R   0.433980 0.268300 0.447270 -0.120571
O1    O     O_R   0.466720 0.383110 0.605620 -0.563940
O2    O     O_R   0.533280 0.616890 0.394380 -0.571593
O3    O     O_R   0.509090 0.531900 0.639510 -0.627275
O4    O     O_R   0.490910 0.468100 0.360490 -0.626058
O5    O     O_R   0.644370 0.425610 0.483050 -0.622936
O6    O     O_R   0.355630 0.574390 0.516950 -0.625807
O7    O     O_R   0.686740 0.574390 0.516930 -0.608825
O8    O     O_R   0.313260 0.425610 0.483070 -0.619608
Zn1   Zn    Zn3+2 0.471710 0.400660 0.477370 0.939541
Zn2   Zn    Zn3+2 0.528290 0.599340 0.522630 0.946523
O9    O     O_3   0.372397 0.227184 0.060411 -0.591616
C43   C     C_3   0.463780 0.179372 0.065780 0.122843
H13   H     H_    0.509162 0.186430 0.128131 0.177462
H14   H     H_    0.532182 0.204963 0.010677 0.116516
C44   C     C_3   0.407661 0.075873 0.065268 -0.864668
H15   H     H_    0.366728 0.065267 0.001829 0.249046
H16   H     H_    0.477511 0.036767 0.075556 0.210055
H17   H     H_    0.337273 0.048027 0.118163 0.260980
O10   O     O_3   0.599990 0.771662 0.938931 -0.593857
C45   C     C_3   0.503724 0.814627 0.933605 0.126351
H18   H     H_    0.427662 0.779052 0.981602 0.104403
H19   H     H_    0.469364 0.815897 0.866921 0.181257
C46   C     C_3   0.548779 0.915190 0.949633 -0.875638
H20   H     H_    0.627072 0.952741 0.905294 0.266518
H21   H     H_    0.476484 0.951665 0.937673 0.218037
H22   H     H_    0.575675 0.916688 0.017989 0.238611
O11   O     O_3   0.636717 0.753116 0.264452 -0.589932
C47   C     C_3   0.566715 0.817817 0.266060 0.106377
H23   H     H_    0.482283 0.783878 0.305728 0.133849
H24   H     H_    0.543501 0.846223 0.199735 0.114009
C48   C     C_3   0.637161 0.900158 0.306960 -0.811703
H25   H     H_    0.718032 0.938401 0.265142 0.247245
H26   H     H_    0.580513 0.948761 0.313532 0.210305
H27   H     H_    0.665957 0.875260 0.372268 0.267451
O12   O     O_3   0.362844 0.246572 0.731919 -0.600315
C49   C     C_3   0.238860 0.235326 0.720924 0.106955
H28   H     H_    0.218021 0.303994 0.700323 0.128644
H29   H     H_    0.186791 0.199569 0.782424 0.131909
C50   C     C_3   0.199265 0.175431 0.650177 -0.788455
H30   H     H_    0.101462 0.164919 0.641659 0.196176
H31   H     H_    0.247890 0.210633 0.587509 0.268851
H32   H     H_    0.218471 0.106193 0.668371 0.250469
O13   O     O_3   0.486933 0.353684 0.163594 -0.608258
C51   C     C_3   0.612273 0.366825 0.170113 0.079347
H33   H     H_    0.659215 0.442370 0.164031 0.164792
H34   H     H_    0.650392 0.336504 0.118919 0.104095
C52   C     C_3   0.637834 0.318512 0.258625 -0.795203
H35   H     H_    0.589232 0.243238 0.268288 0.249002
H36   H     H_    0.735542 0.324883 0.262843 0.199517
H37   H     H_    0.608764 0.351681 0.311023 0.285262
O14   O     O_3   0.493740 0.643754 0.835329 -0.604996
C53   C     C_3   0.368641 0.629177 0.826448 0.078856
H38   H     H_    0.327904 0.659605 0.876229 0.105297
H39   H     H_    0.323075 0.553354 0.832681 0.157110
C54   C     C_3   0.345462 0.676275 0.736762 -0.793900
H40   H     H_    0.379322 0.644046 0.685578 0.285074
H41   H     H_    0.247648 0.667607 0.729961 0.198179
H42   H     H_    0.391368 0.752082 0.727599 0.250415
C55   C     C_3   0.730075 0.018787 0.700230 -0.421225
C56   C     C_3   0.752207 0.117137 0.725267 -0.358679
C57   C     C_3   0.847176 0.132134 0.793565 -0.886083
H43   H     H_    0.817713 0.080573 0.853744 0.265334
H44   H     H_    0.933666 0.124834 0.767971 0.258409
H45   H     H_    0.861368 0.203571 0.810216 0.248526
H46   H     H_    0.784261 0.170942 0.666830 0.224776
H47   H     H_    0.667673 0.126362 0.752626 0.233579
H48   H     H_    0.700353 0.967199 0.760345 0.218293
H49   H     H_    0.817378 0.011238 0.676180 0.203723
C58   C     C_3   0.229283 0.968513 0.329409 -0.416740
C59   C     C_3   0.197460 0.866883 0.311754 -0.376499
C60   C     C_3   0.106014 0.852672 0.241015 -0.843653
H50   H     H_    0.022092 0.868699 0.261191 0.273108
H51   H     H_    0.143079 0.898560 0.178928 0.256596
H52   H     H_    0.084324 0.778777 0.229979 0.249461
H53   H     H_    0.279489 0.849259 0.289713 0.211808
H54   H     H_    0.158121 0.818498 0.372114 0.230764
H55   H     H_    0.145543 0.983852 0.351170 0.205702
H56   H     H_    0.262199 0.014230 0.266479 0.208252

loop_
_geom_bond_atom_site_label_1
_geom_bond_atom_site_label_2
_ccdc_geom_bond_type
C58   H56   S    
C14   N2    A    
C21   C26   A    
C4    C36   A    
C59   C60   S    
C38   O11   S    
C50   H30   S    
C47   C48   S    
C48   H25   S    
C35   H5    S    
C25   H1    S    
C46   H22   S    
C9    O9    S    
C50   H32   S    
C26   H2    S    
C39   C41   A    
C56   C57   S    
C11   C19   A    
C33   C39   A    
C7    O13   S    
C34   C40   A    
C23   C29   S    
C35   C37   A    
C47   H24   S    
C57   H44   S    
O3    Zn2   S    
C5    C6    A    
C2    O4    A    
C55   C56   S    
C53   H38   S    
C15   C17   A    
C15   H8    S    
C49   H28   S    
C47   H23   S    
O2    Zn2   S    
O11   C47   S    
C43   H13   S    
C22   C25   A    
O14   C53   S    
C45   C46   S    
C3    C35   A    
C54   H42   S    
C19   C27   A    
C11   H11   S    
C2    C34   S    
C23   O7    A    
O7    Zn2   S    
C24   O8    A    
C34   C38   A    
C21   C22   A    
C16   N2    A    
C51   H34   S    
C24   C30   S    
C40   H3    S    
C55   H48   S    
C56   H46   S    
O6    Zn2   S    
C1    C33   S    
O9    C43   S    
C45   H18   S    
C54   H41   S    
C57   H45   S    
O1    Zn1   S    
O12   C49   S    
C44   H16   S    
C37   O12   S    
C20   C28   A    
C49   C50   S    
C17   C21   A    
C15   N1    A    
O10   C45   S    
C60   H51   S    
C3    C9    A    
C1    O1    A    
C5    C8    A    
C13   H10   S    
C10   O10   S    
C31   C32   S    
C59   H54   S    
C12   C20   A    
C49   H29   S    
C52   H36   S    
C16   C18   A    
C16   H7    S    
C56   H47   S    
C39   H4    S    
C8    C10   A    
C1    O3    A    
C12   C14   A    
O4    Zn1   S    
C48   H26   S    
C58   C59   S    
C4    C10   A    
C60   H50   S    
C8    O14   S    
N1    Zn2   S    
C28   C58   S    
C46   H21   S    
C58   H55   S    
C7    C9    A    
C5    C41   A    
C3    C41   A    
C24   O6    A    
C55   H49   S    
C54   H40   S    
C18   C22   A    
C45   H19   S    
C44   H17   S    
C50   H31   S    
C6    C7    A    
C25   C27   A    
C26   C28   A    
C53   C54   S    
O8    Zn1   S    
C36   C38   A    
C60   H52   S    
C44   H15   S    
C29   C31   T    
O13   C51   S    
C30   C32   T    
C11   C13   A    
C4    C42   A    
C59   H53   S    
C43   C44   S    
C40   C42   A    
C51   H33   S    
C17   C19   A    
C53   H39   S    
C36   H6    S    
C52   H37   S    
C18   C20   A    
C51   C52   S    
C2    O2    A    
C33   C37   A    
C46   H20   S    
O5    Zn1   S    
C23   O5    A    
C14   H9    S    
C43   H14   S    
C6    C42   A    
C48   H27   S    
C52   H35   S    
C57   H43   S    
C12   H12   S    
N2    Zn1   S    
C13   N1    A    
C27   C55   S    
