data_mof_unit_16088.cif
_audit_creation_date              2012-10-26T19:13:24-0400
_audit_creation_method            fapswitch 2.2
_symmetry_space_group_name_H-M    P1
_symmetry_Int_Tables_number       1
_space_group_crystal_system       triclinic
_cell_length_a                    13.423005
_cell_length_b                    13.853925
_cell_length_c                    15.128531
_cell_angle_alpha                 90.064755
_cell_angle_beta                  90.11169
_cell_angle_gamma                 72.460816
_cell_volume                      2682.52755224

loop_
_atom_site_label
_atom_site_type_symbol
_atom_type_description
_atom_site_fract_x
_atom_site_fract_y
_atom_site_fract_z
_atom_type_partial_charge
C1    C     C_R   0.500420 0.500002 0.670059 0.547573
C2    C     C_R   0.814265 0.413373 0.479396 -0.032706
C3    C     C_R   0.459971 0.435293 0.905096 -0.131806
C4    C     C_R   0.699847 0.446269 0.491914 0.545543
C5    C     C_R   0.461136 0.433255 0.813270 -0.133452
C6    C     C_R   0.501163 0.500430 0.766372 0.014608
C7    C     C_R   0.541692 0.568418 0.812058 -0.126914
C8    C     C_R   0.542559 0.568918 0.903900 -0.100565
C9    C     C_R   0.500230 0.503436 0.950819 0.027052
C10   C     C_R   0.459567 0.594037 0.096927 -0.008559
C11   C     C_R   0.465367 0.589280 0.188903 -0.102675
C12   C     C_R   0.978881 0.454503 0.471115 0.016195
C13   C     C_R   0.507030 0.496781 0.233041 0.037466
C14   C     C_R   0.546966 0.405916 0.183666 -0.004736
C15   C     C_R   0.543346 0.411882 0.091447 -0.126350
C16   C     C_R   0.503114 0.498644 0.329835 0.564429
C17   C     C_R   0.499925 0.504057 0.047811 0.008362
C18   C     C_R   0.411867 0.919565 0.483034 -0.123024
C19   C     C_R   0.411173 0.818283 0.482958 0.046460
C20   C     C_R   0.590654 0.763466 0.518049 0.074572
C21   C     C_R   0.597146 0.863246 0.513272 0.040349
C22   C     C_R   0.505071 0.944180 0.496183 0.026554
C23   C     C_R   0.870372 0.480972 0.452410 -0.020114
C24   C     C_R   0.542692 0.094182 0.567754 -0.128475
C25   C     C_R   0.542206 0.195680 0.568394 0.039694
C26   C     C_R   0.457396 0.223322 0.429763 0.049516
C27   C     C_R   0.459056 0.120948 0.424050 0.040372
C28   C     C_R   0.299494 0.554108 0.498995 0.545918
C29   C     C_R   0.502943 0.054012 0.494883 0.022087
C30   C     C_R   0.026618 0.705403 0.431315 0.061051
C31   C     C_R   0.185564 0.585259 0.487106 -0.027943
C32   C     C_R   0.869415 0.313805 0.502902 -0.144882
C33   C     C_R   0.977901 0.281803 0.504525 -0.017571
C34   C     C_R   0.030136 0.530790 0.466838 0.012897
C35   C     C_R   0.032415 0.351878 0.491153 -0.112758
C36   C     C_R   0.407139 0.693175 0.054857 0.018327
C37   C     C_R   0.439983 0.778034 0.074627 -0.094077
C38   C     C_R   0.390540 0.871590 0.035375 -0.103863
C39   C     C_R   0.307795 0.881313 0.976448 -0.101442
C40   C     C_R   0.274008 0.797608 0.956993 -0.103822
C41   C     C_R   0.323029 0.703963 0.996264 -0.078508
C42   C     C_R   0.594078 0.303598 0.223637 0.038771
C43   C     C_R   0.674931 0.285729 0.286633 -0.051785
C44   C     C_R   0.721614 0.188416 0.319932 -0.104538
C45   C     C_R   0.975575 0.629259 0.435154 0.012075
C46   C     C_R   0.689952 0.107217 0.289265 -0.080894
C47   C     C_R   0.611027 0.123408 0.225771 -0.099742
C48   C     C_R   0.562618 0.220954 0.193715 -0.106700
C49   C     C_2   0.701893 0.877961 0.522580 0.545575
C50   C     C_2   0.417988 0.087395 0.342029 0.527065
C51   C     C_2   0.975685 0.808243 0.396210 0.560611
C52   C     C_R   0.033830 0.174734 0.522523 0.024244
C53   C     C_R   0.029054 0.133621 0.606603 -0.093581
C54   C     C_R   0.078489 0.030812 0.622291 -0.093482
C55   C     C_R   0.131281 0.968407 0.553856 -0.067267
C56   C     C_R   0.872856 0.648203 0.405019 -0.103652
C57   C     C_R   0.134642 0.008750 0.469625 -0.099603
C58   C     C_R   0.087292 0.111881 0.454145 -0.094267
C59   C     C_2   0.735512 0.585887 0.343799 0.599090
C60   C     C_R   0.823136 0.573336 0.407132 -0.012384
C61   C     C_R   0.133832 0.512174 0.495116 -0.130156
C62   C     C_R   0.130941 0.682581 0.458052 -0.136046
Cu1   Cu    Cu3+1 0.500000 0.403570 0.500010 0.938973
Cu2   Cu    Cu3+1 0.500000 0.596430 0.499990 0.987283
H1    H     H_    0.171054 0.739407 0.451514 0.125108
H2    H     H_    0.831849 0.719841 0.374730 0.190141
H3    H     H_    0.575017 0.046695 0.623996 0.110909
H4    H     H_    0.575727 0.223880 0.624084 0.128770
H5    H     H_    0.423834 0.274711 0.376385 0.173029
H6    H     H_    0.176860 0.440598 0.523746 0.127547
H7    H     H_    0.828134 0.260208 0.520184 0.140306
H8    H     H_    0.116469 0.323276 0.494612 0.113850
H9    H     H_    0.427092 0.384216 0.940585 0.107209
H10   H     H_    0.504387 0.771500 0.119808 0.146497
H11   H     H_    0.416462 0.936542 0.050592 0.118550
H12   H     H_    0.429233 0.380501 0.778976 0.122457
H13   H     H_    0.269678 0.953765 0.946044 0.108258
H14   H     H_    0.209599 0.805350 0.911652 0.111493
H15   H     H_    0.295268 0.640045 0.981232 0.118461
H16   H     H_    0.701516 0.346779 0.310748 0.142234
H17   H     H_    0.783003 0.175858 0.368999 0.119287
H18   H     H_    0.726758 0.031744 0.314433 0.185251
H19   H     H_    0.587037 0.060330 0.201482 0.156432
H20   H     H_    0.500942 0.231891 0.145031 0.113041
H21   H     H_    0.847224 0.826944 0.574112 0.362855
H22   H     H_    0.320087 0.125916 0.237719 0.335888
H23   H     H_    0.574046 0.620036 0.776790 0.131365
H24   H     H_    0.933952 0.958744 0.417759 0.350738
H25   H     H_    0.987116 0.181116 0.659734 0.109708
H26   H     H_    0.075130 0.999355 0.687273 0.107685
H27   H     H_    0.168610 0.888646 0.565834 0.113062
H28   H     H_    0.173900 0.960000 0.416256 0.118827
H29   H     H_    0.090296 0.142279 0.388604 0.127853
H30   H     H_    0.803447 0.452031 0.284170 0.284811
H31   H     H_    0.576169 0.620267 0.938359 0.128971
H32   H     H_    0.432754 0.658273 0.226511 0.145021
H33   H     H_    0.576369 0.343804 0.052733 0.113746
H34   H     H_    0.340028 0.979231 0.471340 0.114280
H35   H     H_    0.338866 0.801936 0.469566 0.111966
H36   H     H_    0.660505 0.703132 0.533637 0.170826
N1    N     N_R   0.500000 0.741310 0.499980 -0.227963
N2    N     N_R   0.500060 0.258650 0.499980 -0.245927
O1    O     O_R   0.499990 0.418570 0.628550 -0.512969
O2    O     O_R   0.778900 0.809898 0.573267 -0.727150
O3    O     O_2   0.453542 0.000331 0.315591 -0.517656
O4    O     O_R   0.340689 0.157031 0.292847 -0.734101
O5    O     O_2   0.940932 0.819367 0.320876 -0.522925
O6    O     O_R   0.970284 0.892577 0.448735 -0.698051
O7    O     O_2   0.665924 0.666313 0.339752 -0.457699
O8    O     O_R   0.736044 0.510045 0.282895 -0.699190
O9    O     O_R   0.499990 0.581440 0.628540 -0.502680
O10   O     O_R   0.650980 0.378820 0.499990 -0.506828
O11   O     O_R   0.650980 0.541690 0.499970 -0.501363
O12   O     O_R   0.500010 0.418560 0.371460 -0.520310
O13   O     O_R   0.500010 0.581430 0.371450 -0.452661
O14   O     O_R   0.349020 0.458310 0.500030 -0.502447
O15   O     O_R   0.349020 0.621180 0.500010 -0.519898
O16   O     O_2   0.722286 0.947273 0.484181 -0.510987

loop_
_geom_bond_atom_site_label_1
_geom_bond_atom_site_label_2
_ccdc_geom_bond_type
C11   H32   S    
C61   H6    S    
C37   H10   S    
C22   C29   S    
C27   C29   A    
C19   N1    A    
C31   C61   A    
C30   C45   A    
Cu2   N1    S    
C30   C51   S    
C49   O2    S    
C21   C49   S    
C7    C8    A    
C53   C54   A    
C33   C52   S    
C8    H31   S    
C12   C23   A    
C26   C27   A    
C39   H13   S    
C36   C37   A    
C57   H28   S    
C58   H29   S    
C54   H26   S    
C28   O15   A    
C38   C39   A    
H24   O6    S    
C25   N2    A    
C10   C17   A    
C59   O8    S    
C2    C32   A    
C18   C19   A    
C46   C47   A    
Cu1   O10   S    
C24   C29   A    
C55   H27   S    
C28   O14   A    
C24   H3    S    
C33   C35   A    
C46   H18   S    
Cu1   O12   S    
C7    H23   S    
C49   O16   D    
C45   C56   A    
C8    C9    A    
C50   O3    D    
C47   H19   S    
C1    O1    A    
C27   C50   S    
C14   C42   S    
C4    O10   A    
C59   C60   S    
Cu2   O13   S    
C21   C22   A    
C31   C62   A    
C36   C41   A    
H22   O4    S    
C25   H4    S    
C15   H33   S    
Cu1   N2    S    
C44   C46   A    
C32   H7    S    
C38   H11   S    
C23   C60   A    
C1    C6    S    
C4    O11   A    
C24   C25   A    
Cu1   O1    S    
C44   H17   S    
C39   C40   A    
C19   H35   S    
C51   O6    S    
Cu2   O9    S    
C20   N1    A    
C43   H16   S    
H30   O8    S    
C34   C61   A    
Cu2   O15   S    
C56   C60   A    
C2    C4    S    
C43   C44   A    
C37   C38   A    
C3    C9    A    
C47   C48   A    
C20   H36   S    
C34   C45   A    
C42   C48   A    
C12   C35   A    
H21   O2    S    
C52   C58   A    
Cu1   O14   S    
C9    C17   S    
C40   C41   A    
C35   H8    S    
C55   C57   A    
C53   H25   S    
C40   H14   S    
C42   C43   A    
C12   C34   A    
C16   O13   A    
C52   C53   A    
C15   C17   A    
C54   C55   A    
Cu2   O11   S    
C62   H1    S    
C18   C22   A    
C28   C31   S    
C3    C5    A    
C16   O12   A    
C41   H15   S    
C6    C7    A    
C32   C33   A    
C5    H12   S    
C30   C62   A    
C1    O9    A    
C11   C13   A    
C57   C58   A    
C5    C6    A    
C56   H2    S    
C59   O7    D    
C3    H9    S    
C10   C11   A    
Cu1   Cu2   S    
C48   H20   S    
C20   C21   A    
C51   O5    D    
C13   C16   S    
C2    C23   A    
C50   O4    S    
C26   H5    S    
C14   C15   A    
C10   C36   S    
C18   H34   S    
C13   C14   A    
C26   N2    A    
