data_mof_unit_16853.cif
_audit_creation_date              2012-12-11T17:45:24-0500
_audit_creation_method            fapswitch 2.2
_symmetry_space_group_name_H-M    P1
_symmetry_Int_Tables_number       1
_space_group_crystal_system       triclinic
_cell_length_a                    15.106281
_cell_length_b                    15.054761
_cell_length_c                    15.157221
_cell_angle_alpha                 109.620407
_cell_angle_beta                  109.186457
_cell_angle_gamma                 108.871978
_cell_volume                      2677.26841062

loop_
_atom_site_label
_atom_site_type_symbol
_atom_type_description
_atom_site_fract_x
_atom_site_fract_y
_atom_site_fract_z
_atom_type_partial_charge
C1    C     C_R   0.972132 0.246859 0.060569 -0.080911
C2    C     C_R   0.688276 0.223286 0.776110 -0.064904
C3    C     C_R   0.776086 0.591390 0.027937 -0.142371
C4    C     C_R   0.309238 0.780417 0.222953 -0.163933
C5    C     C_R   0.955727 0.414214 0.686724 -0.140047
C6    C     C_R   0.675188 0.500142 0.957164 0.008956
C7    C     C_R   0.970514 0.507333 0.680182 0.032671
C8    C     C_R   0.680042 0.190912 0.675005 0.062304
C9    C     C_R   0.059529 0.865900 0.067563 0.061971
C10   C     C_R   0.596024 0.304187 0.121076 -0.120691
C11   C     C_R   0.692250 0.382045 0.216803 -0.134572
C12   C     C_R   0.318329 0.810705 0.323922 0.049274
C13   C     C_R   0.741058 0.353139 0.290887 0.118192
C14   C     C_R   0.689628 0.245586 0.267931 -0.161651
C15   C     C_R   0.593442 0.168295 0.172452 -0.110069
C16   C     C_R   0.210271 0.410520 0.906047 -0.241674
C17   C     C_R   0.546884 0.197431 0.098816 -0.101416
C18   C     C_R   0.857360 0.438047 0.489229 -0.240142
C19   C     C_R   0.952682 0.517011 0.585641 0.080662
C20   C     C_R   0.033850 0.599714 0.588909 0.028311
C21   C     C_R   0.022211 0.594945 0.493945 -0.249895
C22   C     C_R   0.931782 0.511043 0.396179 0.063379
C23   C     C_R   0.301565 0.500357 0.934403 -0.105184
C24   C     C_R   0.844422 0.434915 0.392490 0.021922
C25   C     C_R   0.149190 0.787595 0.745979 -0.219924
C26   C     C_R   0.247001 0.869401 0.837551 -0.153316
C27   C     C_R   0.333925 0.850787 0.869785 -0.060211
C28   C     C_R   0.996097 0.590539 0.297258 -0.157552
C29   C     C_R   0.322941 0.750016 0.811004 -0.024401
C30   C     C_R   0.224864 0.667455 0.719943 -0.140353
C31   C     C_R   0.137357 0.685854 0.686878 0.108820
C32   C     C_R   0.108976 0.894405 0.413323 -0.115260
C33   C     C_R   0.208250 0.948295 0.421194 -0.093620
C34   C     C_R   0.941675 0.502184 0.302853 0.061631
C35   C     C_R   0.300480 0.961524 0.499939 0.138027
C36   C     C_R   0.294970 0.934123 0.578386 -0.102401
C37   C     C_R   0.196658 0.886217 0.573367 -0.108648
C38   C     C_R   0.103365 0.863082 0.489303 0.012649
C39   C     C_R   0.488533 0.081913 0.569742 -0.245195
C40   C     C_R   0.301841 0.591289 0.999571 0.511708
C41   C     C_R   0.587647 0.100768 0.576780 0.076088
C42   C     C_R   0.596122 0.023793 0.499661 0.148261
C43   C     C_R   0.506680 0.926867 0.422976 -0.192144
C44   C     C_R   0.408413 0.906677 0.417806 0.063378
C45   C     C_R   0.686905 0.409535 0.941024 -0.148531
C46   C     C_R   0.398306 0.984807 0.491334 0.006671
C47   C     C_R   0.709631 0.076880 0.422157 -0.249546
C48   C     C_R   0.808733 0.113192 0.425722 -0.157909
C49   C     C_R   0.894276 0.118286 0.503013 -0.141989
C50   C     C_R   0.878781 0.078844 0.571057 -0.163314
C51   C     C_R   0.777847 0.034340 0.563323 0.444519
C52   C     C_R   0.910944 0.410486 0.211897 -0.134722
C53   C     C_R   0.694499 0.040679 0.492978 -0.089256
C54   C     C_3   0.475113 0.383853 0.861204 -0.411463
C55   C     C_3   0.370745 0.386367 0.846014 -0.286783
C56   C     C_R   0.027510 0.593760 0.782004 -0.086352
C57   C     C_3   0.581659 0.540965 0.053158 -0.393932
C58   C     C_3   0.554849 0.574931 0.897580 -0.437580
C59   C     C_3   0.573585 0.499576 0.941052 0.379836
C60   C     C_3   0.396876 0.498119 0.928342 0.343664
C61   C     C_3   0.472591 0.520202 0.041139 -0.421842
C62   C     C_3   0.450837 0.576039 0.891558 -0.367676
C63   C     C_R   0.063914 0.027947 0.759282 -0.265953
C64   C     C_R   0.219425 0.756117 0.312438 -0.127361
C65   C     C_R   0.060959 0.032522 0.851374 -0.147981
C66   C     C_R   0.154479 0.100713 0.951842 0.083257
C67   C     C_R   0.780188 0.239752 0.687594 -0.105178
C68   C     C_R   0.253357 0.151799 0.957394 -0.270886
C69   C     C_R   0.256090 0.144998 0.864151 -0.332354
C70   C     C_R   0.159978 0.091269 0.766821 0.629502
C71   C     C_R   0.161967 0.034688 0.075559 -0.227725
C72   C     C_R   0.092379 0.981194 0.104913 0.050852
C73   C     C_R   0.042515 0.033981 0.149855 0.019718
C74   C     C_R   0.059489 0.132636 0.155750 -0.213676
C75   C     C_R   0.092465 0.159664 0.087864 0.052248
C76   C     C_R   0.068327 0.253612 0.974886 -0.040951
C77   C     C_R   0.147065 0.109851 0.048337 0.049854
C78   C     C_R   0.000570 0.801361 0.095706 -0.139808
C79   C     C_R   0.845953 0.925324 0.074162 -0.125294
C80   C     C_R   0.756833 0.879557 0.085560 -0.140851
C81   C     C_R   0.771275 0.885053 0.183402 -0.095785
C82   C     C_R   0.874414 0.940500 0.271185 -0.129682
C83   C     C_R   0.963881 0.991200 0.261825 -0.209448
C84   C     C_R   0.950144 0.980179 0.161980 0.116405
C85   C     C_R   0.049006 0.220472 0.045109 0.036211
C86   C     C_3   0.458162 0.754964 0.106084 0.237487
C87   C     C_3   0.506315 0.871232 0.128979 -0.972315
C88   C     C_R   0.090868 0.803899 0.005604 -0.134497
H1    H     H_    0.937098 0.233437 0.109528 0.088873
H2    H     H_    0.559085 0.326149 0.063891 0.099358
H3    H     H_    0.728578 0.464636 0.233015 0.108597
H4    H     H_    0.363929 0.824933 0.204156 0.140428
H5    H     H_    0.724357 0.221332 0.323540 0.104820
H6    H     H_    0.555093 0.085759 0.155524 0.115612
H7    H     H_    0.794059 0.378671 0.490037 0.131912
H8    H     H_    0.089574 0.653083 0.496617 0.132199
H9    H     H_    0.082473 0.803126 0.721225 0.138177
H10   H     H_    0.255588 0.947344 0.883114 0.135539
H11   H     H_    0.409874 0.914699 0.939986 0.097866
H12   H     H_    0.048397 0.676570 0.806623 0.118472
H13   H     H_    0.390644 0.736172 0.835735 0.102630
H14   H     H_    0.217155 0.589660 0.675009 0.114370
H15   H     H_    0.026512 0.821950 0.483669 0.119837
H16   H     H_    0.181629 0.327109 0.853515 0.188053
H17   H     H_    0.036085 0.875157 0.347801 0.099996
H18   H     H_    0.211545 0.968539 0.359760 0.105377
H19   H     H_    0.365785 0.944741 0.639985 0.121202
H20   H     H_    0.192727 0.864392 0.632789 0.125328
H21   H     H_    0.482123 0.140833 0.628931 0.142638
H22   H     H_    0.513746 0.866809 0.365664 0.118010
H23   H     H_    0.801874 0.231536 0.626712 0.106339
H24   H     H_    0.645880 0.081497 0.367702 0.142726
H25   H     H_    0.820983 0.141362 0.371668 0.138456
H26   H     H_    0.972542 0.153246 0.509842 0.190644
H27   H     H_    0.946204 0.086282 0.632464 0.207712
H28   H     H_    0.016467 0.671845 0.346152 0.096647
H29   H     H_    0.480491 0.328725 0.893805 0.148345
H30   H     H_    0.472347 0.350448 0.782150 0.180590
H31   H     H_    0.323789 0.369025 0.762784 0.223453
H32   H     H_    0.324287 0.323141 0.857971 0.181345
H33   H     H_    0.611985 0.500985 0.095774 0.153116
H34   H     H_    0.980414 0.825819 0.158101 0.111010
H35   H     H_    0.437660 0.447817 0.049355 0.167295
H36   H     H_    0.623860 0.657907 0.950681 0.158648
H37   H     H_    0.547809 0.546403 0.816434 0.172899
H38   H     H_    0.394053 0.548324 0.807006 0.151258
H39   H     H_    0.468885 0.659744 0.934637 0.180975
H40   H     H_    0.638900 0.629289 0.104757 0.157768
H41   H     H_    0.481698 0.586527 0.110005 0.128447
H42   H     H_    0.990636 0.977923 0.683056 0.214878
H43   H     H_    0.985143 0.986543 0.845270 0.199667
H44   H     H_    0.327163 0.198687 0.033601 0.155967
H45   H     H_    0.149025 0.831575 0.981141 0.107693
H46   H     H_    0.332529 0.184768 0.869032 0.156215
H47   H     H_    0.207213 0.001104 0.047949 0.122296
H48   H     H_    0.024236 0.173521 0.193660 0.126823
H49   H     H_    0.858461 0.327690 0.186505 0.110376
H50   H     H_    0.833985 0.919678 0.997562 0.135287
H51   H     H_    0.676708 0.839912 0.018579 0.113566
H52   H     H_    0.702856 0.847089 0.191846 0.108051
H53   H     H_    0.883982 0.943909 0.346150 0.143887
H54   H     H_    0.043596 0.036484 0.330833 0.128016
H55   H     H_    0.197082 0.757916 0.373201 0.118791
H56   H     H_    0.626767 0.189068 0.794625 0.093185
H57   H     H_    0.126778 0.253140 0.949703 0.107929
H58   H     H_    0.625299 0.326852 0.899642 0.092977
H59   H     H_    0.733760 0.824473 0.537855 0.333746
H60   H     H_    0.515288 0.728109 0.095538 0.097612
H61   H     H_    0.456827 0.750569 0.177236 0.067180
H62   H     H_    0.450357 0.903406 0.132652 0.256412
H63   H     H_    0.582532 0.922231 0.206210 0.228984
H64   H     H_    0.523815 0.875271 0.064362 0.248183
H65   H     H_    0.049090 0.039295 0.492501 0.361868
H66   H     H_    0.794828 0.675005 0.062712 0.113658
H67   H     H_    0.926942 0.336019 0.621258 0.121265
H68   H     H_    0.472560 0.137387 0.024705 0.103420
N1    N     N_R   0.947080 0.293830 0.002870 -0.039650
N2    N     N_R   0.153670 0.443180 0.946090 -0.074726
N3    N     N_R   0.002360 0.556820 0.208890 -0.041474
N4    N     N_R   0.210070 0.556820 0.002870 -0.085393
N5    N     N_R   0.945960 0.443180 0.152110 -0.046786
N6    N     N_R   0.151710 0.706170 0.208890 -0.046081
N7    N     N_R   0.004320 0.293830 0.946090 -0.029270
N8    N     N_R   0.789930 0.443180 0.997130 -0.038288
N9    N     N_R   0.054040 0.556820 0.847890 -0.041044
N10   N     N_R   0.848290 0.293830 0.791110 -0.031079
N11   N     N_R   0.995680 0.706170 0.053910 -0.043470
N12   N     N_R   0.052920 0.706170 0.997130 -0.043545
N13   N     N_R   0.791050 0.293830 0.847890 -0.042993
N14   N     N_R   0.846330 0.556820 0.053910 -0.039710
N15   N     N_R   0.997640 0.443180 0.791110 -0.041716
N16   N     N_R   0.208950 0.706170 0.152110 -0.038346
Ni1   Ni    Ni4+2 0.869690 0.369690 0.000000 0.232352
Ni2   Ni    Ni4+2 0.130310 0.630310 0.000000 0.251915
Ni3   Ni    Ni4+2 0.000970 0.369690 0.869780 0.258164
Ni4   Ni    Ni4+2 0.999030 0.630310 0.130220 0.195739
O1    O     O_2   0.845506 0.063847 0.762425 -0.295552
O2    O     O_2   0.653466 0.942716 0.637978 -0.289357
O3    O     O_3   0.785238 0.873696 0.615614 -0.540605
O4    O     O_3   0.355081 0.693111 0.013374 -0.638803
O5    O     O_2   0.148622 0.216620 0.679161 -0.396713
O6    O     O_2   0.255026 0.128284 0.651447 -0.319760
O7    O     O_3   0.045273 0.016012 0.545421 -0.601331
S1    S     S_3+6 0.763037 0.979611 0.647848 -0.066242
S2    S     S_3+6 0.156020 0.115665 0.660273 -0.138445

loop_
_geom_bond_atom_site_label_1
_geom_bond_atom_site_label_2
_ccdc_geom_bond_type
C25   C31   A    
C81   H52   S    
C66   C68   A    
C63   C65   A    
C58   C62   S    
C69   H46   S    
C6    C45   A    
C27   C29   A    
C2    H56   S    
C41   C42   A    
N8    N14   A    
C35   C36   A    
C9    C72   S    
C3    C6    A    
N7    Ni3   S    
C57   H40   S    
C81   C82   A    
C39   C41   A    
N14   Ni4   S    
C8    C67   A    
N12   Ni2   S    
C27   H11   S    
C78   N11   A    
C37   C38   A    
C83   C84   A    
C18   C24   A    
C36   C37   A    
C45   N8    A    
C88   H45   S    
C18   C19   A    
O7    S2    S    
C42   C53   S    
C71   H47   S    
C62   H39   S    
C12   C64   A    
C57   C59   S    
N6    Ni4   S    
C10   C17   A    
C47   H24   S    
C60   C62   S    
C50   H27   S    
C73   C74   A    
C63   H42   S    
C55   H32   S    
C68   H44   S    
C34   C52   A    
C28   H28   S    
C70   S2    S    
C40   O4    S    
C16   H16   S    
H65   O7    S    
C44   C46   A    
C68   C69   A    
C88   N12   A    
C87   H62   S    
C74   H48   S    
C56   N9    A    
N3    N5    A    
C43   H22   S    
C32   C38   A    
C4    C12   A    
C29   C30   A    
N1    N7    A    
C14   H5    S    
C61   H41   S    
C52   N5    A    
C47   C53   A    
C32   H17   S    
C49   H26   S    
C28   C34   A    
C87   H63   S    
C21   C22   A    
C36   H19   S    
N2    N4    A    
C18   H7    S    
C7    C56   A    
C15   H6    S    
C82   H53   S    
C65   H43   S    
N16   Ni2   S    
C50   C51   A    
C54   C59   S    
C1    C85   A    
C23   C60   S    
C22   C34   S    
C74   C75   A    
C16   N2    A    
C45   H58   S    
C73   C84   S    
C8    C41   S    
C37   H20   S    
C64   N6    A    
C51   S1    S    
C86   H61   S    
N11   N12   A    
C62   H38   S    
O5    S2    D    
C86   C87   S    
C72   C73   A    
C55   H31   S    
N9    Ni2   S    
C5    H67   S    
N15   Ni3   S    
C82   C83   A    
C28   N3    A    
C13   C24   S    
C60   C61   S    
C51   C53   A    
O6    S2    D    
C43   C44   A    
N10   Ni3   S    
C38   H15   S    
C11   H3    S    
N5    Ni1   S    
C47   C48   A    
C63   C70   A    
C30   C31   A    
C30   H14   S    
C86   O4    S    
C52   H49   S    
C26   C27   A    
C29   H13   S    
N8    Ni1   S    
C75   C77   A    
N9    N15   A    
C26   H10   S    
C39   C46   A    
C67   N10   A    
C25   H9    S    
C48   C49   A    
C21   H8    S    
C76   H57   S    
C49   C50   A    
C16   C23   A    
C7    C19   S    
C87   H64   S    
C54   H30   S    
C17   H68   S    
C13   C14   A    
C22   C24   A    
C58   C59   S    
C42   C43   A    
C56   H12   S    
O1    S1    D    
C71   C77   A    
C5    N15   A    
C5    C7    A    
O3    S1    S    
C67   H23   S    
C15   C17   A    
C66   C77   S    
C54   C55   S    
C1    H1    S    
C4    N16   A    
N4    Ni2   S    
C6    C59   S    
C40   N4    A    
C2    C8    A    
C33   H18   S    
N10   N13   A    
C80   C81   A    
C86   H60   S    
C83   H54   S    
C3    N14   A    
C57   C61   S    
C64   H55   S    
C80   H51   S    
C58   H36   S    
C61   H35   S    
N3    Ni4   S    
C32   C33   A    
C19   C20   A    
C1    N1    A    
C25   C26   A    
C71   C72   A    
C9    C88   A    
C75   C85   S    
C11   C13   A    
C79   C84   A    
C33   C35   A    
C9    C78   A    
C3    H66   S    
C69   C70   A    
C78   H34   S    
C10   C11   A    
C2    N13   A    
C57   H33   S    
C79   C80   A    
H59   O3    S    
N2    Ni3   S    
C39   H21   S    
C79   H50   S    
N6    N16   A    
C20   C21   A    
C10   H2    S    
C58   H37   S    
C12   C44   S    
C65   C66   A    
C54   H29   S    
N13   Ni1   S    
C14   C15   A    
C48   H25   S    
C76   N7    A    
C55   C60   S    
C35   C46   S    
C76   C85   A    
O2    S1    D    
C23   C40   A    
N1    Ni1   S    
N11   Ni4   S    
C4    H4    S    
C20   C31   S    
