data_mof_unit_29463.cif
_audit_creation_date              2012-12-10T17:47:45-0500
_audit_creation_method            fapswitch 2.2
_symmetry_space_group_name_H-M    P1
_symmetry_Int_Tables_number       1
_space_group_crystal_system       triclinic
_cell_length_a                    10.749412
_cell_length_b                    10.654399
_cell_length_c                    9.954995
_cell_angle_alpha                 90.966942
_cell_angle_beta                  89.452097
_cell_angle_gamma                 94.402739
_cell_volume                      1136.56549738

loop_
_atom_site_label
_atom_site_type_symbol
_atom_type_description
_atom_site_fract_x
_atom_site_fract_y
_atom_site_fract_z
_atom_type_partial_charge
C1    C     C_R   0.510263 0.260744 0.499407 0.939690
C2    C     C_R   0.530429 0.063033 0.622054 0.069770
C3    C     C_R   0.516312 0.126440 0.499952 -0.014316
C4    C     C_R   0.257584 0.497911 0.499795 0.940611
C5    C     C_R   0.482237 0.059668 0.382469 -0.204361
C6    C     C_R   0.460069 0.931529 0.385839 -0.216201
C7    C     C_R   0.464223 0.869982 0.508128 -0.059077
C8    C     C_R   0.367479 0.309855 0.146396 -0.056348
C9    C     C_R   0.323030 0.198174 0.087181 -0.260902
C10   C     C_R   0.327227 0.186427 0.950202 -0.171014
C11   C     C_R   0.367321 0.289685 0.871727 0.418150
C12   C     C_3   0.878013 0.499684 0.498873 -0.071076
C13   C     C_R   0.434833 0.400171 0.929355 0.077942
C14   C     C_R   0.435171 0.403917 0.073763 0.128039
C15   C     C_R   0.562586 0.592522 0.072028 -0.057461
C16   C     C_R   0.485235 0.738009 0.502046 0.904902
C17   C     C_R   0.562200 0.592791 0.929338 -0.039269
C18   C     C_R   0.742026 0.502760 0.499688 0.915927
C19   C     C_3   0.068184 0.496520 0.644076 -0.412069
C20   C     C_3   0.929508 0.518522 0.646290 -0.098752
C21   C     C_3   0.082125 0.616355 0.424548 -0.052354
C22   C     C_3   0.060518 0.374917 0.416288 0.309642
C23   C     C_3   0.938011 0.610005 0.413278 -0.465878
C24   C     C_3   0.120361 0.495315 0.497010 -0.079769
C25   C     C_3   0.914247 0.368025 0.438804 0.588333
C26   C     C_R   0.591705 0.118718 0.735707 -0.122073
C27   C     C_R   0.583390 0.059399 0.859379 -0.253077
C28   C     C_R   0.505742 0.948824 0.874409 0.067913
C29   C     C_R   0.449178 0.890643 0.760217 0.403542
C30   C     C_R   0.478828 0.939271 0.630563 -0.027542
Cl1   Cl    Cl    0.832115 0.319491 0.285883 -0.488839
Cl2   Cl    Cl    0.322708 0.776451 0.784434 -0.628987
Cl3   Cl    Cl    0.279157 0.277295 0.727517 -0.684475
Cl4   Cl    Cl    0.098186 0.388884 0.238403 -0.579966
Cl5   Cl    Cl    0.858871 0.244826 0.552204 -0.670690
H1    H     H_    0.120672 0.569619 0.706843 0.264063
H2    H     H_    0.342882 0.322495 0.248862 0.223765
H3    H     H_    0.276499 0.124253 0.146866 0.185463
H4    H     H_    0.281336 0.101771 0.905393 0.209518
H5    H     H_    0.613252 0.668720 0.876766 0.138771
H6    H     H_    0.881665 0.448453 0.715093 0.215033
H7    H     H_    0.901859 0.701044 0.445315 0.195782
H8    H     H_    0.540926 0.943243 0.075840 0.180646
H9    H     H_    0.391214 0.912275 0.032723 0.212527
H10   H     H_    0.939187 0.647164 0.803368 0.214318
H11   H     H_    0.818741 0.664112 0.703401 0.206696
H12   H     H_    0.121062 0.618887 0.320730 0.221953
H13   H     H_    0.086841 0.751520 0.579256 0.268916
H14   H     H_    0.122354 0.808322 0.426893 0.201179
H15   H     H_    0.206876 0.259508 0.435829 0.193218
H16   H     H_    0.098308 0.241008 0.558048 0.255894
H17   H     H_    0.911398 0.594741 0.306153 0.224202
H18   H     H_    0.473904 0.105918 0.287525 0.169313
H19   H     H_    0.647069 0.207563 0.730103 0.210241
H20   H     H_    0.630008 0.104735 0.945287 0.187584
H21   H     H_    0.442704 0.880259 0.292242 0.172036
H22   H     H_    0.614097 0.668349 0.125985 0.144633
H23   H     H_    0.079840 0.406155 0.693460 0.230359
N1    N     N_R   0.498810 0.498800 0.142780 -0.115897
N2    N     N_R   0.498760 0.498720 0.857170 -0.100720
N3    N     N_3   0.482658 0.896023 0.004838 -0.438316
N4    N     N_3   0.912380 0.644998 0.702529 -0.444607
N5    N     N_3   0.134399 0.733036 0.490400 -0.432748
N6    N     N_3   0.111164 0.256703 0.456022 -0.373386
O1    O     O_R   0.500000 0.316780 0.614690 -0.599057
O2    O     O_R   0.499990 0.316750 0.385360 -0.647579
O3    O     O_R   0.314800 0.499990 0.614670 -0.535196
O4    O     O_R   0.314790 0.499970 0.385330 -0.629819
O5    O     O_R   0.500010 0.683250 0.614640 -0.596646
O6    O     O_R   0.500000 0.683220 0.385310 -0.636980
O7    O     O_R   0.685210 0.500030 0.614670 -0.649479
O8    O     O_R   0.685200 0.500010 0.385330 -0.573429
Zn1   Zn    Zn3+2 0.500010 0.500020 0.653130 1.010913
Zn2   Zn    Zn3+2 0.499990 0.499980 0.346870 0.986872

loop_
_geom_bond_atom_site_label_1
_geom_bond_atom_site_label_2
_ccdc_geom_bond_type
O6    Zn2   S    
C4    O3    A    
C1    O1    A    
C25   Cl1   S    
C6    C7    A    
H14   N5    S    
C20   H6    S    
H9    N3    S    
C11   C13   A    
C9    C10   A    
N2    Zn1   S    
C19   C20   S    
N1    Zn2   S    
C17   H5    S    
C12   C25   S    
C2    C30   A    
C27   C28   A    
C28   N3    S    
C12   C20   S    
C2    C3    A    
C26   C27   A    
O1    Zn1   S    
C2    C26   A    
C13   N2    A    
C13   C14   A    
C22   Cl4   S    
O5    Zn1   S    
C14   N1    A    
C15   H22   S    
C12   C23   S    
C23   H17   S    
C29   C30   A    
C23   H7    S    
C15   N1    A    
C25   Cl5   S    
O3    Zn1   S    
H15   N6    S    
C26   H19   S    
C5    H18   S    
C28   C29   A    
H11   N4    S    
C19   C24   S    
C29   Cl2   S    
C22   C24   S    
C19   H1    S    
C21   C23   S    
C19   H23   S    
C20   N4    S    
C5    C6    A    
C4    C24   S    
C27   H20   S    
C21   N5    S    
C10   C11   A    
C16   O5    A    
C17   N2    A    
O4    Zn2   S    
O7    Zn1   S    
O2    Zn2   S    
C3    C5    A    
H10   N4    S    
C11   Cl3   S    
C16   O6    A    
H8    N3    S    
C8    C9    A    
O8    Zn2   S    
C8    H2    S    
C21   C24   S    
C12   C18   S    
C18   O7    A    
C4    O4    A    
C7    C16   S    
H13   N5    S    
C9    H3    S    
C8    C14   A    
C21   H12   S    
C15   C17   A    
C22   N6    S    
C22   C25   S    
H16   N6    S    
C1    O2    A    
C6    H21   S    
C10   H4    S    
C1    C3    S    
C18   O8    A    
C7    C30   A    
