data_mof_unit_55545.cif
_audit_creation_date              2012-12-10T17:27:48-0500
_audit_creation_method            fapswitch 2.2
_symmetry_space_group_name_H-M    P1
_symmetry_Int_Tables_number       1
_space_group_crystal_system       triclinic
_cell_length_a                    10.622947
_cell_length_b                    11.998226
_cell_length_c                    12.821323
_cell_angle_alpha                 94.197821
_cell_angle_beta                  90.212993
_cell_angle_gamma                 86.64706
_cell_volume                      1626.98706133

loop_
_atom_site_label
_atom_site_type_symbol
_atom_type_description
_atom_site_fract_x
_atom_site_fract_y
_atom_site_fract_z
_atom_type_partial_charge
C1    C     C_R   0.494650 0.523021 0.700512 0.861722
C2    C     C_R   0.398404 0.622506 0.861252 0.072059
C3    C     C_R   0.544645 0.458303 0.868931 -0.314466
C4    C     C_R   0.739410 0.500942 0.502807 0.873091
C5    C     C_R   0.525695 0.458112 0.974611 0.147028
C6    C     C_R   0.444514 0.542256 0.026337 0.113008
C7    C     C_R   0.432011 0.541847 0.133929 -0.262989
C8    C     C_R   0.574769 0.376097 0.136447 -0.207330
C9    C     C_R   0.587945 0.374290 0.029179 -0.193062
C10   C     C_R   0.384909 0.952379 0.400165 -0.328039
C11   C     C_R   0.395796 0.836516 0.409983 0.036305
C12   C     C_R   0.936583 0.467125 0.598636 0.100660
C13   C     C_R   0.549177 0.859511 0.543595 -0.053811
C14   C     C_R   0.541585 0.976568 0.536494 0.092460
C15   C     C_R   0.458212 0.023435 0.463703 0.091389
C16   C     C_R   0.500609 0.477130 0.299650 0.876904
C17   C     C_R   0.450608 0.140483 0.456594 -0.044801
C18   C     C_R   0.604251 0.163481 0.589994 0.035912
C19   C     C_R   0.614985 0.047628 0.599951 -0.328131
C20   C     C_R   0.260530 0.499922 0.502503 0.857162
C21   C     C_R   0.873704 0.435492 0.688006 -0.191503
C22   C     C_R   0.941862 0.402703 0.774907 -0.143277
C23   C     C_R   0.871496 0.503217 0.509973 -0.097224
C24   C     C_R   0.072971 0.401680 0.774613 -0.120345
C25   C     C_R   0.136332 0.433192 0.687333 -0.186966
C26   C     C_R   0.068589 0.465800 0.598224 0.089652
C27   C     C_3   0.292663 0.715413 0.024617 -0.912963
C28   C     C_R   0.932666 0.541314 0.425002 -0.208500
C29   C     C_R   0.061367 0.539860 0.424509 -0.210600
C30   C     C_R   0.128276 0.500442 0.509046 -0.092221
C31   C     C_R   0.499915 0.462000 0.188193 -0.049129
C32   C     C_R   0.481508 0.538400 0.812202 -0.137972
C33   C     C_R   0.380281 0.625371 0.969835 0.199599
H1    H     H_    0.880568 0.569730 0.358038 0.152082
H2    H     H_    0.772003 0.437465 0.692236 0.135579
H3    H     H_    0.892719 0.379014 0.842986 0.131294
H4    H     H_    0.125740 0.377238 0.842488 0.140097
H5    H     H_    0.237983 0.433178 0.691088 0.146041
H6    H     H_    0.109272 0.567699 0.357350 0.143072
H7    H     H_    0.372629 0.605189 0.177495 0.157743
H8    H     H_    0.627286 0.314154 0.179276 0.156082
H9    H     H_    0.277530 0.658862 0.743139 0.195367
H10   H     H_    0.390647 0.753083 0.768338 0.213418
H11   H     H_    0.248366 0.774667 0.971089 0.268598
H12   H     H_    0.649042 0.309325 0.989265 0.134044
H13   H     H_    0.215231 0.675988 0.063580 0.230215
H14   H     H_    0.346198 0.765669 0.083826 0.231555
H15   H     H_    0.607785 0.394045 0.829907 0.155948
H16   H     H_    0.386991 0.178144 0.401233 0.128904
H17   H     H_    0.660843 0.218285 0.638951 0.128991
H18   H     H_    0.319964 0.985950 0.343457 0.146363
H19   H     H_    0.679968 0.014056 0.656629 0.146857
H20   H     H_    0.339356 0.781720 0.360893 0.127470
H21   H     H_    0.612681 0.821848 0.599039 0.128381
N1    N     N_R   0.523130 0.207800 0.519340 -0.101754
N2    N     N_R   0.476870 0.792180 0.480660 -0.101701
N3    N     N_3   0.328111 0.701861 0.801812 -0.455189
O1    O     O_R   0.506170 0.421690 0.658830 -0.629214
O2    O     O_R   0.491330 0.609320 0.646410 -0.631414
O3    O     O_R   0.690660 0.406170 0.506210 -0.621631
O4    O     O_R   0.675810 0.593790 0.493790 -0.611813
O5    O     O_R   0.508670 0.390680 0.353590 -0.620164
O6    O     O_R   0.493830 0.578310 0.341170 -0.622587
O7    O     O_R   0.324190 0.406210 0.506210 -0.618342
O8    O     O_R   0.309340 0.593830 0.493790 -0.623320
Zn1   Zn    Zn3+2 0.509910 0.374720 0.508290 0.939628
Zn2   Zn    Zn3+2 0.490090 0.625280 0.491710 0.935779

loop_
_geom_bond_atom_site_label_1
_geom_bond_atom_site_label_2
_ccdc_geom_bond_type
C20   O7    A    
O5    Zn1   S    
C7    H7    S    
C24   C25   A    
C9    H12   S    
C6    C7    A    
C21   H2    S    
C16   O6    A    
C25   H5    S    
N2    Zn2   S    
C22   H3    S    
C17   N1    A    
C11   H20   S    
C6    C33   A    
C3    C5    A    
C13   N2    A    
C19   H19   S    
C29   H6    S    
C24   H4    S    
C2    N3    S    
O3    Zn1   S    
C3    C32   A    
C20   C30   S    
C13   C14   A    
C27   C33   S    
C16   C31   S    
C5    C9    A    
H9    N3    S    
C12   C23   A    
C4    O3    A    
C20   O8    A    
C29   C30   A    
C16   O5    A    
C18   N1    A    
C10   H18   S    
C14   C19   A    
C27   H13   S    
C27   H14   S    
C28   C29   A    
C26   C30   A    
C22   C24   A    
C10   C15   A    
C1    O2    A    
C12   C26   A    
C5    C6    A    
O6    Zn2   S    
C27   H11   S    
C7    C31   A    
C10   C11   A    
H10   N3    S    
C28   H1    S    
C12   C21   A    
C1    O1    A    
C3    H15   S    
N1    Zn1   S    
C8    H8    S    
C18   H17   S    
C2    C32   A    
C13   H21   S    
C17   H16   S    
C15   C17   A    
C4    C23   S    
O4    Zn2   S    
C14   C15   A    
C18   C19   A    
O2    Zn2   S    
C25   C26   A    
C21   C22   A    
C8    C31   A    
C4    O4    A    
O1    Zn1   S    
C1    C32   S    
C23   C28   A    
C11   N2    A    
C2    C33   A    
C8    C9    A    
O8    Zn2   S    
O7    Zn1   S    
