data_mof_unit_53737.cif
_audit_creation_date              2012-10-26T18:53:54-0400
_audit_creation_method            fapswitch 2.2
_symmetry_space_group_name_H-M    P1
_symmetry_Int_Tables_number       1
_space_group_crystal_system       triclinic
_cell_length_a                    14.684424
_cell_length_b                    14.510794
_cell_length_c                    17.345054
_cell_angle_alpha                 105.650405
_cell_angle_beta                  73.405234
_cell_angle_gamma                 114.984729
_cell_volume                      3162.86212504

loop_
_atom_site_label
_atom_site_type_symbol
_atom_type_description
_atom_site_fract_x
_atom_site_fract_y
_atom_site_fract_z
_atom_type_partial_charge
C1    C     C_R   0.118519 0.688994 0.516197 0.545102
C2    C     C_R   0.711785 0.173754 0.476197 -0.133253
C3    C     C_R   0.358404 0.925709 0.515106 0.006530
C4    C     C_R   0.641607 0.074273 0.484925 0.006524
C5    C     C_R   0.320070 0.005850 0.535716 0.028727
C6    C     C_R   0.679955 0.994139 0.464288 0.028726
C7    C     C_R   0.465750 0.947722 0.491545 0.024931
C8    C     C_R   0.534261 0.052251 0.508511 0.024934
C9    C     C_R   0.491988 0.129944 0.549309 -0.011675
C10   C     C_R   0.508024 0.870024 0.450762 -0.011674
C11   C     C_R   0.389361 0.107691 0.550215 -0.134051
C12   C     C_R   0.881481 0.311006 0.483801 0.545110
C13   C     C_R   0.610658 0.892292 0.449841 -0.134055
C14   C     C_R   0.284966 0.314602 0.370881 -0.034004
C15   C     C_R   0.715058 0.685427 0.629089 -0.033994
C16   C     C_R   0.991297 0.505526 0.652656 0.574444
C17   C     C_R   0.008685 0.494444 0.347344 0.574430
C18   C     C_R   0.206163 0.352651 0.389227 0.048629
C19   C     C_R   0.793845 0.647360 0.610761 0.048651
C20   C     C_R   0.288299 0.492834 0.485115 0.034025
C21   C     C_R   0.711701 0.507165 0.514886 0.034027
C22   C     C_R   0.373038 0.462424 0.468659 -0.010102
C23   C     C_R   0.184742 0.799073 0.527063 -0.023859
C24   C     C_R   0.626971 0.537586 0.531329 -0.010103
C25   C     C_R   0.368872 0.369979 0.412073 0.035564
C26   C     C_R   0.631146 0.630042 0.587903 0.035559
C27   C     C_R   0.459959 0.519129 0.507836 0.022484
C28   C     C_R   0.540052 0.480883 0.492149 0.022493
C29   C     C_R   0.530167 0.386644 0.438303 -0.142084
C30   C     C_R   0.469850 0.613375 0.561673 -0.142072
C31   C     C_R   0.447886 0.333692 0.398755 -0.137860
C32   C     C_R   0.552136 0.666334 0.601214 -0.137840
C33   C     C_R   0.990156 0.513199 0.738704 0.052662
C34   C     C_R   0.815263 0.200925 0.472931 -0.023854
C35   C     C_R   0.009731 0.486615 0.261290 0.052654
C36   C     C_R   0.079362 0.528886 0.764365 0.235092
C37   C     C_R   0.920457 0.470777 0.235656 0.235105
C38   C     C_R   0.074186 0.533538 0.847066 -0.101095
C39   C     C_R   0.925519 0.465890 0.152936 -0.101102
C40   C     C_R   0.981620 0.521979 0.903327 0.009568
C41   C     C_R   0.018041 0.477375 0.096630 0.009565
C42   C     C_R   0.895112 0.511290 0.877978 -0.138538
C43   C     C_R   0.104618 0.488213 0.121959 -0.138516
C44   C     C_R   0.899185 0.506673 0.796179 -0.186545
C45   C     C_R   0.212327 0.981583 0.548918 -0.000969
C46   C     C_R   0.100659 0.493061 0.203777 -0.186537
C47   C     C_2   0.973314 0.520251 0.988987 -0.134016
C48   C     C_2   0.026258 0.478975 0.010960 -0.134033
C49   C     C_3   0.545050 0.231038 0.603609 -0.246319
C50   C     C_3   0.587403 0.214127 0.667903 -0.287523
C51   C     C_3   0.643374 0.316688 0.718322 -0.455659
C52   C     C_3   0.454957 0.768906 0.396488 -0.246309
C53   C     C_3   0.412625 0.785781 0.332162 -0.287524
C54   C     C_3   0.356646 0.683199 0.281767 -0.455628
C55   C     C_3   0.280027 0.215308 0.309783 -0.277863
C56   C     C_R   0.787710 0.018418 0.451013 -0.000972
C57   C     C_3   0.187366 0.163565 0.267561 -0.310516
C58   C     C_3   0.189310 0.063872 0.210013 -0.449588
C59   C     C_3   0.720027 0.784754 0.690149 -0.277860
C60   C     C_3   0.812703 0.836518 0.732356 -0.310515
C61   C     C_3   0.810829 0.936283 0.789819 -0.449603
C62   C     C_3   0.169807 0.067408 0.572579 -0.257877
C63   C     C_3   0.052974 0.033948 0.600211 -0.316207
C64   C     C_3   0.020239 0.126143 0.621286 -0.443461
C65   C     C_3   0.830265 0.932611 0.427260 -0.257876
C66   C     C_3   0.947072 0.966071 0.399362 -0.316186
C67   C     C_R   0.146670 0.876565 0.539356 -0.124178
C68   C     C_3   0.979838 0.873883 0.378159 -0.443475
C69   C     C_R   0.853355 0.123437 0.460586 -0.124191
C70   C     C_R   0.288210 0.826236 0.523834 -0.133253
Cu1   Cu    Cu3+1 0.916740 0.524770 0.521640 0.934701
Cu2   Cu    Cu3+1 0.083260 0.475230 0.478360 0.934665
H1    H     H_    0.447112 0.262545 0.357874 0.103892
H2    H     H_    0.830503 0.496314 0.777729 0.125272
H3    H     H_    0.079608 0.448619 0.965579 0.117209
H4    H     H_    0.919967 0.550611 0.034369 0.117230
H5    H     H_    0.823629 0.503858 0.921220 0.109606
H6    H     H_    0.176071 0.495600 0.078685 0.109605
H7    H     H_    0.856962 0.452151 0.132650 0.085983
H8    H     H_    0.142696 0.547173 0.867373 0.085983
H9    H     H_    0.362884 0.170906 0.570303 0.100459
H10   H     H_    0.637130 0.829074 0.429784 0.100466
H11   H     H_    0.687000 0.230211 0.468917 0.123749
H12   H     H_    0.552917 0.737488 0.642086 0.103908
H13   H     H_    0.312971 0.769781 0.531150 0.123733
H14   H     H_    0.934543 0.146218 0.455992 0.119389
H15   H     H_    0.065488 0.853790 0.543919 0.119383
H16   H     H_    0.224821 0.551506 0.736877 0.309584
H17   H     H_    0.774975 0.448078 0.263200 0.309567
H18   H     H_    0.709196 0.366178 0.678142 0.183969
H19   H     H_    0.590541 0.357800 0.750576 0.146253
H20   H     H_    0.672879 0.302370 0.764400 0.136933
H21   H     H_    0.523050 0.165010 0.709294 0.160166
H22   H     H_    0.641778 0.174311 0.639052 0.175305
H23   H     H_    0.717990 0.442205 0.469139 0.148155
H24   H     H_    0.603493 0.291013 0.568770 0.137734
H25   H     H_    0.488957 0.267710 0.638394 0.134958
H26   H     H_    0.409461 0.642055 0.249560 0.146261
H27   H     H_    0.290794 0.633749 0.321955 0.184042
H28   H     H_    0.327183 0.697496 0.235651 0.136897
H29   H     H_    0.358264 0.825618 0.360982 0.175309
H30   H     H_    0.476991 0.834866 0.290758 0.160164
H31   H     H_    0.511042 0.732214 0.361729 0.134962
H32   H     H_    0.396505 0.708954 0.431343 0.137719
H33   H     H_    0.259450 0.080188 0.161385 0.151201
H34   H     H_    0.282002 0.557782 0.530874 0.148107
H35   H     H_    0.187438 0.008422 0.244368 0.150976
H36   H     H_    0.121166 0.028010 0.180946 0.143694
H37   H     H_    0.115604 0.144540 0.314231 0.146601
H38   H     H_    0.187835 0.216818 0.231706 0.158229
H39   H     H_    0.350454 0.233014 0.261368 0.144491
H40   H     H_    0.279252 0.158717 0.342542 0.142991
H41   H     H_    0.812782 0.991702 0.755391 0.151002
H42   H     H_    0.740677 0.920065 0.838439 0.151216
H43   H     H_    0.878959 0.972134 0.818901 0.143695
H44   H     H_    0.812201 0.783311 0.768271 0.158232
H45   H     H_    0.859723 0.686479 0.639355 0.129315
H46   H     H_    0.884460 0.855459 0.685675 0.146586
H47   H     H_    0.720806 0.841318 0.657360 0.143009
H48   H     H_    0.649610 0.767090 0.738576 0.144481
H49   H     H_    0.053726 0.182191 0.673193 0.161019
H50   H     H_    0.045605 0.165376 0.567726 0.158403
H51   H     H_    0.935426 0.099192 0.638926 0.142439
H52   H     H_    0.013527 0.977496 0.551586 0.158074
H53   H     H_    0.028422 0.997907 0.655334 0.161861
H54   H     H_    0.201857 0.122530 0.625406 0.142954
H55   H     H_    0.195898 0.108798 0.520112 0.144733
H56   H     H_    0.140284 0.313530 0.360636 0.129307
H57   H     H_    0.954701 0.834699 0.431720 0.158401
H58   H     H_    0.946159 0.817795 0.326347 0.160986
H59   H     H_    0.064637 0.900828 0.360325 0.142401
H60   H     H_    0.971393 0.002071 0.344242 0.161888
H61   H     H_    0.986712 0.022557 0.447877 0.158028
H62   H     H_    0.804389 0.891294 0.479745 0.144704
H63   H     H_    0.798049 0.877421 0.374525 0.142975
H64   H     H_    0.584832 0.350504 0.425394 0.100931
H65   H     H_    0.415188 0.649518 0.574575 0.100906
H66   H     H_    0.169392 0.503534 0.222210 0.125255
N1    N     N_R   0.208390 0.438070 0.445820 -0.250473
N2    N     N_R   0.791610 0.561930 0.554180 -0.250474
O1    O     O_R   0.020090 0.662480 0.528530 -0.514979
O2    O     O_3   0.829304 0.458339 0.291503 -0.704571
O3    O     O_R   0.979910 0.337520 0.471470 -0.514992
O4    O     O_R   0.160710 0.620650 0.491980 -0.512944
O5    O     O_R   0.839290 0.379350 0.508020 -0.512927
O6    O     O_R   0.921540 0.523360 0.633990 -0.534306
O7    O     O_R   0.078460 0.476640 0.366010 -0.534312
O8    O     O_R   0.062170 0.481520 0.597440 -0.434454
O9    O     O_R   0.937830 0.518480 0.402560 -0.434449
O10   O     O_3   0.170561 0.541409 0.708566 -0.704544

loop_
_geom_bond_atom_site_label_1
_geom_bond_atom_site_label_2
_ccdc_geom_bond_type
C25   C31   A    
C40   C47   S    
C66   C68   S    
C52   H31   S    
C26   C32   A    
C59   H48   S    
C55   H40   S    
C7    C10   A    
C14   C18   A    
C23   C70   A    
C4    C8    A    
C10   C52   S    
C63   H52   S    
C7    C8    A    
C39   C41   A    
C53   C54   S    
C11   H9    S    
C43   H6    S    
C15   C19   A    
C56   C69   A    
C20   N1    A    
C28   C29   A    
C17   O7    A    
C24   C26   A    
C47   H4    S    
C5    C11   A    
C3    C7    A    
C51   H18   S    
C62   H55   S    
C16   C33   S    
C31   H1    S    
C64   H49   S    
C45   C62   S    
C33   C36   A    
C16   O6    A    
C58   H35   S    
C23   C67   A    
C18   H56   S    
C19   N2    A    
Cu2   N1    S    
C57   H37   S    
C57   H38   S    
C53   H29   S    
C8    C9    A    
C22   C25   A    
C45   C67   A    
C60   H46   S    
H17   O2    S    
C30   C32   A    
C20   H34   S    
C65   H62   S    
Cu1   O1    S    
C51   H19   S    
C2    C34   A    
C40   C42   A    
C14   C55   S    
C59   C60   S    
C14   C25   A    
C30   H65   S    
C27   C30   A    
C41   C43   A    
C48   H3    S    
C54   H28   S    
C2    H11   S    
C68   H57   S    
C42   C44   A    
C66   H60   S    
C32   H12   S    
C37   O2    S    
C55   H39   S    
C44   H2    S    
C3    C70   A    
C9    C49   S    
C4    C6    A    
C62   H54   S    
C50   H22   S    
C15   C26   A    
C21   H23   S    
Cu2   O8    S    
C5    C45   A    
C13   H10   S    
C60   C61   S    
C39   H7    S    
C12   O5    A    
C68   H59   S    
C2    C4    A    
C61   H43   S    
C62   C63   S    
C51   H20   S    
C66   H61   S    
C47   C48   D    
C53   H30   S    
Cu1   O6    S    
C50   C51   S    
C65   H63   S    
C68   H58   S    
C9    C11   A    
C34   C69   A    
C63   H53   S    
Cu1   O5    S    
C20   C22   A    
C1    C23   S    
C22   C27   A    
C55   C57   S    
C61   H41   S    
C54   H27   S    
C60   H44   S    
C12   C34   S    
C64   H51   S    
C61   H42   S    
C52   C53   S    
Cu2   O4    S    
C52   H32   S    
C59   H47   S    
C35   C37   A    
C33   C44   A    
H16   O10   S    
C17   O9    A    
C24   C28   A    
C6    C56   A    
C3    C5    A    
C10   C13   A    
C50   H21   S    
Cu1   N2    S    
Cu2   O7    S    
C67   H15   S    
C12   O3    A    
C46   H66   S    
C16   O8    A    
C58   H33   S    
C36   C38   A    
Cu1   Cu2   S    
C37   C39   A    
C1    O4    A    
C6    C13   A    
C38   C40   A    
C70   H13   S    
C36   O10   S    
C57   C58   S    
Cu1   O9    S    
Cu2   O3    S    
C38   H8    S    
C64   H50   S    
C41   C48   S    
C58   H36   S    
C65   C66   S    
C49   H24   S    
C18   N1    A    
C43   C46   A    
C15   C59   S    
C1    O1    A    
C49   H25   S    
C63   C64   S    
C29   H64   S    
C19   H45   S    
C42   H5    S    
C29   C31   A    
C49   C50   S    
C21   C24   A    
C27   C28   A    
C54   H26   S    
C17   C35   S    
C21   N2    A    
C35   C46   A    
C69   H14   S    
C56   C65   S    
