data_mof_unit_5952.cif
_audit_creation_date              2012-10-26T20:02:39-0400
_audit_creation_method            fapswitch 2.2
_symmetry_space_group_name_H-M    P1
_symmetry_Int_Tables_number       1
_space_group_crystal_system       triclinic
_cell_length_a                    19.047833
_cell_length_b                    18.430297
_cell_length_c                    12.345944
_cell_angle_alpha                 90.0
_cell_angle_beta                  129.094424
_cell_angle_gamma                 90.00003
_cell_volume                      3363.75416558

loop_
_atom_site_label
_atom_site_type_symbol
_atom_type_description
_atom_site_fract_x
_atom_site_fract_y
_atom_site_fract_z
_atom_type_partial_charge
C1    C     C_R   0.611421 0.897565 0.651910 0.542020
C2    C     C_R   0.659462 0.723533 0.018751 0.066328
C3    C     C_R   0.159462 0.776468 0.018749 0.066328
C4    C     C_R   0.159462 0.223533 0.018752 0.066329
C5    C     C_R   0.582904 0.241807 0.902950 -0.101582
C6    C     C_R   0.582905 0.758195 0.902954 -0.101583
C7    C     C_R   0.082904 0.741806 0.902951 -0.101582
C8    C     C_R   0.082905 0.258196 0.902955 -0.101583
C9    C     C_R   0.585751 0.208119 0.805511 -0.124879
C10   C     C_R   0.585752 0.791882 0.805513 -0.124880
C11   C     C_R   0.085751 0.708119 0.805511 -0.124880
C12   C     C_R   0.611421 0.102435 0.651910 0.542020
C13   C     C_R   0.085752 0.291882 0.805513 -0.124880
C14   C     C_R   0.314291 0.816880 0.146358 -0.138097
C15   C     C_R   0.314290 0.183119 0.146356 -0.138097
C16   C     C_R   0.814291 0.316880 0.146358 -0.138097
C17   C     C_R   0.814291 0.683119 0.146357 -0.138097
C18   C     C_R   0.233605 0.845991 0.232422 -0.083270
C19   C     C_R   0.233606 0.154011 0.232425 -0.083270
C20   C     C_R   0.733604 0.345991 0.232421 -0.083271
C21   C     C_R   0.733606 0.654011 0.232425 -0.083270
C22   C     C_R   0.674265 0.162409 0.735784 0.001244
C23   C     C_R   0.111421 0.397565 0.651909 0.542021
C24   C     C_R   0.674263 0.837591 0.735783 0.001244
C25   C     C_R   0.174264 0.662409 0.735784 0.001244
C26   C     C_R   0.174263 0.337590 0.735783 0.001244
C27   C     C_R   0.685422 1.000000 0.288390 0.214506
C28   C     C_R   0.185422 0.500000 0.288390 0.214506
C29   C     C_R   0.343837 0.000000 0.627901 0.052810
C30   C     C_R   0.843837 0.500000 0.627901 0.052810
C31   C     C_R   0.309877 0.000000 0.700127 -0.147452
C32   C     C_R   0.809877 0.500000 0.700127 -0.147452
C33   C     C_R   0.384265 0.098824 0.342493 0.549478
C34   C     C_R   0.111421 0.602435 0.651910 0.542020
C35   C     C_R   0.384265 0.901176 0.342493 0.549478
C36   C     C_R   0.884265 0.598824 0.342493 0.549478
C37   C     C_R   0.884265 0.401176 0.342493 0.549478
C38   C     C_R   0.368774 0.000000 0.845717 -0.133701
C39   C     C_R   0.868774 0.500000 0.845717 -0.133701
C40   C     C_R   0.463234 0.000000 0.921863 0.000401
C41   C     C_R   0.963234 0.500000 0.921863 0.000401
C42   C     C_R   0.494839 1.000000 0.842849 0.176146
C43   C     C_R   0.994839 0.500000 0.842849 0.176146
C44   C     C_R   0.527291 1.000000 0.072718 -0.036309
C45   C     C_R   0.238635 0.781208 0.030432 -0.000086
C46   C     C_R   0.027291 0.500000 0.072718 -0.036309
C47   C     C_R   0.621424 1.000000 0.141028 0.051962
C48   C     C_R   0.121424 0.500000 0.141028 0.051962
C49   C     C_R   0.650180 1.000000 0.061333 -0.129416
C50   C     C_R   0.150180 0.500000 0.061333 -0.129416
C51   C     C_R   0.588727 1.000000 0.916811 -0.104404
C52   C     C_R   0.088727 0.500000 0.916811 -0.104404
C53   C     C_R   0.502319 0.000000 0.159738 0.031797
C54   C     C_R   0.002319 0.500000 0.159738 0.031798
C55   C     C_R   0.655724 1.000000 0.366397 0.090686
C56   C     C_R   0.238635 0.218792 0.030432 -0.000086
C57   C     C_R   0.155724 0.500000 0.366397 0.090686
C58   C     C_R   0.658273 0.307944 0.122020 0.241860
C59   C     C_R   0.658275 0.692059 0.122024 0.241862
C60   C     C_R   0.158274 0.807943 0.122021 0.241861
C61   C     C_R   0.158276 0.192059 0.122025 0.241862
C62   C     C_R   0.310750 0.851837 0.242661 -0.042464
C63   C     C_R   0.310750 0.148163 0.242662 -0.042465
C64   C     C_R   0.810750 0.351837 0.242661 -0.042464
C65   C     C_R   0.810751 0.648163 0.242662 -0.042464
C66   C     C_R   0.748165 0.172469 0.737961 -0.112648
C67   C     C_R   0.738635 0.281208 0.030433 -0.000086
C68   C     C_R   0.748163 0.827529 0.737957 -0.112646
C69   C     C_R   0.248164 0.672469 0.737959 -0.112648
C70   C     C_R   0.248162 0.327528 0.737956 -0.112646
C71   C     C_R   0.315395 0.722003 0.828716 -0.092573
C72   C     C_R   0.315392 0.277994 0.828710 -0.092572
C73   C     C_R   0.815396 0.222003 0.828717 -0.092573
C74   C     C_R   0.815393 0.777995 0.828712 -0.092572
C75   C     C_R   0.313009 0.758992 0.924403 -0.083562
C76   C     C_R   0.313006 0.241006 0.924399 -0.083561
C77   C     C_R   0.813010 0.258991 0.924405 -0.083562
C78   C     C_R   0.738635 0.718792 0.030432 -0.000086
C79   C     C_R   0.813007 0.741007 0.924401 -0.083562
C80   C     C_R   0.740416 0.249053 0.927475 0.037399
C81   C     C_R   0.740415 0.750946 0.927474 0.037399
C82   C     C_R   0.240416 0.749054 0.927475 0.037399
C83   C     C_R   0.240415 0.250945 0.927473 0.037400
C84   C     C_R   0.666195 0.205814 0.822377 0.025455
C85   C     C_R   0.666195 0.794185 0.822376 0.025455
C86   C     C_R   0.166195 0.705814 0.822376 0.025455
C87   C     C_R   0.166194 0.294185 0.822376 0.025455
C88   C     C_R   0.659461 0.276468 0.018749 0.066327
Cl1   Cl    Cl    0.803269 1.000000 0.380520 -0.608827
Cl2   Cl    Cl    0.303269 0.500000 0.380520 -0.608826
Cl3   Cl    Cl    0.563481 0.302820 0.116254 -0.643674
Cl4   Cl    Cl    0.563485 0.697185 0.116262 -0.643678
Cl5   Cl    Cl    0.063483 0.802819 0.116256 -0.643677
Cl6   Cl    Cl    0.063486 0.197186 0.116264 -0.643680
Cu1   Cu    Cu3+1 0.526340 0.000000 0.421010 0.959745
Cu2   Cu    Cu3+1 0.026340 0.500000 0.421010 0.959745
Cu3   Cu    Cu3+1 0.473640 0.000000 0.578990 0.918537
Cu4   Cu    Cu3+1 0.973640 0.500000 0.578990 0.918537
H1    H     H_    0.230675 0.872900 0.307526 0.162032
H2    H     H_    0.797459 0.500000 0.515011 0.136186
H3    H     H_    0.237488 0.000000 0.642941 0.134275
H4    H     H_    0.737488 0.500000 0.642941 0.134275
H5    H     H_    0.618559 1.000000 0.867383 0.190467
H6    H     H_    0.118559 0.500000 0.867383 0.190468
H7    H     H_    0.520002 0.240158 0.886382 0.160406
H8    H     H_    0.520003 0.759845 0.886387 0.160406
H9    H     H_    0.020002 0.740157 0.886383 0.160406
H10   H     H_    0.020004 0.259846 0.886389 0.160406
H11   H     H_    0.377452 0.818682 0.164482 0.146987
H12   H     H_    0.230678 0.127103 0.307531 0.162033
H13   H     H_    0.377450 0.181316 0.164478 0.146986
H14   H     H_    0.877453 0.318681 0.164484 0.146986
H15   H     H_    0.877451 0.681317 0.164480 0.146986
H16   H     H_    0.754965 0.141071 0.670846 0.149221
H17   H     H_    0.754962 0.858927 0.670842 0.149221
H18   H     H_    0.254964 0.641072 0.670844 0.149221
H19   H     H_    0.254962 0.358926 0.670840 0.149222
H20   H     H_    0.367846 0.796323 0.991827 0.133283
H21   H     H_    0.367843 0.203674 0.991822 0.133280
H22   H     H_    0.867847 0.296323 0.991829 0.133284
H23   H     H_    0.730674 0.372901 0.307525 0.162032
H24   H     H_    0.867845 0.703675 0.991824 0.133281
H25   H     H_    0.371237 0.730210 0.827730 0.153181
H26   H     H_    0.371233 0.269785 0.827723 0.153180
H27   H     H_    0.871238 0.230209 0.827732 0.153182
H28   H     H_    0.871234 0.769787 0.827725 0.153180
H29   H     H_    0.522899 0.185737 0.714915 0.156990
H30   H     H_    0.522899 0.814264 0.714918 0.156991
H31   H     H_    0.022899 0.685737 0.714916 0.156990
H32   H     H_    0.022899 0.314264 0.714918 0.156991
H33   H     H_    0.704184 1.000000 0.479247 0.152014
H34   H     H_    0.730677 0.627102 0.307529 0.162032
H35   H     H_    0.204184 0.500000 0.479247 0.152014
H36   H     H_    0.338538 0.000000 0.895749 0.107024
H37   H     H_    0.838538 0.500000 0.895749 0.107024
H38   H     H_    0.721350 1.000000 0.110074 0.190251
H39   H     H_    0.221350 0.500000 0.110074 0.190252
H40   H     H_    0.432488 0.000000 0.116597 0.126578
H41   H     H_    0.932488 0.500000 0.116597 0.126578
H42   H     H_    0.297459 0.000000 0.515011 0.136186
N1    N     N_R   0.566260 0.000000 0.302220 -0.262964
N2    N     N_R   0.066260 0.500000 0.302220 -0.262964
N3    N     N_R   0.434410 0.000000 0.697680 -0.240913
N4    N     N_R   0.934410 0.500000 0.697680 -0.240913
O1    O     O_R   0.608610 0.924520 0.551740 -0.497123
O2    O     O_R   0.435880 0.924530 0.314850 -0.500629
O3    O     O_R   0.935880 0.575470 0.314850 -0.500629
O4    O     O_R   0.935880 0.424530 0.314850 -0.500629
O5    O     O_R   0.391380 0.075460 0.448260 -0.512382
O6    O     O_R   0.391380 0.924540 0.448260 -0.512381
O7    O     O_R   0.891380 0.575460 0.448260 -0.512381
O8    O     O_R   0.891380 0.424540 0.448260 -0.512381
O9    O     O_R   0.608610 0.075480 0.551740 -0.497123
O10   O     O_R   0.108610 0.424520 0.551740 -0.497123
O11   O     O_R   0.108610 0.575480 0.551740 -0.497123
O12   O     O_R   0.564110 0.924510 0.685150 -0.527614
O13   O     O_R   0.564110 0.075490 0.685150 -0.527614
O14   O     O_R   0.064110 0.424510 0.685150 -0.527614
O15   O     O_R   0.064110 0.575490 0.685150 -0.527614
O16   O     O_R   0.435880 0.075470 0.314850 -0.500629

loop_
_geom_bond_atom_site_label_1
_geom_bond_atom_site_label_2
_ccdc_geom_bond_type
C14   H11   S    
C30   C32   A    
C13   C87   A    
C10   C85   A    
C8    C13   A    
C55   N1    A    
C12   C22   S    
C1    O1    A    
C45   C82   A    
Cu1   O1    S    
C12   O9    A    
C80   C84   A    
C77   H22   S    
C50   H39   S    
C17   H15   S    
C39   C41   A    
C5    H7    S    
C28   C57   A    
C7    C11   A    
Cu1   O2    S    
C67   C88   A    
C9    H29   S    
C57   N2    A    
C31   H3    S    
C71   H25   S    
C19   H12   S    
Cu3   O6    S    
C21   C59   A    
C3    C7    A    
C27   C55   A    
C43   C52   A    
C23   C26   S    
Cu2   O11   S    
C70   H19   S    
C51   H5    S    
C14   C62   A    
C23   O14   A    
C30   H2    S    
C4    C56   A    
C30   N4    A    
Cu3   O12   S    
C69   C71   A    
C73   C77   A    
C22   C66   A    
C5    C88   A    
C44   C53   A    
Cu2   O10   S    
Cu4   O14   S    
C19   C63   A    
C26   C87   A    
C49   C51   A    
Cu2   Cu4   S    
C50   C52   A    
C41   C46   A    
C35   O6    A    
C12   O13   A    
C24   C85   A    
C53   N1    A    
C44   C47   A    
C4    C8    A    
C42   C51   A    
C21   C65   A    
C60   Cl5   S    
C40   C42   A    
C38   C40   A    
C72   H26   S    
C41   C43   A    
C57   H35   S    
C43   N4    A    
C2    C6    A    
C75   H20   S    
C10   H30   S    
C11   H31   S    
C76   C83   A    
C14   C45   A    
Cu4   O7    S    
Cu2   O4    S    
C79   H24   S    
C46   C48   A    
C33   C63   S    
C76   H21   S    
C53   H40   S    
C15   H13   S    
C47   C49   A    
C79   C81   A    
C61   Cl6   S    
C18   C62   A    
C39   H37   S    
C9    C84   A    
C34   O11   A    
C66   C73   A    
C4    C61   A    
C3    C45   A    
Cu1   O16   S    
Cu1   O9    S    
C35   O2    A    
Cu3   O13   S    
C20   C64   A    
C1    O12   A    
C21   H34   S    
C5    C9    A    
C2    C78   A    
C25   C86   A    
C36   O3    A    
C54   H41   S    
C13   H32   S    
C46   C54   A    
Cu1   Cu3   S    
C6    H8    S    
C72   C76   A    
C75   C82   A    
C16   C67   A    
C20   H23   S    
C18   C60   A    
C54   N2    A    
C49   H38   S    
Cu1   N1    S    
C55   H33   S    
C74   C79   A    
C26   C70   A    
C7    H9    S    
C25   C69   A    
C18   H1    S    
C37   O8    A    
C20   C58   A    
C37   C64   S    
C16   H14   S    
C56   C83   A    
C58   Cl3   S    
C77   C80   A    
C27   C47   A    
C29   H42   S    
C28   C48   A    
Cu3   O5    S    
C66   H16   S    
C33   O16   A    
Cu4   N4    S    
C2    C59   A    
C67   C80   A    
C69   H18   S    
C58   C88   A    
C83   C87   A    
C6    C10   A    
C28   Cl2   S    
Cu2   O3    S    
C36   O7    A    
Cu3   N3    S    
C11   C86   A    
C25   C34   S    
Cu4   O8    S    
C17   C65   A    
C31   C38   A    
C15   C56   A    
C36   C65   S    
C29   C31   A    
C82   C86   A    
C34   O15   A    
C71   C75   A    
C78   C81   A    
C74   H28   S    
C19   C61   A    
C73   H27   S    
C48   C50   A    
C17   C78   A    
C33   O5    A    
C52   H6    S    
C27   Cl1   S    
C35   C62   S    
C32   H4    S    
C59   Cl4   S    
C38   H36   S    
C37   O4    A    
C24   C68   A    
C68   H17   S    
Cu2   N2    S    
C40   C44   A    
Cu4   O15   S    
C1    C24   S    
C23   O10   A    
C42   N3    A    
C32   C39   A    
C15   C63   A    
C8    H10   S    
C70   C72   A    
C16   C64   A    
C3    C60   A    
C68   C74   A    
C81   C85   A    
C22   C84   A    
C29   N3    A    
