data_mof_unit_16956.cif
_audit_creation_date              2012-12-10T18:03:34-0500
_audit_creation_method            fapswitch 2.2
_symmetry_space_group_name_H-M    P1
_symmetry_Int_Tables_number       1
_space_group_crystal_system       triclinic
_cell_length_a                    10.832367
_cell_length_b                    9.508087
_cell_length_c                    19.541913
_cell_angle_alpha                 89.99658
_cell_angle_beta                  90.201921
_cell_angle_gamma                 90.003058
_cell_volume                      2012.70854093

loop_
_atom_site_label
_atom_site_type_symbol
_atom_type_description
_atom_site_fract_x
_atom_site_fract_y
_atom_site_fract_z
_atom_type_partial_charge
C1    C     C_R   0.871824 0.500004 0.500224 0.022710
C2    C     C_R   0.128175 0.499998 0.499864 0.023003
C3    C     C_R   0.499748 0.619135 0.964420 -0.148429
C4    C     C_R   0.500152 0.364127 0.035670 -0.148216
C5    C     C_R   0.499694 0.619126 0.035606 -0.148447
C6    C     C_R   0.500781 0.364138 0.964362 -0.148183
C7    C     C_R   0.499596 0.491683 0.071852 0.145131
C8    C     C_R   0.500577 0.491704 0.928177 0.145141
C9    C     C_R   0.262032 0.499994 0.499912 0.872906
C10   C     C_R   0.737968 0.500000 0.500134 0.873893
C11   C     C_R   0.500293 0.499828 0.367558 0.947748
C12   C     C_R   0.499726 0.499815 0.632449 0.946635
C13   C     C_R   0.063809 0.372206 0.499470 -0.175250
C14   C     C_R   0.936184 0.627792 0.500007 -0.160045
C15   C     C_R   0.936170 0.372205 0.500288 -0.174480
C16   C     C_R   0.063833 0.627786 0.500402 -0.160742
C17   C     C_R   0.422553 0.402524 0.744565 0.390223
C18   C     C_R   0.422174 0.590428 0.253885 0.398810
C19   C     C_R   0.578113 0.403175 0.255485 0.389928
C20   C     C_R   0.577404 0.590973 0.746123 0.398999
C21   C     C_R   0.425661 0.400376 0.816084 -0.200266
C22   C     C_R   0.423335 0.586334 0.182464 -0.200676
C23   C     C_R   0.575019 0.400949 0.183964 -0.200371
C24   C     C_R   0.576244 0.586928 0.817546 -0.200623
C25   C     C_R   0.501263 0.492396 0.852737 -0.051841
C26   C     C_R   0.498866 0.492356 0.147293 -0.051774
C27   C     C_R   0.403389 0.074403 0.472571 0.052582
C28   C     C_R   0.597065 0.925705 0.526889 0.057244
C29   C     C_R   0.596610 0.074408 0.527429 0.054217
C30   C     C_R   0.402935 0.925699 0.473110 0.056613
C31   C     C_R   0.499542 0.498387 0.708275 -0.294660
C32   C     C_R   0.500534 0.498431 0.291744 -0.294465
Cu1   Cu    Cu3+1 0.500000 0.640660 0.500000 1.060927
Cu2   Cu    Cu3+1 0.500000 0.359340 0.500000 1.065059
H1    H     H_    0.326215 0.130080 0.450148 0.121985
H2    H     H_    0.675082 0.870141 0.548387 0.146283
H3    H     H_    0.673781 0.130087 0.549857 0.121860
H4    H     H_    0.324909 0.870129 0.451620 0.146724
H5    H     H_    0.111830 0.272281 0.499035 0.151149
H6    H     H_    0.888175 0.727727 0.499864 0.143901
H7    H     H_    0.888133 0.272278 0.500423 0.152258
H8    H     H_    0.111857 0.727716 0.500783 0.144117
H9    H     H_    0.366188 0.329008 0.843809 0.194442
H10   H     H_    0.363402 0.655740 0.153642 0.194366
H11   H     H_    0.634956 0.330072 0.156256 0.194524
H12   H     H_    0.635781 0.656789 0.846355 0.194372
H13   H     H_    0.498094 0.718898 0.937680 0.152859
H14   H     H_    0.498947 0.264497 0.062525 0.152536
H15   H     H_    0.500765 0.718894 0.062344 0.152824
H16   H     H_    0.502571 0.264524 0.937511 0.152581
N1    N     N_R   0.500000 0.852070 0.500000 -0.179525
N2    N     N_R   0.500000 0.147930 0.500000 -0.163418
O1    O     O_R   0.319640 0.618740 0.500000 -0.598339
O2    O     O_R   0.680360 0.381260 0.500000 -0.593615
O3    O     O_R   0.680360 0.618740 0.500000 -0.598279
O4    O     O_R   0.319640 0.381260 0.500000 -0.594305
O5    O     O_R   0.500020 0.618830 0.400190 -0.528177
O6    O     O_R   0.499980 0.381170 0.599810 -0.536652
O7    O     O_R   0.499980 0.618830 0.599810 -0.527995
O8    O     O_R   0.500020 0.381170 0.400190 -0.536745
S1    S     S_3+6 0.314807 0.289295 0.703666 0.029859
O9    O     O_2   0.382083 0.171863 0.668297 -0.248441
O10   O     O_2   0.227585 0.227117 0.755178 -0.271311
O11   O     O_3   0.232880 0.381435 0.646003 -0.557436
H17   H     H_    0.163070 0.319194 0.633496 0.373656
S2    S     S_3+6 0.318880 0.710948 0.292544 0.014679
O12   O     O_2   0.391347 0.832925 0.320484 -0.273626
O13   O     O_2   0.227203 0.764977 0.240895 -0.267506
O14   O     O_3   0.241807 0.631532 0.356094 -0.566289
H18   H     H_    0.179485 0.701356 0.370803 0.365102
S3    S     S_3+6 0.686759 0.291183 0.296449 0.029502
O15   O     O_2   0.620494 0.173411 0.332145 -0.247721
O16   O     O_2   0.774158 0.229398 0.244918 -0.272411
O17   O     O_3   0.768267 0.384602 0.353815 -0.558611
H19   H     H_    0.840549 0.324936 0.364874 0.374345
S4    S     S_3+6 0.680180 0.712106 0.707462 0.014870
O18   O     O_2   0.607186 0.833677 0.679524 -0.272733
O19   O     O_2   0.771614 0.766646 0.759116 -0.267743
O20   O     O_3   0.757604 0.633149 0.643912 -0.566098
H20   H     H_    0.819828 0.703199 0.629317 0.364874

loop_
_geom_bond_atom_site_label_1
_geom_bond_atom_site_label_2
_ccdc_geom_bond_type
Cu1   O3    S    
S2    O13   D    
C30   N1    A    
Cu2   O4    S    
C23   H11   S    
C19   S3    S    
S4    O20   S    
C20   S4    S    
C7    C26   S    
C28   C29   A    
S4    O19   D    
C28   N1    A    
S2    O14   S    
C30   H4    S    
C23   C26   A    
S1    O10   D    
C2    C13   A    
C17   S1    S    
C21   H9    S    
C12   O7    A    
C22   H10   S    
C20   C24   A    
C1    C15   A    
C2    C16   A    
C12   O6    A    
S2    O12   D    
Cu1   O7    S    
C27   C30   A    
Cu2   O8    S    
C8    C25   S    
C5    H15   S    
O14   H18   S    
C9    O1    A    
C4    C7    A    
C19   C32   A    
Cu1   O1    S    
O17   H19   S    
C24   C25   A    
C15   H7    S    
C4    C6    A    
C3    C8    A    
C5    C7    A    
C6    C8    A    
C27   H1    S    
C17   C21   A    
S1    O11   S    
C19   C23   A    
Cu1   Cu2   S    
C9    O4    A    
S4    O18   D    
C10   O3    A    
C11   C32   S    
Cu2   O2    S    
C13   C15   A    
C12   C31   S    
C17   C31   A    
C14   C16   A    
Cu1   N1    S    
C11   O8    A    
C16   H8    S    
C27   N2    A    
S3    O16   D    
C4    H14   S    
C21   C25   A    
Cu1   O5    S    
C6    H16   S    
C18   C22   A    
C1    C10   S    
C3    C5    A    
S3    O17   S    
C18   S2    S    
Cu2   N2    S    
C24   H12   S    
O11   H17   S    
S3    O15   D    
C3    H13   S    
S1    O9    D    
C10   O2    A    
C13   H5    S    
C14   H6    S    
O20   H20   S    
C18   C32   A    
C28   H2    S    
C22   C26   A    
C29   H3    S    
Cu2   O6    S    
C1    C14   A    
C11   O5    A    
C2    C9    S    
C29   N2    A    
C20   C31   A    
