data_mof_unit_65151.cif
_audit_creation_date              2012-12-10T21:23:32-0500
_audit_creation_method            fapswitch 2.2
_symmetry_space_group_name_H-M    P1
_symmetry_Int_Tables_number       1
_space_group_crystal_system       triclinic
_cell_length_a                    25.270661
_cell_length_b                    24.51653
_cell_length_c                    16.842304
_cell_angle_alpha                 89.999608
_cell_angle_beta                  90.000664
_cell_angle_gamma                 90.000164
_cell_volume                      10434.6312277

loop_
_atom_site_label
_atom_site_type_symbol
_atom_type_description
_atom_site_fract_x
_atom_site_fract_y
_atom_site_fract_z
_atom_type_partial_charge
C1    C     C_R   0.074319 0.427440 0.499979 1.010569
C2    C     C_R   0.004449 0.548037 0.251063 0.348890
C3    C     C_3   0.768218 0.120093 0.379773 -0.260474
C4    C     C_3   0.250386 0.142500 0.354838 -0.202967
C5    C     C_3   0.636389 0.742560 0.645893 -0.186157
C6    C     C_3   0.749524 0.857417 0.354701 -0.203041
C7    C     C_3   0.363559 0.257378 0.645981 -0.186044
C8    C     C_3   0.196300 0.521198 0.495684 -0.232641
C9    C     C_3   0.981991 0.299992 0.501040 -0.166335
C10   C     C_3   0.803706 0.478822 0.495673 -0.232756
C11   C     C_3   0.017982 0.699986 0.501021 -0.166344
C12   C     C_3   0.869305 0.604459 0.308954 -0.097613
C13   C     C_R   0.003479 0.548179 0.748637 0.362903
C14   C     C_3   0.129645 0.388037 0.700834 -0.058703
C15   C     C_3   0.130633 0.395368 0.308971 -0.097551
C16   C     C_3   0.870469 0.612151 0.700777 -0.058952
C17   C     C_3   0.630631 0.104631 0.691035 -0.097547
C18   C     C_3   0.370347 0.888016 0.299168 -0.058653
C19   C     C_3   0.369361 0.895397 0.691039 -0.097549
C20   C     C_3   0.629667 0.111948 0.299166 -0.058612
C21   C     C_3   0.303703 0.021180 0.504368 -0.232669
C22   C     C_3   0.517946 0.800015 0.498963 -0.166304
C23   C     C_3   0.696306 0.978763 0.504313 -0.232623
C24   C     C_R   0.995548 0.451963 0.251063 0.348809
C25   C     C_3   0.481993 0.200008 0.498941 -0.166344
C26   C     C_R   0.504456 0.951964 0.748938 0.348836
C27   C     C_R   0.496545 0.048181 0.251365 0.362857
C28   C     C_R   0.495544 0.048037 0.748936 0.348820
C29   C     C_R   0.503456 0.951819 0.251365 0.362869
C30   C     C_R   0.999999 0.499999 0.875845 -0.210756
C31   C     C_R   0.000000 0.500000 0.123819 -0.210589
C32   C     C_R   0.500000 0.000001 0.876182 -0.210566
C33   C     C_R   0.925679 0.572560 0.499976 1.010456
C34   C     C_R   0.500000 0.000001 0.124155 -0.210770
C35   C     C_1   0.999999 0.499999 0.963476 0.229794
C36   C     C_1   1.000000 0.499999 0.036181 0.231934
C37   C     C_1   0.500000 0.000001 0.963820 0.231924
C38   C     C_1   0.500000 0.000001 0.036525 0.229790
C39   C     C_R   0.200616 0.645032 0.532700 0.390080
C40   C     C_R   0.861115 0.292805 0.466873 0.382584
C41   C     C_R   0.799369 0.354990 0.532673 0.390079
C42   C     C_R   0.138865 0.707208 0.466891 0.382604
C43   C     C_R   0.833428 0.684500 0.434511 0.364189
C44   C     C_R   0.927427 0.426554 0.499997 1.033038
C45   C     C_R   0.192969 0.345661 0.566589 0.369334
C46   C     C_R   0.166473 0.315389 0.434642 0.364156
C47   C     C_R   0.806993 0.654314 0.566526 0.369301
C48   C     C_R   0.666478 0.184606 0.565364 0.364164
C49   C     C_R   0.307016 0.845674 0.433429 0.369300
C50   C     C_R   0.333502 0.815416 0.565388 0.364165
C51   C     C_R   0.692976 0.154332 0.433420 0.369327
C52   C     C_R   0.299365 0.145007 0.467339 0.390079
C53   C     C_R   0.638821 0.792760 0.533044 0.382588
C54   C     C_R   0.700585 0.854925 0.467240 0.390126
C55   C     C_R   0.072573 0.573446 0.499998 1.033009
C56   C     C_R   0.361117 0.207197 0.533117 0.382591
C57   C     C_R   0.162776 0.603613 0.529676 0.357295
C58   C     C_R   0.900479 0.332614 0.470476 0.368919
C59   C     C_R   0.837217 0.396401 0.529662 0.357295
C60   C     C_R   0.099508 0.667391 0.470480 0.368926
C61   C     C_R   0.871138 0.643032 0.431258 0.329269
C62   C     C_R   0.150436 0.382518 0.568342 0.331122
C63   C     C_R   0.128798 0.356889 0.431334 0.329200
C64   C     C_R   0.849561 0.617502 0.568326 0.331163
C65   C     C_R   0.628801 0.143108 0.568669 0.329195
C66   C     C_R   0.572572 0.926553 0.500002 1.033012
C67   C     C_R   0.349558 0.882520 0.431665 0.331187
C68   C     C_R   0.371187 0.856906 0.568682 0.329155
C69   C     C_R   0.650443 0.117475 0.431665 0.331153
C70   C     C_R   0.337214 0.103596 0.470351 0.357263
C71   C     C_R   0.599481 0.832596 0.529493 0.368931
C72   C     C_R   0.662763 0.896359 0.470303 0.357286
C73   C     C_R   0.400481 0.167388 0.529515 0.368918
C74   C     C_R   0.112185 0.615431 0.500045 -0.385054
C75   C     C_R   0.887809 0.384575 0.500042 -0.385072
C76   C     C_R   0.881728 0.611653 0.499942 -0.423139
C77   C     C_R   0.427427 0.073446 0.500002 1.033061
C78   C     C_R   0.118255 0.388333 0.499966 -0.423013
C79   C     C_R   0.618259 0.111663 0.500038 -0.423003
C80   C     C_R   0.381739 0.888339 0.500040 -0.423046
C81   C     C_R   0.387809 0.115425 0.499958 -0.385069
C82   C     C_R   0.612173 0.884557 0.499951 -0.385071
C83   C     C_R   0.188672 0.695981 0.499488 -0.265754
C84   C     C_R   0.811307 0.304040 0.499459 -0.265749
C85   C     C_R   0.801055 0.688861 0.501191 -0.250715
C86   C     C_R   0.198860 0.311053 0.501313 -0.250663
C87   C     C_R   0.698865 0.188941 0.498694 -0.250667
C88   C     C_R   0.425680 0.927441 0.500022 1.010566
C89   C     C_R   0.301116 0.811078 0.498716 -0.250665
C90   C     C_R   0.311307 0.195959 0.500542 -0.265749
C91   C     C_R   0.688625 0.803972 0.500429 -0.265735
C92   C     C_1   0.227874 0.736878 0.498473 0.149143
C93   C     C_1   0.772101 0.263148 0.498441 0.149145
C94   C     C_1   0.761028 0.728940 0.501868 0.158074
C95   C     C_1   0.238878 0.270965 0.502013 0.158119
C96   C     C_1   0.738881 0.229031 0.497993 0.158076
C97   C     C_1   0.261094 0.770993 0.498022 0.158085
C98   C     C_1   0.272099 0.236851 0.501562 0.149152
C99   C     C_R   0.574321 0.072558 0.500022 1.010571
C100  C     C_1   0.727813 0.763061 0.501421 0.149155
C101  C     C_R   0.996634 0.450986 0.832832 0.239775
C102  C     C_R   0.004360 0.548866 0.166836 0.225538
C103  C     C_R   0.003370 0.549011 0.832833 0.239766
C104  C     C_R   0.995638 0.451134 0.166836 0.225522
C105  C     C_R   0.504366 0.951136 0.833166 0.225525
C106  C     C_R   0.496653 0.049014 0.167169 0.239763
C107  C     C_R   0.495634 0.048866 0.833163 0.225525
C108  C     C_R   0.503348 0.950987 0.167169 0.239757
C109  C     C_3   0.249574 0.642538 0.645223 -0.202921
C110  C     C_R   0.996529 0.451820 0.748635 0.362882
C111  C     C_3   0.863548 0.242633 0.354000 -0.186056
C112  C     C_3   0.750401 0.357486 0.645185 -0.202926
C113  C     C_3   0.136437 0.757385 0.354022 -0.186076
C114  C     C_3   0.862179 0.761499 0.373944 -0.209291
C115  C     C_3   0.268194 0.379919 0.620267 -0.260489
C116  C     C_3   0.137653 0.238357 0.374239 -0.209251
C117  C     C_3   0.731788 0.620063 0.620273 -0.260327
C118  C     C_3   0.637660 0.261637 0.625771 -0.209242
C119  C     C_3   0.231783 0.879919 0.379761 -0.260483
C120  C     C_3   0.362307 0.738390 0.625827 -0.209245
Cl1   Cl    Cl    0.992612 0.388284 0.884268 -0.465729
Cl2   Cl    Cl    0.010408 0.610292 0.301463 -0.420376
Cl3   Cl    Cl    0.007960 0.610458 0.697469 -0.578683
Cl4   Cl    Cl    0.989570 0.389710 0.301462 -0.420422
Cl5   Cl    Cl    0.510431 0.889710 0.698542 -0.420403
Cl6   Cl    Cl    0.492112 0.110462 0.302538 -0.578598
Cl7   Cl    Cl    0.489566 0.110290 0.698537 -0.420430
Cl8   Cl    Cl    0.507892 0.889538 0.302538 -0.578610
Cl9   Cl    Cl    0.009723 0.611442 0.115278 -0.461894
Cl10  Cl    Cl    0.007397 0.611712 0.884270 -0.465775
Cl11  Cl    Cl    0.990274 0.388558 0.115280 -0.461944
Cl12  Cl    Cl    0.509736 0.888560 0.884724 -0.461927
Cl13  Cl    Cl    0.492654 0.111718 0.115733 -0.465748
Cl14  Cl    Cl    0.490264 0.111441 0.884719 -0.461944
Cl15  Cl    Cl    0.507347 0.888284 0.115733 -0.465756
Cl16  Cl    Cl    0.992087 0.389539 0.697464 -0.578588
H1    H     H_    0.220770 0.614846 0.674827 0.198811
H2    H     H_    0.110165 0.727430 0.323789 0.213611
H3    H     H_    0.178657 0.748511 0.340243 0.161963
H4    H     H_    0.127192 0.798293 0.329563 0.178867
H5    H     H_    0.903728 0.746472 0.372184 0.197121
H6    H     H_    0.855558 0.786711 0.428021 0.158654
H7    H     H_    0.856414 0.788219 0.321533 0.183854
H8    H     H_    0.252616 0.422333 0.622152 0.191584
H9    H     H_    0.290405 0.372806 0.564105 0.167305
H10   H     H_    0.296583 0.375431 0.670058 0.188419
H11   H     H_    0.096113 0.253410 0.372469 0.197042
H12   H     H_    0.240583 0.685813 0.660033 0.173219
H13   H     H_    0.144271 0.213194 0.428365 0.158605
H14   H     H_    0.143389 0.211582 0.321880 0.183847
H15   H     H_    0.747379 0.577651 0.622125 0.191548
H16   H     H_    0.709539 0.627175 0.564146 0.167286
H17   H     H_    0.703433 0.624536 0.670109 0.188403
H18   H     H_    0.596121 0.246584 0.627545 0.197057
H19   H     H_    0.644276 0.286800 0.571644 0.158607
H20   H     H_    0.643399 0.288413 0.678128 0.183847
H21   H     H_    0.247353 0.922339 0.377939 0.191527
H22   H     H_    0.209555 0.872770 0.435897 0.167353
H23   H     H_    0.289313 0.632996 0.669450 0.173954
H24   H     H_    0.203413 0.875454 0.329942 0.188426
H25   H     H_    0.403848 0.753439 0.627609 0.197071
H26   H     H_    0.355694 0.713221 0.571705 0.158616
H27   H     H_    0.356559 0.711622 0.678191 0.183845
H28   H     H_    0.752656 0.077670 0.377962 0.191488
H29   H     H_    0.790441 0.127254 0.435911 0.167365
H30   H     H_    0.796590 0.124557 0.329957 0.188431
H31   H     H_    0.279187 0.114809 0.325223 0.198799
H32   H     H_    0.259371 0.185775 0.340019 0.173220
H33   H     H_    0.210643 0.132954 0.330630 0.173963
H34   H     H_    0.889829 0.272585 0.323779 0.213624
H35   H     H_    0.627136 0.701649 0.670334 0.178863
H36   H     H_    0.610128 0.772516 0.676145 0.213629
H37   H     H_    0.678613 0.751420 0.659665 0.161990
H38   H     H_    0.720725 0.885125 0.325116 0.198844
H39   H     H_    0.740514 0.814148 0.339880 0.173202
H40   H     H_    0.789263 0.866947 0.330463 0.173948
H41   H     H_    0.389840 0.227427 0.676205 0.213619
H42   H     H_    0.321342 0.248499 0.659779 0.161967
H43   H     H_    0.372804 0.298288 0.670432 0.178858
H44   H     H_    0.232907 0.540279 0.471587 0.179105
H45   H     H_    0.821331 0.251516 0.340209 0.161963
H46   H     H_    0.166858 0.514932 0.447394 0.121735
H47   H     H_    0.207344 0.480457 0.518794 0.181735
H48   H     H_    0.965095 0.261440 0.525037 0.175557
H49   H     H_    0.987892 0.330110 0.549498 0.172363
H50   H     H_    0.021537 0.290410 0.476079 0.175018
H51   H     H_    0.767090 0.459754 0.471583 0.179158
H52   H     H_    0.833146 0.485077 0.447378 0.121727
H53   H     H_    0.792678 0.519569 0.518780 0.181664
H54   H     H_    0.034868 0.738533 0.525048 0.175564
H55   H     H_    0.012071 0.669855 0.549459 0.172310
H56   H     H_    0.872789 0.201725 0.329541 0.178860
H57   H     H_    0.978441 0.709570 0.476041 0.175036
H58   H     H_    0.832786 0.626336 0.290441 0.169316
H59   H     H_    0.858958 0.564037 0.334827 0.104191
H60   H     H_    0.893011 0.596898 0.254648 0.193817
H61   H     H_    0.165315 0.373727 0.733036 0.187867
H62   H     H_    0.102877 0.353003 0.687852 0.162824
H63   H     H_    0.108251 0.415916 0.741539 0.177267
H64   H     H_    0.167141 0.373456 0.290495 0.169258
H65   H     H_    0.141002 0.435808 0.334767 0.104221
H66   H     H_    0.106929 0.402894 0.254652 0.193937
H67   H     H_    0.779208 0.385171 0.674798 0.198810
H68   H     H_    0.834837 0.626602 0.732935 0.187938
H69   H     H_    0.897307 0.647103 0.687643 0.162808
H70   H     H_    0.891813 0.584301 0.741585 0.177453
H71   H     H_    0.667136 0.126546 0.709520 0.169272
H72   H     H_    0.641005 0.064192 0.665238 0.104223
H73   H     H_    0.606924 0.097101 0.745349 0.193928
H74   H     H_    0.334672 0.873714 0.266970 0.187872
H75   H     H_    0.397104 0.852973 0.312159 0.162791
H76   H     H_    0.391748 0.915882 0.258454 0.177295
H77   H     H_    0.332854 0.873489 0.709529 0.169283
H78   H     H_    0.759385 0.314209 0.659992 0.173220
H79   H     H_    0.358992 0.935834 0.665231 0.104211
H80   H     H_    0.393070 0.902930 0.745352 0.193909
H81   H     H_    0.665342 0.126240 0.266963 0.187866
H82   H     H_    0.602910 0.146994 0.312134 0.162814
H83   H     H_    0.608265 0.084072 0.258466 0.177258
H84   H     H_    0.267094 0.040257 0.528466 0.179132
H85   H     H_    0.333149 0.014925 0.552656 0.121753
H86   H     H_    0.292664 0.980434 0.481272 0.181697
H87   H     H_    0.534821 0.761458 0.474950 0.175582
H88   H     H_    0.512046 0.830139 0.450514 0.172355
H89   H     H_    0.710662 0.367033 0.669404 0.173964
H90   H     H_    0.478403 0.790447 0.523944 0.175018
H91   H     H_    0.732911 0.959674 0.528404 0.179091
H92   H     H_    0.666866 0.985027 0.552606 0.121735
H93   H     H_    0.707353 0.019507 0.481215 0.181736
H94   H     H_    0.465096 0.238559 0.474942 0.175567
H95   H     H_    0.487891 0.169888 0.450486 0.172389
H96   H     H_    0.521540 0.209590 0.523899 0.175018
N1    N     N_R   1.000000 0.500000 0.707230 -0.184087
N2    N     N_R   0.000000 0.500000 0.292770 -0.213556
N3    N     N_R   0.500000 0.000000 0.707230 -0.213543
N4    N     N_R   0.500000 0.000000 0.292770 -0.184109
O1    O     O_R   0.055440 0.444550 0.566570 -0.555726
O2    O     O_R   0.444560 0.055450 0.433430 -0.562743
O3    O     O_R   0.444560 0.055450 0.566570 -0.587925
O4    O     O_R   0.555440 0.944550 0.433430 -0.562738
O5    O     O_R   0.444560 0.944550 0.433430 -0.555712
O6    O     O_R   0.555440 0.055450 0.566570 -0.573047
O7    O     O_R   0.555440 0.055450 0.433430 -0.555721
O8    O     O_R   0.444560 0.944550 0.566570 -0.573034
O9    O     O_3   0.250590 0.634373 0.562392 -0.595206
O10   O     O_3   0.872518 0.241682 0.436602 -0.593183
O11   O     O_3   0.749395 0.365657 0.562354 -0.595204
O12   O     O_R   0.944560 0.555450 0.433430 -0.572971
O13   O     O_3   0.127455 0.758330 0.436620 -0.593156
O14   O     O_3   0.825546 0.718226 0.369680 -0.589975
O15   O     O_3   0.227305 0.341419 0.630271 -0.601510
O16   O     O_3   0.174311 0.281603 0.369866 -0.589985
O17   O     O_3   0.772673 0.658575 0.630223 -0.601499
O18   O     O_3   0.674318 0.218391 0.630141 -0.589996
O19   O     O_3   0.272682 0.841433 0.369745 -0.601519
O20   O     O_3   0.325653 0.781642 0.630175 -0.589995
O21   O     O_3   0.727312 0.158570 0.369739 -0.601513
O22   O     O_3   0.249388 0.134337 0.437670 -0.595200
O23   O     O_R   0.944560 0.555450 0.566570 -0.555727
O24   O     O_3   0.627397 0.741636 0.563296 -0.593163
O25   O     O_3   0.750557 0.865570 0.437535 -0.595199
O26   O     O_3   0.372524 0.258322 0.563379 -0.593170
O27   O     O_3   0.174719 0.552187 0.558371 -0.553446
O28   O     O_3   0.950192 0.321727 0.440057 -0.532660
O29   O     O_3   0.825282 0.447828 0.558360 -0.553475
O30   O     O_3   0.049798 0.678269 0.440046 -0.532679
O31   O     O_3   0.899833 0.635934 0.362192 -0.518131
O32   O     O_3   0.144031 0.417663 0.632212 -0.570971
O33   O     O_3   0.100092 0.363958 0.362272 -0.518116
O34   O     O_R   0.055440 0.444550 0.433430 -0.573050
O35   O     O_3   0.856018 0.582434 0.632273 -0.570835
O36   O     O_3   0.600093 0.136040 0.637729 -0.518125
O37   O     O_3   0.355972 0.917655 0.367783 -0.570924
O38   O     O_3   0.399896 0.863977 0.637742 -0.518134
O39   O     O_3   0.644039 0.082326 0.367798 -0.570968
O40   O     O_3   0.325275 0.052165 0.441669 -0.553462
O41   O     O_3   0.549769 0.821731 0.559933 -0.532661
O42   O     O_3   0.674720 0.947785 0.441618 -0.553446
O43   O     O_3   0.450196 0.178275 0.559928 -0.532672
O44   O     O_R   0.944560 0.444550 0.433430 -0.587930
O45   O     O_R   0.055440 0.555450 0.566570 -0.562694
O46   O     O_R   0.055440 0.555450 0.433430 -0.587950
O47   O     O_R   0.944560 0.444550 0.566570 -0.562721
O48   O     O_R   0.555440 0.944550 0.566570 -0.587919
Zn1   Zn    Zn3+2 0.000000 0.500000 0.588860 1.085799
Zn2   Zn    Zn3+2 0.000000 0.500000 0.411140 1.053480
Zn3   Zn    Zn3+2 0.500000 0.000000 0.588860 1.053487
Zn4   Zn    Zn3+2 0.500000 0.000000 0.411140 1.085783

loop_
_geom_bond_atom_site_label_1
_geom_bond_atom_site_label_2
_ccdc_geom_bond_type
C26   N3    A    
C68   C80   A    
C112  O11   S    
O12   Zn2   S    
C25   H96   S    
C65   C79   A    
C10   O29   S    
O47   Zn1   S    
C20   H81   S    
C40   C84   A    
C110  Cl16  S    
C35   C36   T    
C102  Cl9   S    
C111  H45   S    
C25   O43   S    
O1    Zn1   S    
C16   O35   S    
C116  H14   S    
C23   H92   S    
C95   C98   T    
C45   C86   A    
C73   O43   S    
C83   C92   S    
C14   H62   S    
C115  H10   S    
C43   C61   A    
C71   O41   S    
C21   H85   S    
C30   C35   S    
C33   O12   A    
C47   C85   A    
C79   C99   S    
C18   H74   S    
C9    H49   S    
C47   O17   S    
C107  Cl14  S    
C16   H70   S    
C111  O10   S    
C13   Cl3   S    
C27   Cl6   S    
C72   C82   A    
C19   O38   S    
C115  O15   S    
C6    H39   S    
C2    C102  A    
C28   C107  A    
C114  O14   S    
C9    O28   S    
C45   C62   A    
C24   Cl4   S    
C113  O13   S    
C7    H41   S    
C7    O26   S    
C109  H1    S    
C19   H80   S    
O23   Zn1   S    
C70   C81   A    
C61   O31   S    
C50   C68   A    
C118  O18   S    
C120  H27   S    
C62   O32   S    
C39   O9    S    
C55   C74   S    
C52   C90   A    
C2    N2    A    
C106  Cl13  S    
N1    Zn1   S    
C29   Cl8   S    
C42   O13   S    
C119  H24   S    
C21   H84   S    
C30   C103  A    
C58   C75   A    
C55   O46   A    
C10   H52   S    
C113  H3    S    
C29   C108  A    
C118  H20   S    
N4    Zn4   S    
C94   C100  T    
C48   C65   A    
C13   C103  A    
O4    Zn4   S    
C31   C36   S    
C19   H79   S    
C110  N1    A    
C120  H26   S    
O7    Zn4   S    
C18   O37   S    
C58   O28   S    
C64   C76   A    
C56   C90   A    
C117  H16   S    
C51   O21   S    
C109  O9    S    
C111  H56   S    
C53   O24   S    
C41   O11   S    
C99   O7    A    
C1    C78   S    
C12   H60   S    
C117  O17   S    
O34   Zn2   S    
C17   O36   S    
C26   C105  A    
C73   C81   A    
C116  H13   S    
C15   H65   S    
C23   O42   S    
C14   O32   S    
C92   C97   T    
C10   H51   S    
C105  Cl12  S    
C2    Cl2   S    
C61   C76   A    
O45   Zn1   S    
C69   O39   S    
C14   H61   S    
C25   H94   S    
C22   O41   S    
C10   H53   S    
C40   C58   A    
C4    H33   S    
C59   O29   S    
C43   C85   A    
C31   C102  A    
C120  H25   S    
C17   H71   S    
C70   O40   S    
C65   O36   S    
C108  Cl15  S    
C53   C71   A    
C9    H50   S    
C21   H86   S    
C51   C87   A    
C88   O5    A    
O48   Zn3   S    
C1    O34   A    
C6    H38   S    
C27   C106  A    
C1    O1    A    
C101  C110  A    
C3    O21   S    
C41   C84   A    
C22   H88   S    
C104  Cl11  S    
C5    O24   S    
C101  Cl1   S    
C4    H32   S    
C7    H42   S    
C89   C97   S    
C19   H77   S    
C26   Cl5   S    
C34   C106  A    
C57   C74   A    
C67   O37   S    
C44   C75   S    
C56   O26   S    
C120  O20   S    
C29   N4    A    
C53   C91   A    
C37   C38   T    
C64   O35   S    
C77   O3    A    
C112  H89   S    
C66   C82   S    
C85   C94   S    
C8    H44   S    
C50   C89   A    
N3    Zn3   S    
C77   C81   S    
C18   H76   S    
C119  H21   S    
C52   O22   S    
C87   C96   S    
C33   O23   A    
C52   C70   A    
C5    H35   S    
C113  H4    S    
C7    H43   S    
C118  H19   S    
C117  H15   S    
C32   C37   S    
C8    O27   S    
C66   O48   A    
C72   O42   S    
C46   O16   S    
C23   H93   S    
C57   O27   S    
C3    H28   S    
C16   H68   S    
C27   N4    A    
C8    H47   S    
O46   Zn2   S    
C93   C96   T    
C112  H78   S    
C32   C105  A    
C117  H17   S    
C77   O2    A    
C91   C100  S    
C48   C87   A    
C20   H83   S    
C69   C79   A    
C109  H12   S    
C42   C60   A    
C109  H23   S    
C21   O40   S    
C59   C75   A    
C47   C64   A    
C15   H66   S    
O2    Zn4   S    
C3    H29   S    
C13   N1    A    
C22   H87   S    
C8    H46   S    
C114  H6    S    
C24   N2    A    
O3    Zn3   S    
C115  H8    S    
C25   H95   S    
C4    O22   S    
C56   C73   A    
C49   C67   A    
C66   O4    A    
C34   C38   S    
C54   O25   S    
C5    H37   S    
C62   C78   A    
C17   H72   S    
C67   C80   A    
C11   H57   S    
C49   C89   A    
C119  O19   S    
C88   O8    A    
C116  H11   S    
C40   O10   S    
C28   Cl7   S    
C22   H90   S    
C16   H69   S    
C116  O16   S    
C14   H63   S    
C115  H9    S    
C17   H73   S    
C4    H31   S    
C46   C63   A    
C111  H34   S    
C34   C108  A    
C23   H91   S    
C11   H54   S    
C99   O6    A    
C18   H75   S    
C42   C83   A    
C20   O39   S    
C39   C83   A    
C54   C91   A    
C80   C88   S    
C9    H48   S    
N2    Zn2   S    
C114  H7    S    
C20   H82   S    
C15   H64   S    
C32   C107  A    
C43   O14   S    
C54   C72   A    
C44   O44   A    
C6    H40   S    
C119  H22   S    
C49   O19   S    
C30   C101  A    
C60   C74   A    
C71   C82   A    
C12   H59   S    
C11   O30   S    
C118  H18   S    
C6    O25   S    
C11   H55   S    
C84   C93   S    
O5    Zn4   S    
C63   O33   S    
C60   O30   S    
C103  Cl10  S    
O44   Zn2   S    
O6    Zn3   S    
C12   O31   S    
C50   O20   S    
C86   C95   S    
C28   N3    A    
C31   C104  A    
C33   C76   S    
C68   O38   S    
C44   O47   A    
O8    Zn3   S    
C41   C59   A    
C55   O45   A    
C5    H36   S    
C113  H2    S    
C51   C69   A    
C112  H67   S    
C24   C104  A    
C114  H5    S    
C15   O33   S    
C48   O18   S    
C90   C98   S    
C45   O15   S    
C3    H30   S    
C12   H58   S    
C46   C86   A    
C63   C78   A    
C39   C57   A    
