data_mof_unit_29197.cif
_audit_creation_date              2012-12-11T14:52:49-0500
_audit_creation_method            fapswitch 2.2
_symmetry_space_group_name_H-M    P1
_symmetry_Int_Tables_number       1
_space_group_crystal_system       triclinic
_cell_length_a                    20.621442
_cell_length_b                    7.260672
_cell_length_c                    20.316542
_cell_angle_alpha                 89.996222
_cell_angle_beta                  101.523904
_cell_angle_gamma                 89.997195
_cell_volume                      2980.58451943

loop_
_atom_site_label
_atom_site_type_symbol
_atom_type_description
_atom_site_fract_x
_atom_site_fract_y
_atom_site_fract_z
_atom_type_partial_charge
O1    O     O_R   0.673670 0.377510 0.185950 -0.545257
O2    O     O_R   0.326330 0.622490 0.814050 -0.545237
O3    O     O_R   0.826330 0.877510 0.314050 -0.545237
O4    O     O_R   0.173670 0.122490 0.685950 -0.545238
O5    O     O_R   0.806260 0.705340 0.185590 -0.519610
O6    O     O_R   0.193740 0.294660 0.814410 -0.519614
O7    O     O_R   0.693740 0.205340 0.314410 -0.519719
O8    O     O_R   0.306260 0.794660 0.685590 -0.519705
C1    C     C_R   0.825601 0.539061 0.170875 0.711877
C2    C     C_R   0.174399 0.460939 0.829125 0.711868
C3    C     C_R   0.674399 0.039059 0.329125 0.711777
C4    C     C_R   0.325601 0.960940 0.670875 0.711789
O9    O     O_R   0.672940 0.707120 0.178050 -0.518438
O10   O     O_R   0.327060 0.292880 0.821950 -0.518445
O11   O     O_R   0.827060 0.207120 0.321950 -0.518386
O12   O     O_R   0.172940 0.792880 0.678050 -0.518389
O13   O     O_R   0.692060 0.879040 0.306460 -0.530080
O14   O     O_R   0.307940 0.120960 0.693540 -0.530082
O15   O     O_R   0.807940 0.379040 0.193540 -0.530242
O16   O     O_R   0.192060 0.620960 0.806460 -0.530243
C5    C     C_R   0.649293 0.538497 0.160872 0.823985
C6    C     C_R   0.350707 0.461503 0.839128 0.824027
C7    C     C_R   0.850708 0.038481 0.339129 0.823566
C8    C     C_R   0.149292 0.961519 0.660871 0.823557
O17   O     O_3   0.756430 0.544390 0.292140 -0.373634
O18   O     O_3   0.243570 0.455610 0.707860 -0.373630
O19   O     O_3   0.743570 0.044390 0.207860 -0.373722
O20   O     O_3   0.256430 0.955610 0.792140 -0.373724
V1    V     V_3+5 0.748810 0.818610 0.242180 1.646679
V2    V     V_3+5 0.251190 0.181390 0.757820 1.646682
V3    V     V_3+5 0.751190 0.318610 0.257820 1.646505
V4    V     V_3+5 0.248810 0.681390 0.742180 1.646544
C9    C     C_R   0.086604 0.972905 0.609737 -0.130855
C10   C     C_R   0.913395 0.027095 0.390263 -0.130857
C11   C     C_R   0.413389 0.472788 0.890269 -0.130901
C12   C     C_R   0.586615 0.527213 0.109725 -0.130887
C13   C     C_R   0.031618 0.957219 0.420659 -0.101350
C14   C     C_R   0.968382 0.042781 0.579340 -0.101351
C15   C     C_R   0.468254 0.459143 0.079389 -0.101111
C16   C     C_R   0.531748 0.540892 0.920604 -0.101097
C17   C     C_R   0.972409 0.968192 0.371488 -0.173062
C18   C     C_R   0.027591 0.031808 0.628512 -0.173062
C19   C     C_R   0.527470 0.469716 0.128569 -0.173167
C20   C     C_R   0.472533 0.530271 0.871422 -0.173196
C21   C     C_R   0.913806 0.071741 0.457871 0.328277
C22   C     C_R   0.086193 0.928260 0.542129 0.328277
C23   C     C_R   0.586334 0.570727 0.042044 0.328203
C24   C     C_R   0.413671 0.429298 0.957951 0.328229
C25   C     C_R   0.970022 0.028754 0.509461 0.017186
C26   C     C_R   0.029978 0.971247 0.490539 0.017187
C27   C     C_R   0.530049 0.528017 0.990502 0.017143
C28   C     C_R   0.469956 0.472016 0.009491 0.017163
C29   C     C_3   0.552659 0.095839 0.531521 -0.275667
C30   C     C_3   0.447341 0.904161 0.468479 -0.275666
C31   C     C_3   0.947345 0.595886 0.968482 -0.275681
C32   C     C_3   0.052655 0.404114 0.031518 -0.275680
C33   C     C_3   0.529062 0.910526 0.555836 0.326979
C34   C     C_3   0.470938 0.089473 0.444164 0.326979
C35   C     C_3   0.970936 0.410575 0.944160 0.326936
C36   C     C_3   0.029064 0.589425 0.055840 0.326936
C37   C     C_1   0.371099 0.966841 0.625047 -0.046225
C38   C     C_1   0.628901 0.033159 0.374953 -0.046232
C39   C     C_1   0.128901 0.466837 0.874953 -0.046113
C40   C     C_1   0.871099 0.533163 0.125046 -0.046115
C41   C     C_3   0.480345 0.165854 0.516650 0.356353
C42   C     C_3   0.519655 0.834146 0.483350 0.356358
C43   C     C_3   0.019662 0.665854 0.983356 0.356320
C44   C     C_3   0.980338 0.334146 0.016644 0.356320
C45   C     C_3   0.456786 0.980554 0.540861 -0.124396
C46   C     C_3   0.543214 0.019446 0.459139 -0.124395
C47   C     C_3   0.043214 0.480555 0.959139 -0.124398
C48   C     C_3   0.956785 0.519445 0.040861 -0.124398
C49   C     C_1   0.409566 0.970698 0.587002 0.237341
C50   C     C_1   0.590434 0.029302 0.412998 0.237344
C51   C     C_1   0.090435 0.470696 0.912998 0.237387
C52   C     C_1   0.909565 0.529304 0.087001 0.237387
Cl1   Cl    Cl    0.154668 0.799620 0.525957 -0.574843
Cl2   Cl    Cl    0.845332 0.200381 0.474043 -0.574841
Cl3   Cl    Cl    0.344910 0.302279 0.974299 -0.574626
Cl4   Cl    Cl    0.655098 0.697742 0.025705 -0.574660
C53   C     C_2   0.025880 0.070371 0.700413 0.393262
H1    H     H_    0.993061 0.175401 0.713082 0.077613
O21   O     O_2   0.059771 0.983033 0.746053 -0.504356
C54   C     C_2   0.974120 0.929629 0.299587 0.393262
H2    H     H_    0.006940 0.824602 0.286917 0.077613
O22   O     O_2   0.940228 0.016964 0.253947 -0.504356
C55   C     C_2   0.474350 0.567749 0.799468 0.392687
H3    H     H_    0.507487 0.671686 0.786662 0.078369
O23   O     O_2   0.440181 0.480723 0.753932 -0.504531
C56   C     C_2   0.525655 0.432169 0.200520 0.392626
H4    H     H_    0.492552 0.328058 0.213322 0.078347
O24   O     O_2   0.559784 0.519323 0.246054 -0.504494
C57   C     C_2   0.095130 0.961875 0.396753 0.586271
H5    H     H_    0.105026 0.863798 0.359756 0.054404
O25   O     O_2   0.136153 0.080893 0.416901 -0.461602
C58   C     C_2   0.904870 0.038127 0.603247 0.586273
H6    H     H_    0.894974 0.136204 0.640244 0.054404
O26   O     O_2   0.863847 0.919109 0.583099 -0.461601
C59   C     C_2   0.404730 0.465536 0.103249 0.585940
H7    H     H_    0.394594 0.368313 0.140416 0.054473
O27   O     O_2   0.363974 0.585067 0.082861 -0.461656
C60   C     C_2   0.595274 0.534601 0.896747 0.585844
H8    H     H_    0.605421 0.631955 0.859627 0.054537
O28   O     O_2   0.636021 0.415034 0.917090 -0.461662
Cl5   Cl    Cl    0.567402 0.788572 0.629493 -0.526057
Cl6   Cl    Cl    0.432598 0.211428 0.370508 -0.526040
Cl7   Cl    Cl    0.932593 0.288686 0.870498 -0.525759
Cl8   Cl    Cl    0.067406 0.711314 0.129502 -0.525762
C61   C     C_2   0.610140 0.204961 0.568471 0.704792
H9    H     H_    0.610262 0.252158 0.619137 0.082033
O29   O     O_2   0.656735 0.241494 0.542037 -0.464852
C62   C     C_2   0.389860 0.795039 0.431529 0.704791
H10   H     H_    0.389738 0.747842 0.380863 0.082037
O30   O     O_2   0.343265 0.758506 0.457964 -0.464853
C63   C     C_2   0.889868 0.705056 0.931534 0.704811
H11   H     H_    0.889750 0.752291 0.880872 0.082103
O31   O     O_2   0.843272 0.741586 0.957968 -0.464772
C64   C     C_2   0.110132 0.294943 0.068465 0.704807
H12   H     H_    0.110249 0.247709 0.119128 0.082103
O32   O     O_2   0.156728 0.258413 0.042032 -0.464773
Cl9   Cl    Cl    0.548323 0.617336 0.459302 -0.476534
Cl10  Cl    Cl    0.451677 0.382663 0.540698 -0.476539
Cl11  Cl    Cl    0.951661 0.117337 0.040681 -0.476449
Cl12  Cl    Cl    0.048338 0.882663 0.959318 -0.476448

loop_
_geom_bond_atom_site_label_1
_geom_bond_atom_site_label_2
_ccdc_geom_bond_type
O17   V3    S    
C33   Cl5   S    
C55   H3    S    
O1    C5    A    
C57   H5    S    
C4    C37   S    
C31   C35   S    
O19   V1    S    
C1    C40   S    
O13   V1    S    
O3    C7    A    
C2    C39   S    
C33   C42   S    
C48   C52   S    
C3    C38   S    
O15   V3    S    
C43   Cl12  S    
C62   O30   D    
C53   H1    S    
C5    C12   S    
O7    C3    A    
C6    C11   S    
C10   C17   A    
C31   C63   S    
C9    C18   A    
C24   Cl3   S    
O9    V1    S    
C54   O22   D    
C14   C18   A    
C61   O29   D    
C30   C34   S    
O4    C8    A    
C36   C48   S    
C63   H11   S    
O1    V3    S    
C31   C43   S    
C12   C23   A    
O2    V4    S    
O3    V1    S    
C64   H12   S    
C15   C59   S    
C1    O15   A    
C36   C43   S    
C2    O16   A    
C63   O31   D    
C58   O26   D    
C46   C50   S    
C45   C49   S    
C21   Cl2   S    
O14   V2    S    
C20   C55   S    
C29   C41   S    
C16   C20   A    
C31   C48   S    
C36   Cl8   S    
C44   C48   S    
C32   C47   S    
O11   C7    A    
C15   C28   A    
O12   C8    A    
C9    C22   A    
C18   C53   S    
C23   Cl4   S    
O10   V2    S    
C29   C46   S    
C44   Cl11  S    
C62   H10   S    
C53   O21   D    
O5    V1    S    
C19   C56   S    
O7    V3    S    
C30   C62   S    
C27   C28   A    
O8    V4    S    
C54   H2    S    
C14   C25   A    
C29   C33   S    
O18   V4    S    
C34   C46   S    
C15   C19   A    
C37   C49   T    
C32   C44   S    
C17   C54   S    
C35   Cl7   S    
C32   C36   S    
C34   Cl6   S    
O5    C1    A    
C35   C44   S    
C34   C41   S    
C56   O24   D    
C59   H7    S    
C21   C25   A    
O8    C4    A    
C7    C10   S    
C58   H6    S    
C40   C52   T    
C42   Cl9   S    
C13   C57   S    
C10   C21   A    
C41   Cl10  S    
C60   O28   D    
C11   C20   A    
C59   O27   D    
C55   O23   D    
C14   C58   S    
O16   V4    S    
C29   C61   S    
C3    O13   A    
O6    V2    S    
C32   C64   S    
O6    C2    A    
C22   Cl1   S    
C23   C27   A    
O11   V3    S    
C30   C42   S    
O12   V4    S    
C16   C27   A    
C22   C26   A    
C8    C9    S    
O10   C6    A    
O20   V2    S    
O2    C6    A    
O9    C5    A    
C47   C51   S    
C13   C26   A    
C56   H4    S    
C42   C46   S    
C30   C45   S    
C39   C51   T    
C41   C45   S    
C43   C47   S    
C13   C17   A    
C60   H8    S    
C64   O32   D    
C11   C24   A    
C16   C60   S    
C24   C28   A    
C57   O25   D    
C25   C26   A    
C4    O14   A    
C38   C50   T    
C12   C19   A    
C33   C45   S    
C61   H9    S    
O4    V2    S    
C35   C47   S    
