data_mof_unit_51083.cif
_audit_creation_date              2012-12-11T14:07:46-0500
_audit_creation_method            fapswitch 2.2
_symmetry_space_group_name_H-M    P1
_symmetry_Int_Tables_number       1
_space_group_crystal_system       monoclinic
_cell_length_a                    19.708333
_cell_length_b                    17.049771
_cell_length_c                    15.354796
_cell_angle_alpha                 90.0
_cell_angle_beta                  53.433542
_cell_angle_gamma                 90.0
_cell_volume                      4143.98345641

loop_
_atom_site_label
_atom_site_type_symbol
_atom_type_description
_atom_site_fract_x
_atom_site_fract_y
_atom_site_fract_z
_atom_type_partial_charge
C1    C     C_R   0.375632 0.197805 0.995062 -0.104712
C2    C     C_R   0.648737 0.815208 0.075583 -0.046653
C3    C     C_R   0.148737 0.684792 0.075583 -0.046653
C4    C     C_R   0.212964 0.355536 0.976000 -0.073170
C5    C     C_R   0.690956 0.860929 0.677413 0.036139
C6    C     C_R   0.601378 0.187594 0.702195 0.036413
C7    C     C_R   0.101377 0.312406 0.702195 0.036415
C8    C     C_R   0.190956 0.639071 0.677413 0.036138
C9    C     C_3   0.200673 0.127904 0.524096 -0.620908
C10   C     C_3   0.256421 0.807024 0.480571 -0.531669
C11   C     C_3   0.756421 0.692976 0.480572 -0.531674
C12   C     C_R   0.340526 0.824742 0.049492 -0.045952
C13   C     C_3   0.700677 0.372096 0.524097 -0.620919
C14   C     C_3   0.139936 0.175044 0.628795 0.756857
C15   C     C_3   0.205570 0.763137 0.587756 0.702370
C16   C     C_3   0.705570 0.736863 0.587756 0.702372
C17   C     C_3   0.639938 0.324956 0.628796 0.756859
C18   C     C_3   0.303911 0.242465 0.439078 1.158183
C19   C     C_3   0.389147 0.754767 0.453547 1.138577
C20   C     C_3   0.889147 0.745233 0.453547 1.138578
C21   C     C_3   0.803910 0.257533 0.439075 1.158180
C22   C     C_3   0.827291 0.816063 0.371733 -0.666184
C23   C     C_R   0.840526 0.675258 0.049492 -0.045952
C24   C     C_3   0.684266 0.270162 0.420551 -0.605636
C25   C     C_3   0.184269 0.229841 0.420549 -0.605646
C26   C     C_3   0.327292 0.683937 0.371733 -0.666184
C27   C     C_3   0.250461 0.184031 0.424506 -0.260691
C28   C     C_3   0.342903 0.765924 0.399864 -0.275697
C29   C     C_3   0.842903 0.734076 0.399864 -0.275696
C30   C     C_3   0.750461 0.315969 0.424506 -0.260691
C31   C     C_3   0.748847 0.816744 0.575630 -0.555095
C32   C     C_3   0.652296 0.235606 0.602724 -0.547278
C33   C     C_3   0.152296 0.264394 0.602724 -0.547280
C34   C     C_R   0.875633 0.302195 0.995061 -0.104712
C35   C     C_3   0.248847 0.683256 0.575630 -0.555094
C36   C     C_3   0.835871 0.800775 0.553413 1.035866
C37   C     C_3   0.746752 0.213862 0.547375 0.976025
C38   C     C_3   0.246752 0.286137 0.547376 0.976024
C39   C     C_3   0.335871 0.699225 0.553413 1.035865
C40   C     C_R   0.400283 0.800823 0.207235 -0.136807
C41   C     C_R   0.350989 0.173065 0.219813 -0.044884
C42   C     C_R   0.850989 0.326935 0.219813 -0.044886
C43   C     C_R   0.900283 0.699177 0.207235 -0.136807
C44   C     C_3   0.765172 0.861031 0.475268 0.777065
C45   C     C_R   0.632135 0.893986 0.106872 -0.026990
C46   C     C_3   0.630811 0.218074 0.521827 0.772322
C47   C     C_3   0.130812 0.281928 0.521826 0.772325
C48   C     C_3   0.265173 0.638968 0.475268 0.777066
C49   C     C_2   0.185703 0.742951 0.105358 0.811835
C50   C     C_2   0.289816 0.319233 0.949892 0.768300
C51   C     C_2   0.789815 0.180766 0.949894 0.768288
C52   C     C_2   0.685703 0.757049 0.105358 0.811837
C53   C     C_2   0.812479 0.251935 0.902744 -0.257656
C54   C     C_2   0.712354 0.688135 0.051646 -0.355406
C55   C     C_2   0.212354 0.811865 0.051646 -0.355403
C56   C     C_R   0.671149 0.080948 0.046749 0.000447
C57   C     C_2   0.312477 0.248063 0.902746 -0.257660
C58   C     C_R   0.329007 0.913072 0.953027 -0.075257
C59   C     C_R   0.366448 0.112051 0.895607 -0.120028
C60   C     C_R   0.866449 0.387949 0.895606 -0.120025
C61   C     C_R   0.829007 0.586928 0.953027 -0.075257
C62   C     C_R   0.359316 0.079523 0.315260 -0.029693
C63   C     C_R   0.407579 0.892714 0.303704 -0.153008
C64   C     C_R   0.907579 0.607286 0.303704 -0.153008
C65   C     C_R   0.859316 0.420477 0.315260 -0.029693
C66   C     C_R   0.349104 0.188759 0.931101 0.158339
C67   C     C_R   0.171150 0.419052 0.046749 0.000446
C68   C     C_R   0.287194 0.851648 0.026319 0.160680
C69   C     C_R   0.787194 0.648352 0.026319 0.160681
C70   C     C_R   0.849104 0.311240 0.931101 0.158330
C71   C     C_R   0.389464 0.815364 0.303100 0.305618
C72   C     C_R   0.309884 0.140636 0.322860 0.204777
C73   C     C_R   0.809884 0.359364 0.322860 0.204778
C74   C     C_R   0.889463 0.684635 0.303100 0.305619
C75   C     C_R   0.661458 0.176367 0.951407 -0.120085
C76   C     C_R   0.622245 0.799826 0.012482 -0.157694
C77   C     C_R   0.122245 0.700174 0.012482 -0.157693
C78   C     C_R   0.132135 0.606014 0.106872 -0.026990
C79   C     C_R   0.161459 0.323633 0.951405 -0.120088
C80   C     C_R   0.650090 0.828230 0.780445 -0.145459
C81   C     C_R   0.598058 0.199804 0.793413 -0.149318
C82   C     C_R   0.098058 0.300196 0.793413 -0.149316
C83   C     C_R   0.150090 0.671770 0.780445 -0.145458
C84   C     C_R   0.584108 0.109433 0.702309 0.902703
C85   C     C_R   0.642871 0.923727 0.686709 0.870202
C86   C     C_R   0.142871 0.576273 0.686709 0.870202
C87   C     C_R   0.084108 0.390567 0.702309 0.902698
C88   C     C_R   0.712963 0.144464 0.976001 -0.073172
F1    F     F_    0.623411 0.747340 0.621042 -0.585652
F2    F     F_    0.769303 0.233829 0.614741 -0.644492
F3    F     F_    0.269301 0.266171 0.614744 -0.644491
F4    F     F_    0.324751 0.733405 0.643105 -0.642012
F5    F     F_    0.690755 0.868550 0.484659 -0.536159
F6    F     F_    0.545560 0.229626 0.570552 -0.552178
F7    F     F_    0.045562 0.270375 0.570549 -0.552178
F8    F     F_    0.190756 0.631449 0.484658 -0.536161
F9    F     F_    0.343684 0.296227 0.354434 -0.654335
F10   F     F_    0.468923 0.723378 0.378857 -0.628134
F11   F     F_    0.968923 0.776623 0.378856 -0.628136
F12   F     F_    0.557060 0.346929 0.676015 -0.586629
F13   F     F_    0.843679 0.203770 0.354433 -0.654337
F14   F     F_    0.878111 0.871215 0.533416 -0.617925
F15   F     F_    0.759010 0.133571 0.528977 -0.618456
F16   F     F_    0.259012 0.366428 0.528977 -0.618458
F17   F     F_    0.378112 0.628786 0.533416 -0.617926
F18   F     F_    0.203738 0.720616 0.174468 -0.672478
F19   F     F_    0.326158 0.352085 0.993452 -0.693504
F20   F     F_    0.826158 0.147913 0.993455 -0.693498
F21   F     F_    0.703738 0.779384 0.174468 -0.672478
F22   F     F_    0.553948 0.078742 0.650021 -0.633118
F23   F     F_    0.057058 0.153072 0.676016 -0.586629
F24   F     F_    0.661041 0.975124 0.608730 -0.628869
F25   F     F_    0.161041 0.524876 0.608730 -0.628871
F26   F     F_    0.053947 0.421258 0.650022 -0.633119
F27   F     F_    0.123411 0.752659 0.621042 -0.585652
F28   F     F_    0.366485 0.202688 0.436777 -0.631883
F29   F     F_    0.399158 0.826423 0.487348 -0.657799
F30   F     F_    0.899159 0.673578 0.487346 -0.657798
F31   F     F_    0.866488 0.297307 0.436770 -0.631880
F32   F     F_    0.824752 0.766595 0.643105 -0.642012
H1    H     H_    0.384438 0.251698 0.023659 0.192728
H2    H     H_    0.202464 0.800014 0.649859 0.066166
H3    H     H_    0.702464 0.699986 0.649860 0.066166
H4    H     H_    0.654181 0.340052 0.686716 0.061817
H5    H     H_    0.887816 0.848968 0.319859 0.212671
H6    H     H_    0.714639 0.231945 0.347884 0.194681
H7    H     H_    0.214643 0.268060 0.347882 0.194681
H8    H     H_    0.387818 0.651031 0.319859 0.212671
H9    H     H_    0.799799 0.811678 0.326253 0.277997
H10   H     H_    0.643135 0.312131 0.416155 0.280087
H11   H     H_    0.143139 0.187874 0.416148 0.280086
H12   H     H_    0.333297 0.774933 0.097272 0.175547
H13   H     H_    0.299800 0.688320 0.326252 0.277996
H14   H     H_    0.792086 0.920279 0.467026 0.154021
H15   H     H_    0.646310 0.156128 0.494153 0.140417
H16   H     H_    0.146311 0.343874 0.494154 0.140417
H17   H     H_    0.292087 0.579720 0.467026 0.154020
H18   H     H_    0.402252 0.744612 0.173313 0.117466
H19   H     H_    0.333751 0.225050 0.197317 0.134303
H20   H     H_    0.833751 0.274950 0.197317 0.134307
H21   H     H_    0.902252 0.755388 0.173313 0.117466
H22   H     H_    0.789170 0.273961 0.858981 0.125604
H23   H     H_    0.833297 0.725067 0.097272 0.175546
H24   H     H_    0.691623 0.667950 0.004222 0.115504
H25   H     H_    0.191623 0.832050 0.004223 0.115503
H26   H     H_    0.289166 0.226035 0.858987 0.125600
H27   H     H_    0.307431 0.947124 0.914418 0.123076
H28   H     H_    0.362839 0.086523 0.833970 0.164950
H29   H     H_    0.862840 0.413477 0.833969 0.164950
H30   H     H_    0.807431 0.552876 0.914418 0.123076
H31   H     H_    0.350199 0.043951 0.379473 0.119499
H32   H     H_    0.412161 0.922836 0.361883 0.183555
H33   H     H_    0.912161 0.577164 0.361883 0.183554
H34   H     H_    0.884439 0.248302 0.023658 0.192728
H35   H     H_    0.850200 0.456049 0.379473 0.119496
H36   H     H_    0.672643 0.226095 0.901090 0.128546
H37   H     H_    0.613365 0.743584 0.988303 0.110018
H38   H     H_    0.113365 0.756415 0.988303 0.110018
H39   H     H_    0.172643 0.273906 0.901087 0.128550
H40   H     H_    0.668101 0.776524 0.802826 0.179836
H41   H     H_    0.601611 0.255342 0.824292 0.149278
H42   H     H_    0.101611 0.244658 0.824291 0.149279
H43   H     H_    0.168101 0.723476 0.802826 0.179837
H44   H     H_    0.635441 0.920736 0.168118 0.158856
H45   H     H_    0.165040 0.083882 0.512422 0.267453
H46   H     H_    0.693507 0.045931 0.083570 0.146598
H47   H     H_    0.193508 0.454069 0.083570 0.146597
H48   H     H_    0.135441 0.579264 0.168118 0.158856
H49   H     H_    0.244344 0.095139 0.534067 0.187952
H50   H     H_    0.264390 0.868743 0.496694 0.173183
H51   H     H_    0.764392 0.631257 0.496694 0.173184
H52   H     H_    0.744349 0.404857 0.534067 0.187954
H53   H     H_    0.220723 0.809106 0.445358 0.284258
H54   H     H_    0.720723 0.690893 0.445359 0.284258
H55   H     H_    0.665045 0.416120 0.512424 0.267452
H56   H     H_    0.154181 0.159947 0.686715 0.061817
N1    N     N_R   0.408680 0.130160 0.995800 -0.078830
N2    N     N_R   0.403730 0.078230 0.935950 -0.069943
N3    N     N_R   0.903730 0.421770 0.935950 -0.069942
N4    N     N_R   0.903730 0.578230 0.935950 -0.050140
N5    N     N_R   0.426630 0.075970 0.212960 -0.055960
N6    N     N_R   0.426630 0.924030 0.212960 -0.068392
N7    N     N_R   0.926630 0.575970 0.212960 -0.068392
N8    N     N_R   0.926630 0.424030 0.212960 -0.055960
N9    N     N_R   0.591320 0.134600 0.004200 -0.035264
N10   N     N_R   0.591320 0.865400 0.004200 -0.035767
N11   N     N_R   0.091320 0.634600 0.004200 -0.035767
N12   N     N_R   0.408680 0.869840 0.995800 -0.068416
N13   N     N_R   0.091320 0.365400 0.004200 -0.035264
N14   N     N_R   0.578320 0.867660 0.846880 -0.096758
N15   N     N_R   0.578320 0.132340 0.846880 -0.099486
N16   N     N_R   0.078320 0.367660 0.846880 -0.099486
N17   N     N_R   0.078320 0.632340 0.846880 -0.096758
N18   N     N_R   0.573370 0.074390 0.787040 -0.139537
N19   N     N_R   0.573370 0.925610 0.787040 -0.126893
N20   N     N_R   0.073370 0.574390 0.787040 -0.126892
N21   N     N_R   0.073370 0.425610 0.787040 -0.139537
N22   N     N_R   0.596270 0.927870 0.064040 -0.062470
N23   N     N_R   0.908680 0.630160 0.995800 -0.068416
N24   N     N_R   0.596270 0.072130 0.064040 -0.057731
N25   N     N_R   0.096270 0.427870 0.064040 -0.057731
N26   N     N_R   0.096270 0.572130 0.064040 -0.062470
N27   N     N_R   0.908680 0.369840 0.995800 -0.078830
N28   N     N_R   0.421680 0.867580 0.153120 -0.059447
N29   N     N_R   0.421680 0.132420 0.153120 -0.059387
N30   N     N_R   0.921680 0.367580 0.153120 -0.059387
N31   N     N_R   0.921680 0.632420 0.153120 -0.059447
N32   N     N_R   0.403730 0.921770 0.935950 -0.050140
Ni1   Ni    Ni4+2 0.500000 0.131190 0.000000 0.240120
Ni2   Ni    Ni4+2 0.500000 0.868810 0.000000 0.228698
Ni3   Ni    Ni4+2 0.000000 0.631190 0.000000 0.228698
Ni4   Ni    Ni4+2 1.000000 0.368810 0.000000 0.240120
Ni5   Ni    Ni4+2 0.488650 0.000000 0.862740 0.329226
Ni6   Ni    Ni4+2 0.988650 0.500000 0.862740 0.329226
Ni7   Ni    Ni4+2 0.511350 0.000000 0.137260 0.257169
Ni8   Ni    Ni4+2 0.011350 0.500000 0.137260 0.257169

loop_
_geom_bond_atom_site_label_1
_geom_bond_atom_site_label_2
_ccdc_geom_bond_type
C54   H24   S    
C11   H51   S    
N32   Ni5   S    
C40   C71   A    
C47   H16   S    
C8    C83   A    
N7    N31   A    
C23   C69   A    
C9    H49   S    
C57   C66   S    
C85   F24   S    
C78   H48   S    
C47   F7    S    
N18   Ni5   S    
C20   F30   S    
C55   C68   S    
C3    C49   S    
N8    N30   A    
C16   C31   S    
C12   C68   A    
N11   N26   A    
C20   F11   S    
C48   H17   S    
C86   F25   S    
N6    N28   A    
C19   C39   S    
C22   C29   S    
C45   H44   S    
C10   C15   S    
C59   C66   A    
C79   H39   S    
C55   H25   S    
C53   C70   S    
C15   H2    S    
C61   C69   A    
C12   N12   A    
C23   N23   A    
N24   Ni7   S    
C65   C73   A    
C36   F14   S    
C53   H22   S    
N1    Ni1   S    
N16   Ni4   S    
C81   N15   A    
C87   F26   S    
C38   F16   S    
C44   F5    S    
N5    N29   A    
C86   N20   A    
C46   H15   S    
C64   N7    A    
N12   Ni2   S    
C75   H36   S    
C13   H52   S    
C7    C87   A    
C40   N28   A    
C84   N18   A    
C51   F20   S    
C42   C73   A    
C40   H18   S    
C14   H56   S    
C18   F9    S    
C60   C70   A    
C48   F8    S    
C61   H30   S    
C25   C47   S    
C8    C86   A    
C26   C48   S    
C77   H38   S    
C82   N16   A    
C59   H28   S    
C43   C74   A    
C16   F1    S    
C63   N6    A    
C57   H26   S    
N31   Ni3   S    
C7    C33   S    
C23   H23   S    
N29   Ni1   S    
C75   N9    A    
C80   N14   A    
C14   C33   S    
N22   Ni7   S    
C15   C35   S    
C19   F10   S    
C52   C54   D    
C24   C30   S    
C20   C29   S    
C34   H34   S    
C2    C45   A    
C44   H14   S    
C14   F23   S    
C6    C32   S    
C22   C44   S    
C76   H37   S    
C6    C84   A    
C62   H31   S    
C25   H7    S    
C42   H20   S    
C41   N29   A    
C13   C30   S    
C4    C79   A    
C31   C44   S    
C18   F28   S    
C37   F15   S    
C30   C73   S    
C58   H27   S    
C85   N19   A    
C22   H5    S    
C29   C74   S    
C82   H42   S    
N8    Ni8   S    
N13   N25   A    
C45   N22   A    
N16   N21   A    
C43   N31   A    
C64   H33   S    
C84   F22   S    
C4    C50   S    
C60   N3    A    
C8    C35   S    
C83   N17   A    
C35   C39   S    
C9    C14   S    
N25   Ni8   S    
C67   N25   A    
C24   H10   S    
N20   Ni6   S    
C11   C16   S    
C17   H4    S    
C46   F6    S    
C58   N32   A    
C34   N27   A    
N17   N20   A    
N4    N23   A    
C1    C66   A    
C62   C72   A    
N5    Ni7   S    
C26   H8    S    
C32   C37   S    
C5    C80   A    
C19   C28   S    
C80   H40   S    
C11   C29   S    
C35   C48   S    
C63   C71   A    
C2    C52   S    
C24   H6    S    
N15   Ni1   S    
C41   C72   A    
N14   N19   A    
C58   C68   A    
N11   Ni3   S    
C2    C76   A    
N10   Ni2   S    
C22   H9    S    
N26   Ni8   S    
C50   F19   S    
C77   N11   A    
N9    Ni1   S    
N27   Ni4   S    
C43   H21   S    
C28   C71   S    
C10   H50   S    
C87   N21   A    
C56   H46   S    
C25   H11   S    
C39   F4    S    
C76   N10   A    
C9    C27   S    
C15   F27   S    
C10   C28   S    
N7    Ni8   S    
C39   F17   S    
C83   H43   S    
N12   N32   A    
C11   H54   S    
C64   C74   A    
C12   H12   S    
N2    Ni5   S    
C37   F2    S    
C50   C57   D    
C32   C46   S    
C16   H3    S    
C59   N2    A    
C18   C27   S    
C78   N26   A    
N3    N27   A    
N13   Ni4   S    
C51   C88   S    
C4    C67   A    
C49   F18   S    
C25   C27   S    
C21   C30   S    
C26   C28   S    
C33   C38   S    
C13   C17   S    
C24   C46   S    
C9    H45   S    
C18   C38   S    
N15   N18   A    
C21   F13   S    
C65   H35   S    
C26   H13   S    
C49   C55   D    
C62   N5    A    
C67   H47   S    
N6    Ni7   S    
C54   C69   S    
C52   F21   S    
C10   H53   S    
C33   C47   S    
C38   F3    S    
N3    Ni6   S    
N4    Ni6   S    
C42   N30   A    
N23   Ni3   S    
C60   H29   S    
N9    N24   A    
N14   Ni2   S    
C36   F32   S    
C17   F12   S    
C1    H1    S    
C63   H32   S    
C41   H19   S    
N17   Ni3   S    
C56   C88   A    
N21   Ni6   S    
C20   C36   S    
N30   Ni4   S    
C75   C88   A    
C7    C82   A    
C21   C37   S    
C19   F29   S    
C61   N4    A    
C21   F31   S    
N1    N2    A    
C79   N13   A    
N28   Ni2   S    
C6    C81   A    
C17   C32   S    
C13   H55   S    
C31   C36   S    
N10   N22   A    
C81   H41   S    
C51   C53   D    
C3    C78   A    
C1    N1    A    
C34   C70   A    
C5    C85   A    
C27   C72   S    
N19   Ni5   S    
C56   N24   A    
C5    C31   S    
C65   N8    A    
C3    C77   A    
