data_mof_unit_13533.cif
_audit_creation_date              2012-12-10T18:05:52-0500
_audit_creation_method            fapswitch 2.2
_symmetry_space_group_name_H-M    P1
_symmetry_Int_Tables_number       1
_space_group_crystal_system       triclinic
_cell_length_a                    12.619326
_cell_length_b                    13.185627
_cell_length_c                    14.891963
_cell_angle_alpha                 90.412597
_cell_angle_beta                  102.933326
_cell_angle_gamma                 82.22888
_cell_volume                      2392.2048751

loop_
_atom_site_label
_atom_site_type_symbol
_atom_type_description
_atom_site_fract_x
_atom_site_fract_y
_atom_site_fract_z
_atom_type_partial_charge
C1    C     C_R   0.439065 0.690745 0.491199 0.874766
C2    C     C_R   0.569540 0.436473 0.107082 0.018657
C3    C     C_R   0.340124 0.644760 0.012979 -0.225949
C4    C     C_R   0.339972 0.640676 0.919822 -0.216325
C5    C     C_R   0.418472 0.572603 0.889409 0.157526
C6    C     C_R   0.496470 0.505468 0.952241 -0.011942
C7    C     C_R   0.577433 0.437685 0.921782 -0.031752
C8    C     C_R   0.652358 0.368821 0.983954 0.615370
C9    C     C_R   0.647399 0.367557 0.076157 -0.309720
C10   C     C_R   0.420300 0.570216 0.796866 -0.241699
C11   C     C_R   0.501577 0.504596 0.768106 -0.062938
C12   C     C_R   0.500713 0.501068 0.672629 0.885492
C13   C     C_R   0.580980 0.439923 0.829406 -0.217126
C14   C     C_R   0.691578 0.064264 0.448524 -0.213366
C15   C     C_R   0.598353 0.200112 0.521501 -0.082810
C16   C     C_R   0.344255 0.814870 0.576607 -0.258053
C17   C     C_R   0.362922 0.894475 0.637903 0.064327
C18   C     C_R   0.437115 0.960380 0.625596 -0.205595
C19   C     C_R   0.482318 0.955713 0.546514 0.059912
C20   C     C_R   0.470203 0.869486 0.490484 0.104535
C21   C     C_R   0.546060 0.029310 0.524597 0.036284
C22   C     C_R   0.617721 0.000447 0.464130 0.168077
C23   C     C_R   0.561005 0.309277 0.514318 0.859360
C24   C     C_R   0.609881 0.911379 0.414227 -0.240235
C25   C     C_R   0.531502 0.850963 0.422300 -0.177092
C26   C     C_R   0.534708 0.132837 0.552391 -0.084304
C27   C     C_R   0.682829 0.163631 0.478242 -0.219201
C28   C     C_R   0.405784 0.796919 0.509373 -0.100656
C29   C     C_R   0.082581 0.352853 0.368870 -0.349628
C30   C     C_R   0.800844 0.629364 0.609090 0.776723
C31   C     C_R   0.906766 0.654626 0.634092 -0.321669
C32   C     C_R   0.988802 0.603028 0.595543 -0.308792
C33   C     C_R   0.965027 0.525196 0.531535 0.030325
C34   C     C_R   0.497166 0.504659 0.327139 0.878719
C35   C     C_R   0.855563 0.501920 0.508673 0.123000
C36   C     C_R   0.044090 0.471818 0.487278 0.011071
C37   C     C_R   0.010839 0.398450 0.420417 0.172516
C38   C     C_R   0.904431 0.374282 0.402092 -0.281302
C39   C     C_R   0.828254 0.425021 0.446007 -0.171123
C40   C     C_R   0.154299 0.489988 0.504185 -0.075857
C41   C     C_R   0.187332 0.379841 0.382673 0.126474
C42   C     C_R   0.566453 0.436449 0.199037 -0.227428
C43   C     C_R   0.493262 0.508593 0.230815 -0.070485
C44   C     C_R   0.421426 0.583963 0.171939 -0.072442
C45   C     C_R   0.417675 0.578981 0.077043 0.095078
C46   C     C_R   0.493983 0.506541 0.045436 0.035372
H1    H     H_    0.622293 0.381024 0.246797 0.133228
H2    H     H_    0.660302 0.891308 0.364880 0.143444
H3    H     H_    0.749710 0.040278 0.406247 0.138474
H4    H     H_    0.296179 0.757357 0.591257 0.141769
H5    H     H_    0.460678 0.013273 0.679459 0.152432
H6    H     H_    0.523423 0.785853 0.377883 0.158277
H7    H     H_    0.879067 0.317285 0.351859 0.145618
H8    H     H_    0.055268 0.300787 0.314407 0.155129
H9    H     H_    0.187737 0.541159 0.556334 0.133072
H10   H     H_    0.069262 0.626159 0.616509 0.161311
H11   H     H_    0.925345 0.714179 0.683268 0.174676
H12   H     H_    0.747822 0.403710 0.428048 0.206158
H13   H     H_    0.278278 0.698755 0.034129 0.167318
H14   H     H_    0.279150 0.691390 0.871592 0.163970
H15   H     H_    0.359907 0.620134 0.747243 0.133688
H16   H     H_    0.642319 0.389109 0.804095 0.191022
H17   H     H_    0.705392 0.313687 0.123649 0.171249
H18   H     H_    0.732960 0.215160 0.456789 0.151291
N1    N     N_R   0.222190 0.444670 0.452360 -0.116765
N2    N     N_R   0.776970 0.554790 0.547140 -0.185526
O1    O     O_R   0.366740 0.627160 0.477250 -0.633809
O2    O     O_R   0.544830 0.662520 0.507680 -0.555486
O3    O     O_R   0.410940 0.482340 0.616930 -0.623201
O4    O     O_R   0.589030 0.517700 0.647360 -0.562168
O5    O     O_R   0.455170 0.337480 0.492320 -0.603573
O6    O     O_R   0.633260 0.372840 0.522750 -0.645546
O7    O     O_R   0.410970 0.482300 0.352640 -0.612690
O8    O     O_R   0.589060 0.517660 0.383070 -0.647014
Zn1   Zn    Zn3+2 0.381090 0.476390 0.479680 0.943500
Zn2   Zn    Zn3+2 0.618910 0.523610 0.520320 0.988023
C47   C     C_R   0.448208 0.176920 0.601614 0.115452
C48   C     C_R   0.478537 0.224819 0.686412 -0.162075
C49   C     C_R   0.398373 0.267429 0.732345 -0.115720
C50   C     C_R   0.287372 0.264761 0.693291 -0.093256
C51   C     C_R   0.256189 0.217726 0.609015 -0.118096
C52   C     C_R   0.335938 0.173435 0.563565 -0.120402
H19   H     H_    0.564237 0.228294 0.717127 0.133307
H20   H     H_    0.422112 0.302754 0.798241 0.140699
H21   H     H_    0.225545 0.298564 0.728658 0.130334
H22   H     H_    0.170186 0.214868 0.579181 0.135120
H23   H     H_    0.310125 0.134314 0.500003 0.109374
C53   C     C_R   0.312161 0.902642 0.719035 0.122057
C54   C     C_R   0.201096 0.890281 0.709066 -0.178825
C55   C     C_R   0.153469 0.896310 0.785499 -0.142871
C56   C     C_R   0.216078 0.914382 0.872607 -0.120447
C57   C     C_R   0.326520 0.926237 0.883485 -0.129053
C58   C     C_R   0.374520 0.920466 0.807250 -0.138936
H24   H     H_    0.151030 0.876710 0.642045 0.129530
H25   H     H_    0.067980 0.886767 0.777178 0.141192
H26   H     H_    0.179230 0.918524 0.931778 0.135721
H27   H     H_    0.375184 0.939289 0.951171 0.132419
H28   H     H_    0.460756 0.928022 0.817645 0.134742
C59   C     C_R   0.250352 0.348466 0.311988 0.165619
C60   C     C_R   0.332418 0.263281 0.325527 -0.100711
C61   C     C_R   0.387983 0.233442 0.256218 -0.178984
C62   C     C_R   0.359320 0.286187 0.171387 -0.106296
C63   C     C_R   0.273993 0.367823 0.155409 -0.113082
C64   C     C_R   0.218674 0.397838 0.224851 -0.174445
H29   H     H_    0.353388 0.219260 0.388874 0.131293
H30   H     H_    0.452592 0.168801 0.268087 0.134501
H31   H     H_    0.402369 0.263157 0.117746 0.133624
H32   H     H_    0.250510 0.407690 0.089173 0.139263
H33   H     H_    0.150765 0.459468 0.210663 0.120008
C65   C     C_R   0.363874 0.675218 0.209668 0.072866
C66   C     C_R   0.395403 0.772123 0.199785 -0.190310
C67   C     C_R   0.339939 0.859465 0.231192 -0.153971
C68   C     C_R   0.253386 0.850780 0.273663 -0.119507
C69   C     C_R   0.221047 0.754992 0.283367 -0.139344
C70   C     C_R   0.275333 0.667742 0.250809 -0.116063
H34   H     H_    0.462806 0.779929 0.167470 0.143264
H35   H     H_    0.364923 0.933707 0.223548 0.138382
H36   H     H_    0.211331 0.918242 0.298928 0.130195
H37   H     H_    0.153567 0.748332 0.315822 0.134536
H38   H     H_    0.247595 0.595089 0.257314 0.149216
F1    F     F_    0.721592 0.678966 0.647775 -0.646961
F2    F     F_    0.729618 0.302413 0.955540 -0.677328

loop_
_geom_bond_atom_site_label_1
_geom_bond_atom_site_label_2
_ccdc_geom_bond_type
C16   C28   A    
C12   O3    A    
C61   C62   A    
C17   C53   S    
C19   C20   A    
O6    Zn2   S    
C33   C36   A    
C69   C70   A    
C7    C8    A    
C47   C48   A    
C2    C46   A    
C60   H29   S    
C37   C38   A    
O8    Zn2   S    
C5    C6    A    
C36   C37   A    
C19   C21   A    
C16   H4    S    
C30   C31   A    
C14   H3    S    
C29   H8    S    
C52   H23   S    
C1    O2    A    
C18   C19   A    
C54   H24   S    
C65   C66   A    
C57   C58   A    
C1    O1    A    
C56   H26   S    
C48   H19   S    
C13   H16   S    
C66   C67   A    
C8    C9    A    
C18   H5    S    
C1    C28   S    
C41   C59   S    
C63   H32   S    
C14   C27   A    
C69   H37   S    
C15   C23   S    
C59   C64   A    
C21   C22   A    
O7    Zn1   S    
C67   C68   A    
C21   C26   A    
C57   H27   S    
C51   C52   A    
C38   C39   A    
C26   C47   S    
C24   H2    S    
C23   O5    A    
C36   C40   A    
C24   C25   A    
C10   C11   A    
C56   C57   A    
C48   C49   A    
C16   C17   A    
C15   C26   A    
C41   N1    A    
C20   C28   A    
C35   N2    A    
C45   C46   A    
C39   H12   S    
C3    C45   A    
C68   H36   S    
C35   C39   A    
C43   C44   A    
C50   H21   S    
C15   C27   A    
C59   C60   A    
C30   F1    S    
C7    C13   A    
C40   H9    S    
N2    Zn2   S    
C4    H14   S    
C17   C18   A    
C62   H31   S    
C30   N2    A    
C34   O8    A    
C40   N1    A    
O4    Zn2   S    
C14   C22   A    
C22   C24   A    
C10   H15   S    
O1    Zn1   S    
C42   C43   A    
C3    C4    A    
C44   C45   A    
C68   C69   A    
C61   H30   S    
C12   O4    A    
C53   C58   A    
C6    C46   A    
C49   H20   S    
C29   C41   A    
C9    H17   S    
C23   O6    A    
C31   C32   A    
C34   C43   S    
C51   H22   S    
C50   C51   A    
C55   H25   S    
C11   C12   S    
C6    C7    A    
O2    Zn2   S    
N1    Zn1   S    
C67   H35   S    
C66   H34   S    
C32   C33   A    
C31   H11   S    
C25   H6    S    
C5    C10   A    
O5    Zn1   S    
C11   C13   A    
C8    F2    S    
C55   C56   A    
C64   H33   S    
C38   H7    S    
C47   C52   A    
C2    C42   A    
C65   C70   A    
C60   C61   A    
C33   C35   A    
O3    Zn1   S    
C42   H1    S    
C62   C63   A    
C27   H18   S    
C34   O7    A    
C49   C50   A    
C4    C5    A    
C53   C54   A    
C70   H38   S    
C20   C25   A    
C29   C37   A    
C63   C64   A    
C54   C55   A    
C2    C9    A    
C58   H28   S    
C32   H10   S    
C3    H13   S    
C44   C65   S    
