data_mof_unit_12097.cif
_audit_creation_date              2012-12-10T19:00:47-0500
_audit_creation_method            fapswitch 2.2
_symmetry_space_group_name_H-M    P1
_symmetry_Int_Tables_number       1
_space_group_crystal_system       triclinic
_cell_length_a                    14.983066
_cell_length_b                    10.887887
_cell_length_c                    9.644956
_cell_angle_alpha                 90.114612
_cell_angle_beta                  90.718302
_cell_angle_gamma                 90.135824
_cell_volume                      1573.28826388

loop_
_atom_site_label
_atom_site_type_symbol
_atom_type_description
_atom_site_fract_x
_atom_site_fract_y
_atom_site_fract_z
_atom_type_partial_charge
C1    C     C_R   0.497827 0.262916 0.499690 0.807996
C2    C     C_R   0.907755 0.617388 0.495742 -0.040738
C3    C     C_R   0.952550 0.278931 0.511922 0.395427
C4    C     C_R   0.046114 0.277991 0.520729 0.385118
C5    C     C_R   0.093899 0.388848 0.508978 -0.051234
C6    C     C_R   0.047657 0.501726 0.499671 0.011669
C7    C     C_R   0.095619 0.613000 0.489690 0.092272
C8    C     C_R   0.050517 0.724593 0.485195 -0.329145
C9    C     C_R   0.957421 0.728358 0.493944 0.515088
C10   C     C_R   0.187255 0.389360 0.506932 -0.208976
C11   C     C_R   0.233475 0.500059 0.497237 -0.029455
C12   C     C_R   0.329438 0.499660 0.499191 0.783298
C13   C     C_R   0.188517 0.611383 0.487789 -0.206433
C14   C     C_R   0.470359 0.064512 0.617130 0.040494
C15   C     C_R   0.488231 0.130349 0.497267 -0.181062
C16   C     C_R   0.492883 0.065778 0.371710 -0.294044
C17   C     C_R   0.491631 0.937189 0.369859 0.490189
C18   C     C_R   0.490010 0.871444 0.497209 -0.163090
C19   C     C_R   0.472375 0.938350 0.618355 -0.114410
C20   C     C_3   0.507767 0.936543 0.765047 0.293389
C21   C     C_3   0.504434 0.077221 0.761693 0.299531
C22   C     C_R   0.576130 0.477549 0.074466 0.129257
C23   C     C_R   0.498329 0.737659 0.499794 0.821692
C24   C     C_R   0.422482 0.510605 0.071941 0.437637
C25   C     C_R   0.423421 0.519677 0.925234 0.471784
C26   C     C_R   0.575896 0.475455 0.927928 0.142043
C27   C     C_3   0.661632 0.544933 0.923172 -0.483309
C28   C     C_3   0.661132 0.548909 0.080470 -0.420830
C29   C     C_R   0.670837 0.500994 0.500640 0.829152
C30   C     C_R   0.813455 0.616741 0.494929 0.438742
C31   C     C_R   0.767515 0.504274 0.502418 -0.179444
C32   C     C_R   0.813229 0.393459 0.510021 -0.271211
C33   C     C_R   0.906324 0.391462 0.507806 -0.032553
C34   C     C_R   0.953844 0.503580 0.501194 -0.145755
Cu1   Cu    Cu3+1 0.500000 0.499980 0.640670 0.982745
Cu2   Cu    Cu3+1 0.500000 0.500020 0.359330 0.982515
H1    H     H_    0.460462 0.893004 0.838130 0.084848
H2    H     H_    0.775357 0.308657 0.516079 0.185702
H3    H     H_    0.224624 0.304324 0.512645 0.168949
H4    H     H_    0.226116 0.696457 0.481039 0.113211
H5    H     H_    0.087713 0.809879 0.478618 0.165415
H6    H     H_    0.501817 0.114170 0.275069 0.168254
N1    N     N_R   0.500570 0.500930 0.147930 -0.246199
N2    N     N_R   0.500570 0.500890 0.852020 -0.243297
O1    O     O_R   0.500000 0.319640 0.618810 -0.559375
O2    O     O_R   0.500010 0.319680 0.381230 -0.601820
O3    O     O_R   0.370250 0.499950 0.618800 -0.514778
O4    O     O_R   0.370260 0.499990 0.381220 -0.536016
O5    O     O_R   0.499990 0.680320 0.618770 -0.585978
O6    O     O_R   0.500000 0.680360 0.381190 -0.522312
O7    O     O_R   0.629740 0.500010 0.618780 -0.597967
O8    O     O_R   0.629750 0.500050 0.381200 -0.565529
O9    O     O_3   0.766377 0.724348 0.473336 -0.567511
C35   C     C_3   0.735627 0.768740 0.601526 -0.185522
H7    H     H_    0.783463 0.754074 0.689297 0.121087
H8    H     H_    0.671152 0.725619 0.626738 0.196621
H9    H     H_    0.724593 0.869055 0.591729 0.222951
O10   O     O_3   0.502441 0.878207 0.244290 -0.575505
C36   C     C_3   0.417826 0.865769 0.180071 -0.322506
H10   H     H_    0.386460 0.956604 0.159675 0.151037
H11   H     H_    0.372509 0.807694 0.243054 0.185550
H12   H     H_    0.426620 0.819375 0.078905 0.166346
O11   O     O_3   0.595820 0.891291 0.771170 -0.614632
C37   C     C_3   0.626776 0.891069 0.909775 -0.377901
H13   H     H_    0.583360 0.834197 0.976993 0.200878
H14   H     H_    0.633211 0.985993 0.951012 0.172186
H15   H     H_    0.694524 0.850313 0.912916 0.182651
O12   O     O_3   0.436893 0.126133 0.846187 -0.572068
C38   C     C_3   0.473285 0.154775 0.977505 -0.364960
H16   H     H_    0.526115 0.226145 0.970152 0.160278
H17   H     H_    0.499933 0.071458 0.029266 0.175668
H18   H     H_    0.419544 0.191862 0.043208 0.177721
H19   H     H_    0.570236 0.125527 0.766370 0.099842
O13   O     O_3   0.341227 0.521045 0.136021 -0.551148
C39   C     C_3   0.296916 0.406360 0.128541 -0.241368
H20   H     H_    0.231622 0.415048 0.180611 0.181606
H21   H     H_    0.335509 0.334047 0.184202 0.144950
H22   H     H_    0.283116 0.377217 0.019816 0.175526
O14   O     O_3   0.343075 0.539756 0.858171 -0.539135
C40   C     C_3   0.324776 0.666592 0.857482 -0.276340
H23   H     H_    0.262974 0.682128 0.795469 0.178450
H24   H     H_    0.379002 0.718986 0.807281 0.153191
H25   H     H_    0.312543 0.701705 0.963751 0.159379
H26   H     H_    0.716734 0.488266 0.881208 0.201281
H27   H     H_    0.653823 0.636176 0.873716 0.217465
H28   H     H_    0.716581 0.495562 0.128477 0.200958
H29   H     H_    0.652079 0.642940 0.123250 0.226527
O15   O     O_3   0.906172 0.169160 0.514005 -0.589086
C41   C     C_3   0.896047 0.127105 0.376249 -0.255862
H30   H     H_    0.863814 0.197168 0.308227 0.127925
H31   H     H_    0.851785 0.045340 0.375813 0.228504
H32   H     H_    0.961427 0.098968 0.333115 0.193480
O16   O     O_3   0.090333 0.167256 0.534626 -0.572506
C42   C     C_3   0.107332 0.147161 0.677052 -0.333360
H33   H     H_    0.150926 0.220004 0.722695 0.174025
H34   H     H_    0.143041 0.058596 0.688976 0.180152
H35   H     H_    0.044100 0.140778 0.736066 0.165811
O17   O     O_3   0.915176 0.840887 0.501523 -0.547250
C43   C     C_3   0.936839 0.896553 0.630139 -0.282775
H36   H     H_    0.935402 0.830595 0.718418 0.114184
H37   H     H_    0.886634 0.968278 0.652342 0.223415
H38   H     H_    0.003212 0.941111 0.625315 0.198331

loop_
_geom_bond_atom_site_label_1
_geom_bond_atom_site_label_2
_ccdc_geom_bond_type
C8    C9    A    
C9    O17   S    
C19   C20   S    
C12   O4    A    
Cu1   O3    S    
C26   N2    A    
C7    C8    A    
O9    C35   S    
C26   C27   S    
O16   C42   S    
C14   C21   S    
C27   H26   S    
C12   O3    A    
C5    C6    A    
C1    O2    A    
C23   O5    A    
C3    C33   A    
C15   C16   A    
C21   H19   S    
C27   H27   S    
C18   C19   A    
C38   H17   S    
C13   H4    S    
O12   C38   S    
C31   C32   A    
C16   C17   A    
Cu1   O5    S    
Cu2   O2    S    
C1    C15   S    
C32   H2    S    
C41   H31   S    
Cu2   O8    S    
C17   O10   S    
C2    C34   A    
C36   H10   S    
C22   C28   S    
C42   H33   S    
C40   H25   S    
C25   N2    A    
C17   C18   A    
C30   O9    S    
C35   H8    S    
C36   H11   S    
O13   C39   S    
C18   C23   S    
C37   H15   S    
C8    H5    S    
C40   H24   S    
C1    O1    A    
C4    O16   S    
C40   H23   S    
C23   O6    A    
C42   H35   S    
O10   C36   S    
O11   C37   S    
C10   H3    S    
Cu1   Cu2   S    
C37   H14   S    
C38   H18   S    
C39   H20   S    
C43   H36   S    
C20   C21   S    
C28   H29   S    
C33   C34   A    
C24   C25   A    
C41   H32   S    
C42   H34   S    
Cu1   N2    S    
C39   H21   S    
C43   H37   S    
C21   O12   S    
Cu1   O7    S    
C3    C4    A    
Cu1   O1    S    
C16   H6    S    
Cu2   O6    S    
C29   O7    A    
C35   H7    S    
C36   H12   S    
C3    O15   S    
C25   O14   S    
C14   C19   A    
C4    C5    A    
C11   C12   S    
C6    C7    A    
C2    C30   A    
C37   H13   S    
C20   O11   S    
C5    C10   A    
C29   C31   S    
C32   C33   A    
C28   H28   S    
C20   H1    S    
C11   C13   A    
C24   O13   S    
C30   C31   A    
Cu2   O4    S    
C38   H16   S    
C39   H22   S    
C10   C11   A    
O14   C40   S    
C6    C34   A    
C7    C13   A    
C43   H38   S    
O15   C41   S    
O17   C43   S    
C22   C26   A    
C27   C28   S    
C24   N1    A    
C14   C15   A    
Cu2   N1    S    
C41   H30   S    
C2    C9    A    
C35   H9    S    
C22   N1    A    
C29   O8    A    
