data_mof_unit_41530.cif
_audit_creation_date              2012-12-11T16:30:20-0500
_audit_creation_method            fapswitch 2.2
_symmetry_space_group_name_H-M    P1
_symmetry_Int_Tables_number       1
_space_group_crystal_system       triclinic
_cell_length_a                    8.244958
_cell_length_b                    17.400264
_cell_length_c                    22.91172
_cell_angle_alpha                 95.716325
_cell_angle_beta                  89.606843
_cell_angle_gamma                 96.180819
_cell_volume                      3251.63464809

loop_
_atom_site_label
_atom_site_type_symbol
_atom_type_description
_atom_site_fract_x
_atom_site_fract_y
_atom_site_fract_z
_atom_type_partial_charge
Ba1   Ba    Ba6+2 0.852790 0.535910 0.472200 1.644850
Ba2   Ba    Ba6+2 0.337030 0.464150 0.527810 1.657547
Br1   Br    Br    0.914424 0.194430 0.765325 -0.538721
C1    C     C_3   0.668886 0.822471 0.322709 -0.363392
C2    C     C_R   0.102217 0.564406 0.939086 -0.030064
C3    C     C_R   0.055983 0.559576 0.879024 0.598862
C4    C     C_3   0.114700 0.699692 0.312596 0.319610
C5    C     C_R   0.954988 0.425333 0.881525 0.578620
C6    C     C_R   0.000013 0.428421 0.941242 -0.024197
C7    C     C_R   0.073762 0.498326 0.970213 -0.051963
C8    C     C_R   0.175739 0.633971 0.968972 -0.070023
C9    C     C_R   0.219805 0.637722 0.028238 -0.071433
C10   C     C_R   0.192080 0.572027 0.059812 -0.019765
C11   C     C_R   0.118868 0.502089 0.030603 -0.050606
C12   C     C_3   0.643218 0.741185 0.342374 0.351084
C13   C     C_R   0.972951 0.362598 0.972646 -0.061201
C14   C     C_R   0.018181 0.366140 0.031619 -0.073045
C15   C     C_R   0.091285 0.435736 0.061442 -0.027824
C16   C     C_3   0.091987 0.721417 0.250800 -0.311148
C17   C     C_R   0.138046 0.440086 0.121219 0.593173
C18   C     C_R   0.235605 0.574946 0.119858 0.576490
C19   C     C_2   0.790328 0.448762 0.769174 -0.071838
C20   C     C_3   0.763507 0.423459 0.704740 -0.044771
C21   C     C_1   0.005635 0.512107 0.685480 0.032653
C22   C     C_2   0.051935 0.516547 0.741812 -0.103772
C23   C     C_3   0.491014 0.354426 0.350490 0.288954
C24   C     C_2   0.937038 0.485336 0.787944 0.186113
C25   C     C_R   0.408876 0.547099 0.232276 -0.096122
C26   C     C_R   0.451392 0.552444 0.291853 -0.017623
C27   C     C_R   0.188999 0.486342 0.314674 0.029782
C28   C     C_3   0.215703 0.701383 0.599139 0.364016
C29   C     C_R   0.143286 0.482121 0.254945 -0.099730
C30   C     C_R   0.252343 0.513473 0.212766 0.199087
C31   C     C_2   0.869468 0.471224 0.665161 -0.297993
C32   C     C_R   0.408926 0.720347 0.475080 -0.294980
C33   C     C_R   0.552846 0.745084 0.506091 0.058763
C34   C     C_3   0.477163 0.333878 0.284502 -0.364897
C35   C     C_R   0.609555 0.824309 0.513692 -0.114826
C36   C     C_R   0.519839 0.878956 0.491289 -0.003384
C37   C     C_R   0.370246 0.853796 0.462404 -0.132103
C38   C     C_R   0.313999 0.774211 0.455284 0.005108
C39   C     C_R   0.591001 0.162961 0.485809 0.369896
C40   C     C_3   0.265890 0.787068 0.619173 0.321146
C41   C     C_R   0.641922 0.243161 0.492578 0.003291
C42   C     C_R   0.879822 0.221068 0.547185 0.020196
C43   C     C_R   0.828510 0.140934 0.542480 -0.173868
C44   C     C_R   0.681835 0.111703 0.512854 -0.062536
C45   C     C_3   0.072285 0.297048 0.687729 0.328880
C46   C     C_1   0.627943 0.029157 0.507210 0.041486
C47   C     C_1   0.578782 0.960708 0.500333 0.002600
C48   C     C_R   0.781878 0.271586 0.524853 -0.361814
C49   C     C_3   0.985632 0.299270 0.403846 0.315882
C50   C     C_3   0.976501 0.211644 0.389403 -0.374778
C51   C     C_3   0.697454 0.630297 0.646801 0.299942
C52   C     C_3   0.705015 0.649761 0.712984 -0.343880
C53   C     C_3   0.048258 0.859435 0.610377 0.211096
C54   C     C_3   0.490481 0.106324 0.397608 0.178716
C55   C     C_3   0.089024 0.273304 0.749330 0.131162
C56   C     C_3   0.528568 0.257275 0.663885 0.319050
C57   C     C_3   0.482330 0.178802 0.686785 -0.309690
C58   C     C_R   0.340360 0.523862 0.332510 -0.301678
H1    H     H_    0.707214 0.742140 0.385020 0.080805
H2    H     H_    0.604907 0.579618 0.636621 0.078704
H3    H     H_    0.801199 0.840362 0.317547 0.142008
H4    H     H_    0.802150 0.698120 0.724622 0.155055
H5    H     H_    0.732154 0.598411 0.734613 0.066084
H6    H     H_    0.585885 0.667204 0.729348 0.133495
H7    H     H_    0.510103 0.725821 0.348184 -0.054762
H8    H     H_    0.618365 0.864206 0.356015 0.067640
H9    H     H_    0.370590 0.368802 0.367397 0.020301
H10   H     H_    0.583066 0.405742 0.359188 0.061638
H11   H     H_    0.383639 0.283455 0.274493 0.137744
H12   H     H_    0.369463 0.790516 0.650416 0.073032
H13   H     H_    0.441000 0.383835 0.263068 0.072805
H14   H     H_    0.596505 0.319008 0.266473 0.130247
H15   H     H_    0.605767 0.823712 0.280198 0.125397
H16   H     H_    0.083766 0.668274 0.219569 0.120507
H17   H     H_    0.153723 0.351618 0.684244 0.048861
H18   H     H_    0.944064 0.307595 0.680666 -0.036801
H19   H     H_    0.085151 0.324955 0.781377 0.075579
H20   H     H_    0.207631 0.250220 0.754752 0.112191
H21   H     H_    0.663992 0.267829 0.664528 -0.015905
H22   H     H_    0.484283 0.254237 0.617904 0.067834
H23   H     H_    0.313216 0.818376 0.581560 -0.109597
H24   H     H_    0.544711 0.133651 0.660457 0.087875
H25   H     H_    0.348752 0.162514 0.683298 0.152683
H26   H     H_    0.026113 0.648637 0.318899 0.103471
H27   H     H_    0.520321 0.180995 0.733378 0.168983
H28   H     H_    0.995105 0.313982 0.053867 0.129443
H29   H     H_    0.916722 0.307756 0.951641 0.144854
H30   H     H_    0.275877 0.692546 0.049312 0.125839
H31   H     H_    0.498100 0.568430 0.201237 0.116639
H32   H     H_    0.199527 0.685983 0.946598 0.130177
H33   H     H_    0.174293 0.541605 0.754549 0.131899
H34   H     H_    0.863138 0.315637 0.415289 -0.008512
H35   H     H_    0.700102 0.427693 0.800152 0.124560
H36   H     H_    0.024020 0.454160 0.241456 0.128362
H37   H     H_    0.375470 0.527224 0.378180 0.081858
H38   H     H_    0.240775 0.683991 0.317092 -0.041877
H39   H     H_    0.848801 0.458182 0.618331 0.082249
H40   H     H_    0.296957 0.895615 0.446731 0.084796
H41   H     H_    0.903796 0.101677 0.560498 0.105655
H42   H     H_    0.720477 0.843477 0.538424 0.062116
H43   H     H_    0.364855 0.659186 0.469992 0.076320
H44   H     H_    0.821800 0.333209 0.528553 0.077983
H45   H     H_    0.069716 0.316297 0.441607 0.070549
H46   H     H_    0.977374 0.748868 0.247574 0.147699
H47   H     H_    0.196402 0.762647 0.238882 0.125674
H48   H     H_    0.325127 0.674547 0.582965 -0.088422
H49   H     H_    0.124536 0.696447 0.563232 0.013555
H50   H     H_    0.001549 0.819371 0.572047 0.048675
H51   H     H_    0.124631 0.910522 0.595619 0.034941
H52   H     H_    0.941452 0.880847 0.633967 0.075497
H53   H     H_    0.585725 0.145278 0.377134 0.030306
H54   H     H_    0.379771 0.100762 0.369612 0.071778
H55   H     H_    0.531156 0.047548 0.397529 0.021961
H56   H     H_    0.890476 0.192810 0.352369 0.115368
H57   H     H_    0.933615 0.181470 0.427836 0.053249
H58   H     H_    0.099238 0.194782 0.376993 0.137340
H59   H     H_    0.818123 0.615682 0.630977 0.011653
N1    N     N_R   0.983603 0.490336 0.850338 -0.427385
N2    N     N_R   0.206973 0.509585 0.150553 -0.423687
O1    O     O_2   0.894270 0.458150 0.360790 -0.459343
O2    O     O_2   0.216856 0.226754 0.539355 -0.444946
O3    O     O_3   0.117644 0.237774 0.646919 -0.590924
O4    O     O_3   0.134750 0.458940 0.431830 -0.493287
O5    O     O_3   0.566070 0.591710 0.528970 -0.484027
O6    O     O_2   0.362610 0.313970 0.472520 -0.438841
O7    O     O_3   0.538412 0.290482 0.376175 -0.642305
O8    O     O_2   0.438893 0.466081 0.709762 -0.498489
O9    O     O_3   0.457036 0.315522 0.699160 -0.597909
O10   O     O_2   0.077977 0.617491 0.852706 -0.584181
O11   O     O_2   0.890695 0.364059 0.857297 -0.573782
O12   O     O_3   0.656073 0.695177 0.621095 -0.639405
O13   O     O_2   0.119779 0.381405 0.146782 -0.594847
O14   O     O_2   0.298416 0.636127 0.144764 -0.612707
O15   O     O_3   0.663190 0.596710 0.395570 -0.487166
O16   O     O_2   0.787848 0.546504 0.292417 -0.500539
O17   O     O_3   0.040787 0.334545 0.354210 -0.627682
O18   O     O_3   0.707619 0.688734 0.300038 -0.599535
O19   O     O_2   0.827090 0.686050 0.527520 -0.463903
O20   O     O_3   0.077580 0.635890 0.424230 -0.491746
O21   O     O_2   0.975822 0.773719 0.459728 -0.499037
O22   O     O_3   0.136307 0.821090 0.649044 -0.607795
O23   O     O_3   0.085974 0.762815 0.352974 -0.600886
O24   O     O_3   0.449355 0.135812 0.454828 -0.624324
O25   O     O_2   0.295430 0.541870 0.639250 -0.461385
O26   O     O_3   0.054960 0.541130 0.568170 -0.492540
O27   O     O_3   0.526510 0.403350 0.604440 -0.477418
O28   O     O_3   0.149527 0.665254 0.646987 -0.610731
O29   O     O_3   0.623640 0.408350 0.471030 -0.482141
O30   O     O_3   0.112120 0.364170 0.575770 -0.497381
P1    P     P_3+3 0.063260 0.435680 0.369690 0.994667
P2    P     P_3+3 0.650710 0.674870 0.544690 0.985296
P3    P     P_3+3 0.112775 0.737215 0.423929 0.936937
P4    P     P_3+3 0.126450 0.564380 0.630310 1.006156
P5    P     P_3+3 0.081407 0.262448 0.576495 0.972936
P6    P     P_3+3 0.653391 0.594550 0.319140 0.946507
P7    P     P_3+3 0.543995 0.311893 0.452431 0.989988
P8    P     P_3+3 0.545958 0.405484 0.680395 0.945340

loop_
_geom_bond_atom_site_label_1
_geom_bond_atom_site_label_2
_ccdc_geom_bond_type
C40   H12   S    
C34   H13   S    
C13   H29   S    
C23   H10   S    
C51   H59   S    
O4    P1    S    
C11   C15   A    
C9    H30   S    
C58   H37   S    
C56   H21   S    
C24   N1    S    
C33   P2    S    
C54   H54   S    
O12   P2    S    
C42   C43   A    
C43   H41   S    
C56   O9    S    
C4    H38   S    
O15   P6    S    
C45   H18   S    
C25   C26   A    
C6    C13   A    
C56   H22   S    
C2    C8    A    
C28   H49   S    
C35   C36   A    
O3    P5    S    
C5    N1    Am   
C51   H2    S    
C42   C48   A    
Ba2   O26   S    
C51   O12   S    
C49   O17   S    
C29   H36   S    
C49   H34   S    
O8    P8    D    
Ba1   Ba2   S    
C45   H17   S    
C18   N2    Am   
C16   H16   S    
Ba1   O20   S    
O18   P6    S    
C45   O3    S    
C51   C52   S    
C57   H27   S    
C27   P1    S    
C4    H26   S    
C32   C33   A    
C13   C14   A    
C31   H39   S    
C53   H52   S    
Ba1   O29   S    
O20   P3    S    
C6    C7    A    
C18   O14   D    
C17   N2    Am   
C55   H19   S    
Ba2   O5    S    
C8    H32   S    
Ba2   O27   S    
C34   H14   S    
C49   H45   S    
C56   C57   S    
O28   P4    S    
C54   O24   S    
C20   P8    S    
C40   H23   S    
C40   O22   S    
O9    P8    S    
C39   C41   A    
C32   C38   A    
O5    P2    S    
C1    H8    S    
C52   H4    S    
C54   H55   S    
Ba2   O30   S    
C26   C58   A    
C10   C18   A    
C42   P5    S    
Ba1   O4    S    
C44   C46   S    
C32   H43   S    
C7    C11   A    
C55   H20   S    
C36   C37   A    
C28   O28   S    
C57   H25   S    
C50   H57   S    
C5    C6    A    
C53   O22   S    
Ba2   O25   S    
C21   C31   D    
O29   P7    S    
Ba1   O1    S    
C35   H42   S    
O16   P6    D    
O21   P3    D    
C48   H44   S    
C20   C31   S    
O2    P5    D    
C14   C15   A    
C28   H48   S    
C14   H28   S    
C25   H31   S    
C21   C22   D    
Ba1   P1    S    
O25   P4    D    
C54   H53   S    
C23   O7    S    
C28   C40   S    
Ba2   O4    S    
C41   C48   A    
C3    O10   D    
C37   C38   A    
C25   C30   A    
C4    C16   S    
C19   C24   D    
C30   N2    S    
C23   H9    S    
C27   C58   A    
C39   O24   S    
O7    P7    S    
C52   H5    S    
Ba1   O15   S    
C49   C50   S    
C12   O18   S    
O1    P1    D    
Ba2   O29   S    
C43   C44   A    
Ba2   P4    S    
C53   H50   S    
C5    O11   D    
C19   H35   S    
Ba1   O5    S    
Ba1   O26   S    
C15   C17   A    
C52   H6    S    
C8    C9    A    
C50   H58   S    
C23   C34   S    
C45   C55   S    
C26   P6    S    
C22   C24   S    
C1    H3    S    
C29   C30   A    
C1    C12   S    
C33   C35   A    
C2    C7    A    
C16   H47   S    
C27   C29   A    
C2    C3    A    
C12   H7    S    
C12   H1    S    
O30   P5    S    
C50   H56   S    
C39   C44   A    
C17   O13   D    
Ba1   P2    S    
O19   P2    D    
O27   P8    S    
C1    H15   S    
Ba1   O19   S    
O23   P3    S    
Br1   C55   S    
C22   H33   S    
C36   C47   S    
C9    C10   A    
C46   C47   T    
C34   H11   S    
C41   P7    S    
O17   P1    S    
C19   C20   S    
C57   H24   S    
O26   P4    S    
C3    N1    Am   
C38   P3    S    
C10   C11   A    
C53   H51   S    
C37   H40   S    
C21   P4    S    
O6    P7    D    
Ba2   O6    S    
C4    O23   S    
C16   H46   S    
