data_mof_unit_62317.cif
_audit_creation_date              2012-12-10T18:12:06-0500
_audit_creation_method            fapswitch 2.2
_symmetry_space_group_name_H-M    P1
_symmetry_Int_Tables_number       1
_space_group_crystal_system       triclinic
_cell_length_a                    18.695236
_cell_length_b                    18.727689
_cell_length_c                    18.739752
_cell_angle_alpha                 109.600488
_cell_angle_beta                  109.470582
_cell_angle_gamma                 109.499759
_cell_volume                      5040.93827209

loop_
_atom_site_label
_atom_site_type_symbol
_atom_type_description
_atom_site_fract_x
_atom_site_fract_y
_atom_site_fract_z
_atom_type_partial_charge
C1    C     C_R   0.620161 0.620287 0.499959 0.859827
C2    C     C_R   0.196527 0.164578 0.197209 -0.113536
C3    C     C_R   0.177417 0.422019 0.176995 -0.249244
C4    C     C_R   0.186657 0.502889 0.188744 -0.070472
C5    C     C_R   0.258999 0.582223 0.262724 0.030304
C6    C     C_R   0.320830 0.578302 0.324899 -0.246066
C7    C     C_R   0.311290 0.497482 0.313478 -0.075307
C8    C     C_R   0.239571 0.418257 0.238963 0.002408
C9    C     C_R   0.347219 0.732593 0.290879 -0.206057
C10   C     C_R   0.363459 0.818058 0.313982 0.543734
C11   C     C_R   0.299741 0.839235 0.322358 -0.260584
C12   C     C_R   0.378354 0.498419 0.379727 0.885010
C13   C     C_R   0.224175 0.777075 0.311708 -0.178068
C14   C     C_R   0.209603 0.692634 0.290371 -0.130994
C15   C     C_R   0.270825 0.669663 0.279320 0.050356
C16   C     C_R   0.757695 0.758410 0.579625 -0.186322
C17   C     C_R   0.822291 0.821688 0.579577 -0.186881
C18   C     C_R   0.813263 0.813782 0.499808 -0.010136
C19   C     C_R   0.740860 0.742676 0.420071 -0.182470
C20   C     C_R   0.677613 0.678018 0.420103 -0.184988
C21   C     C_R   0.686095 0.686521 0.499889 -0.008431
C22   C     C_R   0.680236 0.504013 0.759917 -0.181886
C23   C     C_R   0.379481 0.379807 0.499764 0.916663
C24   C     C_R   0.743404 0.502479 0.823092 -0.200679
C25   C     C_R   0.813354 0.499291 0.813381 -0.020255
C26   C     C_R   0.819850 0.495671 0.740290 -0.157048
C27   C     C_R   0.755278 0.494500 0.675822 -0.195509
C28   C     C_R   0.686229 0.499599 0.686350 -0.010672
C29   C     C_R   0.241432 0.322636 0.500843 0.449833
C30   C     C_R   0.176369 0.256321 0.498000 -0.301238
C31   C     C_R   0.186550 0.186546 0.500498 -0.068860
C32   C     C_R   0.259428 0.180108 0.502822 -0.193215
C33   C     C_R   0.322064 0.243272 0.500863 -0.272071
C34   C     C_R   0.620215 0.499919 0.620291 0.855428
C35   C     C_R   0.312974 0.314057 0.499895 -0.121849
C36   C     C_R   0.999491 0.620271 0.119710 0.857920
C37   C     C_R   0.120338 0.501808 0.121741 0.866700
C38   C     C_R   0.999920 0.379971 0.879994 0.935583
C39   C     C_R   0.879694 0.499748 0.879623 0.886162
C40   C     C_R   0.000119 0.879900 0.379686 0.858052
C41   C     C_R   0.879632 0.879714 0.499831 0.860331
C42   C     C_R   0.999941 0.120354 0.620404 0.891859
C43   C     C_R   0.120330 0.119938 0.499838 0.888854
C44   C     C_R   0.006777 0.761583 0.181678 -0.191198
C45   C     C_R   0.211140 0.191393 0.139744 -0.142412
C46   C     C_R   0.005989 0.825127 0.245305 -0.196759
C47   C     C_R   0.000001 0.813891 0.313500 -0.006265
C48   C     C_R   0.993338 0.739269 0.318104 -0.194199
C49   C     C_R   0.991248 0.674432 0.252983 -0.204300
C50   C     C_R   0.998850 0.686248 0.185500 -0.016284
C51   C     C_R   0.068236 0.297689 0.836821 -0.279553
C52   C     C_R   0.068085 0.233182 0.773493 -0.176020
C53   C     C_R   0.999321 0.186551 0.686865 -0.087384
C54   C     C_R   0.930195 0.203896 0.663777 -0.293446
C55   C     C_R   0.928455 0.266661 0.727922 0.463006
C56   C     C_R   0.225381 0.274233 0.153402 -0.140236
C57   C     C_R   0.998969 0.314057 0.813614 -0.092675
C58   C     C_R   0.225975 0.331146 0.225353 0.122084
C59   C     C_R   0.210806 0.303626 0.282532 -0.133608
C60   C     C_R   0.195988 0.220499 0.268323 -0.112588
H1    H     H_    0.185206 0.100331 0.186400 0.124744
H2    H     H_    0.307882 0.903345 0.337036 0.123058
H3    H     H_    0.177169 0.794878 0.320697 0.173324
H4    H     H_    0.151338 0.645571 0.283671 0.118266
H5    H     H_    0.764116 0.764546 0.641349 0.143588
H6    H     H_    0.878375 0.877186 0.641280 0.143021
H7    H     H_    0.734310 0.736662 0.358348 0.145474
H8    H     H_    0.621696 0.622322 0.358415 0.143403
H9    H     H_    0.626272 0.507296 0.767588 0.143764
H10   H     H_    0.738772 0.505358 0.880018 0.144429
H11   H     H_    0.873919 0.492481 0.732784 0.160206
H12   H     H_    0.211165 0.147885 0.084463 0.129057
H13   H     H_    0.759822 0.491179 0.618751 0.148375
H14   H     H_    0.118519 0.259414 0.494498 0.156056
H15   H     H_    0.266633 0.125425 0.504155 0.151979
H16   H     H_    0.378113 0.237774 0.501368 0.164244
H17   H     H_    0.012384 0.770456 0.129156 0.147984
H18   H     H_    0.011434 0.883395 0.242335 0.141177
H19   H     H_    0.988395 0.730845 0.371057 0.144682
H20   H     H_    0.985745 0.616249 0.256168 0.148001
H21   H     H_    0.121838 0.334518 0.903837 0.148234
H22   H     H_    0.236351 0.294225 0.108298 0.123594
H23   H     H_    0.122133 0.220730 0.791975 0.165035
H24   H     H_    0.878059 0.169236 0.596402 0.166113
H25   H     H_    0.209637 0.346267 0.337339 0.165557
H26   H     H_    0.183708 0.199196 0.312140 0.144368
H27   H     H_    0.121468 0.361634 0.119268 0.154167
H28   H     H_    0.376831 0.638629 0.382646 0.155501
H29   H     H_    0.395205 0.715503 0.283228 0.152123
O1    O     O_R   0.591640 0.539900 0.448310 -0.623523
O2    O     O_R   0.051750 0.643320 0.091550 -0.616765
O3    O     O_R   0.039910 0.448280 0.091610 -0.628400
O4    O     O_R   0.143370 0.551700 0.091590 -0.611290
O5    O     O_R   0.948300 0.356650 0.908390 -0.625779
O6    O     O_R   0.051750 0.460070 0.908380 -0.619635
O7    O     O_R   0.856690 0.448280 0.908350 -0.626290
O8    O     O_R   0.960140 0.551690 0.908340 -0.623741
O9    O     O_R   0.051710 0.908290 0.460000 -0.625520
O10   O     O_R   0.948270 0.908330 0.356580 -0.620072
O11   O     O_R   0.960090 0.908280 0.551610 -0.623617
O12   O     O_R   0.591610 0.643330 0.551710 -0.624477
O13   O     O_R   0.856650 0.908310 0.448190 -0.620677
O14   O     O_R   0.051730 0.091500 0.643240 -0.630634
O15   O     O_R   0.948290 0.091530 0.539820 -0.626295
O16   O     O_R   0.143350 0.091510 0.551630 -0.624549
O17   O     O_R   0.039910 0.091550 0.448210 -0.622859
O18   O     O_R   0.408400 0.448280 0.356670 -0.615353
O19   O     O_R   0.408370 0.551710 0.460080 -0.620792
O20   O     O_R   0.408390 0.356670 0.448290 -0.624908
O21   O     O_R   0.408360 0.460100 0.551690 -0.603789
O22   O     O_R   0.591630 0.448290 0.539920 -0.625169
O23   O     O_R   0.591600 0.551720 0.643330 -0.628001
O24   O     O_R   0.948300 0.539910 0.091570 -0.627473
Zn1   Zn    Zn3+2 0.500020 0.430940 0.430950 0.960740
Zn2   Zn    Zn3+2 0.499980 0.569060 0.569050 0.949025
Zn3   Zn    Zn3+2 0.930950 0.430940 0.999980 0.950095
Zn4   Zn    Zn3+2 0.069100 0.569040 0.999960 0.974348
Zn5   Zn    Zn3+2 0.069070 0.999890 0.568970 0.943617
Zn6   Zn    Zn3+2 0.930930 0.999930 0.430860 0.955423
O25   O     O_3   0.231330 0.390716 0.494767 -0.628352
C61   C     C_3   0.237499 0.445681 0.572396 0.121980
H30   H     H_    0.296225 0.463644 0.631798 0.139475
H31   H     H_    0.177398 0.413379 0.575169 0.134905
C62   C     C_3   0.246213 0.529746 0.573372 -0.800419
H32   H     H_    0.188052 0.514498 0.515716 0.253961
H33   H     H_    0.250954 0.573700 0.634003 0.196792
H34   H     H_    0.306209 0.563917 0.571356 0.263200
O26   O     O_3   0.863708 0.288820 0.706627 -0.624939
C63   C     C_3   0.782711 0.218433 0.679543 0.089763
H35   H     H_    0.788382 0.196989 0.728995 0.145035
H36   H     H_    0.758519 0.161919 0.615277 0.136838
C64   C     C_3   0.715131 0.247955 0.669065 -0.806032
H37   H     H_    0.708335 0.270563 0.620687 0.259303
H38   H     H_    0.650556 0.192533 0.645747 0.196155
H39   H     H_    0.735686 0.302456 0.732864 0.267599
O27   O     O_3   0.439777 0.876162 0.322657 -0.614893
C65   C     C_3   0.477703 0.962331 0.391464 0.089206
H40   H     H_    0.474551 0.963069 0.450108 0.129266
H41   H     H_    0.444391 0.996008 0.368528 0.144638
C66   C     C_3   0.573837 0.013602 0.419073 -0.820305
H42   H     H_    0.579865 0.014958 0.362487 0.263300
H43   H     H_    0.603843 0.081945 0.471895 0.203012
H44   H     H_    0.609684 0.982609 0.443797 0.253004

loop_
_geom_bond_atom_site_label_1
_geom_bond_atom_site_label_2
_ccdc_geom_bond_type
C40   C47   S    
C1    C21   S    
C16   C21   A    
C34   O22   A    
O17   Zn6   S    
C34   O23   A    
C19   C20   A    
C66   H44   S    
C11   H2    S    
C42   O14   A    
C32   H15   S    
C54   H24   S    
C24   H10   S    
C7    C8    A    
C53   C54   A    
O6    Zn4   S    
C65   H41   S    
C17   H6    S    
C1    O1    A    
C31   C43   S    
C48   H19   S    
C44   H17   S    
C66   H43   S    
C42   C53   S    
C40   O9    A    
C5    C6    A    
C30   H14   S    
C2    C60   A    
C39   O8    A    
C12   O19   A    
C6    H28   S    
C41   O13   A    
C18   C19   A    
C43   O16   A    
C61   C62   S    
C8    C58   S    
C54   C55   A    
C31   C32   A    
C45   C56   A    
C16   C17   A    
C38   O6    A    
O2    Zn4   S    
C19   H7    S    
C51   C57   A    
C9    C10   A    
C51   H21   S    
C22   H9    S    
C2    H1    S    
O24   Zn3   S    
C28   C34   S    
C59   C60   A    
O15   Zn6   S    
C22   C28   A    
C13   C14   A    
O26   C63   S    
C45   H12   S    
O8    Zn4   S    
C26   H11   S    
O4    Zn4   S    
C40   O10   A    
C36   O24   A    
C29   O25   S    
C44   C46   A    
O9    Zn5   S    
C4    C37   S    
C2    C45   A    
C7    C12   S    
C23   O20   A    
C65   C66   S    
C61   H31   S    
C3    H27   S    
C51   C52   A    
C24   C25   A    
C3    C8    A    
C18   C41   S    
C9    H29   S    
C46   H18   S    
C60   H26   S    
O27   C65   S    
C58   C59   A    
C43   O17   A    
C52   H23   S    
C59   H25   S    
O18   Zn1   S    
C29   C30   A    
C38   C57   S    
C33   H16   S    
C47   C48   A    
C13   H3    S    
C14   H4    S    
C38   O5    A    
C17   C18   A    
C26   C27   A    
C41   O11   A    
C37   O4    A    
C66   H42   S    
O3    Zn3   S    
C61   H30   S    
O20   Zn1   S    
C62   H34   S    
C36   O2    A    
C48   C49   A    
C23   C35   S    
C55   C57   A    
O12   Zn2   S    
C22   C24   A    
O16   Zn5   S    
O14   Zn5   S    
O11   Zn5   S    
C3    C4    A    
C1    O12   A    
C36   C50   S    
C52   C53   A    
O19   Zn2   S    
C62   H33   S    
C63   H35   S    
C44   C50   A    
C23   O21   A    
C46   C47   A    
O5    Zn3   S    
C37   O3    A    
C14   C15   A    
C20   H8    S    
C10   O27   S    
C4    C5    A    
C42   O15   A    
C12   O18   A    
C56   H22   S    
C6    C7    A    
C65   H40   S    
C29   C35   A    
C49   H20   S    
C32   C33   A    
C63   C64   S    
C55   O26   S    
C25   C26   A    
C25   C39   S    
C11   C13   A    
C30   C31   A    
C64   H39   S    
C33   C35   A    
C56   C58   A    
C64   H37   S    
O22   Zn1   S    
O1    Zn1   S    
C9    C15   A    
C39   O7    A    
C5    C15   S    
C10   C11   A    
O10   Zn6   S    
C20   C21   A    
C64   H38   S    
C49   C50   A    
C27   C28   A    
O25   C61   S    
O7    Zn3   S    
C16   H5    S    
C27   H13   S    
O21   Zn2   S    
O23   Zn2   S    
O13   Zn6   S    
C62   H32   S    
C63   H36   S    
