data_mof_unit_53729.cif
_audit_creation_date              2012-12-10T18:14:39-0500
_audit_creation_method            fapswitch 2.2
_symmetry_space_group_name_H-M    P1
_symmetry_Int_Tables_number       1
_space_group_crystal_system       triclinic
_cell_length_a                    10.805948
_cell_length_b                    9.543106
_cell_length_c                    27.738908
_cell_angle_alpha                 89.724603
_cell_angle_beta                  88.673981
_cell_angle_gamma                 91.237517
_cell_volume                      2859.02685222

loop_
_atom_site_label
_atom_site_type_symbol
_atom_type_description
_atom_site_fract_x
_atom_site_fract_y
_atom_site_fract_z
_atom_type_partial_charge
C1    C     C_R   0.260352 0.499155 0.497201 0.760070
C2    C     C_R   0.475719 0.380714 0.278595 -0.112111
C3    C     C_R   0.509216 0.503969 0.253324 0.346015
C4    C     C_R   0.526784 0.513349 0.100866 -0.045911
C5    C     C_R   0.447834 0.603540 0.126438 -0.017697
C6    C     C_R   0.376487 0.698056 0.101119 -0.146466
C7    C     C_R   0.598880 0.418861 0.126635 -0.019113
C8    C     C_R   0.502399 0.501440 0.354616 -0.027408
C9    C     C_R   0.512917 0.501842 0.644361 0.021858
C10   C     C_R   0.475857 0.626381 0.973263 0.041018
C11   C     C_R   0.608308 0.418728 0.973047 0.040864
C12   C     C_R   0.500238 0.500327 0.407638 0.803909
C13   C     C_R   0.543898 0.523434 0.947825 0.067675
C14   C     C_R   0.421413 0.734598 0.946518 -0.208762
C15   C     C_R   0.426895 0.736324 0.896444 -0.146251
C16   C     C_R   0.486833 0.630470 0.871051 -0.019430
C17   C     C_R   0.546553 0.524518 0.896561 -0.045923
C18   C     C_R   0.607848 0.418917 0.870700 -0.019432
C19   C     C_R   0.604790 0.418608 0.820090 0.534529
C20   C     C_R   0.487802 0.627661 0.820465 0.531202
C21   C     C_R   0.418002 0.495307 0.724141 -0.104861
C22   C     C_R   0.407370 0.490086 0.674259 -0.257683
C23   C     C_R   0.739663 0.500496 0.496836 0.737022
C24   C     C_R   0.629554 0.520518 0.664646 -0.261223
C25   C     C_R   0.640523 0.526591 0.714634 -0.111898
C26   C     C_R   0.534547 0.514074 0.744618 0.356310
C27   C     C_R   0.464568 0.618113 0.024324 0.041007
C28   C     C_R   0.533462 0.517512 0.049628 0.067374
C29   C     C_R   0.608661 0.420781 0.024294 0.040796
C30   C     C_R   0.384717 0.705649 0.051126 -0.206925
C31   C     C_R   0.677059 0.328723 0.101459 -0.146504
C32   C     C_R   0.668720 0.314011 0.945915 -0.207622
C33   C     C_R   0.668171 0.314238 0.895814 -0.147066
C34   C     C_R   0.501968 0.500066 0.592102 0.765842
C35   C     C_R   0.681862 0.329254 0.051350 -0.206553
C36   C     C_3   0.068781 0.557289 0.542137 -0.429538
C37   C     C_3   0.067738 0.347282 0.490953 -0.488158
C38   C     C_3   0.928569 0.568441 0.539698 -0.396508
C39   C     C_3   0.926025 0.347328 0.490127 -0.385237
C40   C     C_3   0.076003 0.598115 0.451676 0.870572
C41   C     C_3   0.122179 0.499208 0.494049 0.066635
C42   C     C_3   0.878146 0.499377 0.493774 0.096706
C43   C     C_3   0.930535 0.581049 0.448873 -0.471597
C44   C     C_3   0.607254 0.086392 0.528107 0.447348
C45   C     C_3   0.612325 0.919071 0.525351 0.469750
C46   C     C_3   0.383299 0.081459 0.523346 0.466227
C47   C     C_3   0.388511 0.913812 0.527792 0.366043
C48   C     C_3   0.509133 0.083578 0.451585 -0.474600
C49   C     C_3   0.500903 0.917855 0.451596 -0.461151
C50   C     C_R   0.441307 0.596469 0.177005 0.530958
C51   C     C_R   0.592249 0.417870 0.177273 0.534094
C52   C     C_R   0.538903 0.625921 0.278971 -0.108649
C53   C     C_R   0.534596 0.625065 0.329208 -0.228635
C54   C     C_R   0.473306 0.379059 0.328903 -0.244750
Cu1   Cu    Cu3+1 0.499860 0.642410 0.500020 0.958854
Cu2   Cu    Cu3+1 0.499860 0.357590 0.500020 0.958261
H1    H     H_    0.565872 0.721448 0.259900 0.151229
H2    H     H_    0.734979 0.256499 0.120423 0.185971
H3    H     H_    0.714551 0.227405 0.962299 0.141049
H4    H     H_    0.714877 0.230919 0.876808 0.186736
H5    H     H_    0.107488 0.662353 0.549494 0.184987
H6    H     H_    0.106767 0.285312 0.460984 0.158786
H7    H     H_    0.091133 0.491371 0.573363 0.158146
H8    H     H_    0.093240 0.289672 0.523539 0.209472
H9    H     H_    0.883921 0.521719 0.572778 0.135409
H10   H     H_    0.889074 0.282679 0.520863 0.167408
H11   H     H_    0.451516 0.286163 0.259219 0.152895
H12   H     H_    0.909696 0.681334 0.537757 0.177960
H13   H     H_    0.893738 0.296983 0.456428 0.168541
H14   H     H_    0.694783 0.128055 0.510793 -0.020509
H15   H     H_    0.695257 0.892379 0.502649 -0.033984
H16   H     H_    0.433571 0.124191 0.429210 0.196459
H17   H     H_    0.415892 0.882864 0.432820 0.198197
H18   H     H_    0.306569 0.107343 0.498781 -0.007698
H19   H     H_    0.303318 0.871584 0.510694 0.061963
H20   H     H_    0.313722 0.767296 0.119885 0.186120
H21   H     H_    0.316514 0.483445 0.659100 0.129201
H22   H     H_    0.335463 0.486696 0.746941 0.145522
H23   H     H_    0.382601 0.820786 0.877677 0.187458
H24   H     H_    0.375441 0.821476 0.963238 0.141421
H25   H     H_    0.558174 0.720663 0.348113 0.149384
N1    N     N_R   0.513852 0.505515 0.201447 -0.463590
N2    N     N_R   0.544288 0.521335 0.796090 -0.465567
N3    N     N_3   0.500250 0.143650 0.501060 -0.204651
N4    N     N_3   0.500250 0.856350 0.501060 -0.210627
O1    O     O_R   0.317570 0.620260 0.500030 -0.578532
O2    O     O_R   0.317570 0.379740 0.500030 -0.583389
O3    O     O_R   0.499900 0.620250 0.430280 -0.585895
O4    O     O_R   0.499900 0.379750 0.430280 -0.602576
O5    O     O_R   0.682190 0.620260 0.500010 -0.606027
O6    O     O_R   0.682190 0.379740 0.500010 -0.606024
O7    O     O_R   0.499860 0.620280 0.569750 -0.522569
O8    O     O_R   0.499860 0.379720 0.569750 -0.490283
O9    O     O_2   0.362412 0.679271 0.201549 -0.550912
O10   O     O_2   0.432276 0.730096 0.795778 -0.544815
O11   O     O_2   0.664674 0.331091 0.202142 -0.548961
O12   O     O_2   0.659797 0.315080 0.795127 -0.547998
H26   H     H_    0.447230 0.282652 0.347618 0.149872
H27   H     H_    0.711976 0.527202 0.641796 0.119225
H28   H     H_    0.731021 0.541151 0.730031 0.147272
H29   H     H_    0.746307 0.258318 0.034922 0.140777
O13   O     O_3   0.101835 0.738812 0.466515 -0.614407
C55   C     C_3   0.092044 0.839747 0.429143 0.131352
H30   H     H_    0.030720 0.805485 0.399482 0.159611
H31   H     H_    0.185774 0.862959 0.413418 0.166696
C56   C     C_3   0.040447 0.973650 0.450354 -0.932373
H32   H     H_    0.100875 0.012678 0.479357 0.239118
H33   H     H_    0.035868 0.055163 0.421790 0.213454
H34   H     H_    0.945867 0.953171 0.465695 0.242276
O14   O     O_3   0.140325 0.578534 0.406404 -0.622271
C57   C     C_3   0.132890 0.443823 0.385812 -0.038579
H35   H     H_    0.044262 0.387012 0.393563 0.145836
H36   H     H_    0.211716 0.381347 0.398261 0.158622
C58   C     C_3   0.146029 0.458685 0.331313 -0.728605
H37   H     H_    0.232764 0.517596 0.321468 0.271632
H38   H     H_    0.148718 0.353383 0.314501 0.201542
H39   H     H_    0.066130 0.516095 0.317167 0.247454
H40   H     H_    0.886702 0.685336 0.448002 0.163294
H41   H     H_    0.900849 0.528881 0.415302 0.132863
O15   O     O_3   0.596141 0.127541 0.577257 -0.464808
C59   C     C_3   0.708102 0.178920 0.596261 0.100300
H42   H     H_    0.728666 0.286489 0.582641 0.137173
H43   H     H_    0.787366 0.111187 0.586940 0.090982
C60   C     C_3   0.692292 0.186243 0.650913 -0.693453
H44   H     H_    0.674256 0.081196 0.666774 0.259057
H45   H     H_    0.776095 0.234414 0.666985 0.186837
H46   H     H_    0.610111 0.247824 0.660621 0.272283
O16   O     O_3   0.620696 0.866222 0.573491 -0.474155
C61   C     C_3   0.738784 0.816082 0.584286 0.110360
H47   H     H_    0.815374 0.870762 0.563685 0.075106
H48   H     H_    0.736155 0.702861 0.577329 0.169128
C62   C     C_3   0.765425 0.830406 0.637774 -0.810360
H49   H     H_    0.678461 0.824096 0.659899 0.288832
H50   H     H_    0.827053 0.745321 0.649181 0.191530
H51   H     H_    0.816569 0.929751 0.644634 0.220721
O17   O     O_3   0.361599 0.144684 0.569066 -0.466656
C63   C     C_3   0.236593 0.134013 0.585309 0.131537
H52   H     H_    0.226324 0.051646 0.612579 0.172917
H53   H     H_    0.169377 0.109119 0.556839 0.055230
C64   C     C_3   0.202541 0.265840 0.612063 -0.847729
H54   H     H_    0.243558 0.358203 0.592923 0.249304
H55   H     H_    0.100277 0.273732 0.615147 0.191000
H56   H     H_    0.239790 0.261727 0.648998 0.245645
O18   O     O_3   0.392278 0.877219 0.577775 -0.479674
C65   C     C_3   0.287781 0.799116 0.595166 0.088861
H57   H     H_    0.291973 0.689788 0.582870 0.166776
H58   H     H_    0.199466 0.844042 0.583402 0.071574
C66   C     C_3   0.288945 0.794652 0.650188 -0.741156
H59   H     H_    0.268428 0.897571 0.666353 0.234304
H60   H     H_    0.218360 0.717321 0.664008 0.184177
H61   H     H_    0.381832 0.765000 0.662376 0.287877
H62   H     H_    0.597456 0.119308 0.433585 0.192193
H63   H     H_    0.580539 0.877305 0.430161 0.195538
H64   H     H_    0.324336 0.779023 0.034476 0.141101

loop_
_geom_bond_atom_site_label_1
_geom_bond_atom_site_label_2
_ccdc_geom_bond_type
C10   C27   A    
C1    O2    A    
C21   C26   A    
C40   C41   S    
C26   N2    S    
C45   H15   S    
C24   H27   S    
C57   H35   S    
C34   O8    A    
Cu1   Cu2   S    
O16   C61   S    
C65   C66   S    
C37   H6    S    
C19   O12   S    
C44   C45   S    
C63   H53   S    
C23   C42   S    
C47   N4    S    
C31   H2    S    
C49   H63   S    
C28   C29   A    
C66   H60   S    
C38   C42   S    
Cu1   O5    S    
C65   H57   S    
C5    C6    A    
C9    C22   A    
C56   H32   S    
C44   O15   S    
C45   O16   S    
C15   C16   A    
C53   H25   S    
C18   C19   A    
Cu1   O3    S    
O14   C57   S    
C59   C60   S    
C4    C28   A    
C40   C43   S    
C15   H23   S    
C16   C17   A    
C21   H22   S    
C66   H61   S    
C44   H14   S    
C14   H24   S    
C55   C56   S    
C36   H7    S    
C16   C20   A    
C51   O11   S    
C61   C62   S    
C21   C22   A    
C27   C30   A    
C36   C41   S    
C48   H16   S    
C4    C7    A    
C19   N2    A    
C65   H58   S    
Cu2   N3    S    
C39   C42   S    
Cu2   O6    S    
C64   H54   S    
Cu2   O8    S    
C63   C64   S    
C7    C31   A    
C12   O3    A    
C49   N4    S    
C12   O4    A    
C24   C25   A    
C57   H36   S    
C2    H11   S    
C10   C14   A    
C8    C54   A    
C62   H49   S    
Cu2   O2    S    
C40   O14   S    
C44   N3    S    
C25   C26   A    
C40   O13   S    
C47   O18   S    
C48   N3    S    
Cu1   N4    S    
C45   N4    S    
Cu1   O7    S    
C25   H28   S    
C38   H9    S    
C30   H64   S    
C8    C12   S    
C3    N1    S    
C17   C18   A    
C39   H13   S    
C23   O5    A    
C55   H31   S    
C52   C53   A    
C66   H59   S    
C64   H56   S    
C6    H20   S    
C51   N1    A    
C59   H42   S    
C60   H46   S    
C46   N3    S    
C1    C41   S    
C48   C49   S    
C6    C30   A    
C20   O10   S    
C38   H12   S    
C11   C32   A    
C33   H4    S    
C47   H19   S    
C48   H62   S    
C2    C54   A    
C9    C34   S    
C39   H10   S    
C23   O6    A    
C5    C50   A    
C42   C43   S    
C36   H5    S    
C46   H18   S    
C37   H8    S    
O15   C59   S    
C50   N1    A    
C60   H45   S    
C61   H47   S    
C1    O1    A    
C46   C47   S    
Cu2   O4    S    
C50   O9    S    
C22   H21   S    
C64   H55   S    
O18   C65   S    
C35   H29   S    
C10   C13   A    
C8    C53   A    
C58   H38   S    
C3    C52   A    
C9    C24   A    
C58   H37   S    
C63   H52   S    
C29   C35   A    
C13   C17   A    
C32   C33   A    
Cu1   O1    S    
C36   C38   S    
C2    C3    A    
C7    C51   A    
C37   C39   S    
C11   C13   A    
C56   H33   S    
C62   H51   S    
C31   C35   A    
C57   C58   S    
C49   H17   S    
C37   C41   S    
O13   C55   S    
C18   C33   A    
C34   O7    A    
C59   H43   S    
C58   H39   S    
C52   H1    S    
C43   H40   S    
C46   O17   S    
C4    C5    A    
C11   C29   A    
C62   H50   S    
C20   N2    A    
C55   H30   S    
C14   C15   A    
C54   H26   S    
C32   H3    S    
C61   H48   S    
O17   C63   S    
C43   H41   S    
C60   H44   S    
C27   C28   A    
C56   H34   S    
