data_mof_unit_59959.cif
_audit_creation_date              2012-12-10T19:27:32-0500
_audit_creation_method            fapswitch 2.2
_symmetry_space_group_name_H-M    P1
_symmetry_Int_Tables_number       1
_space_group_crystal_system       triclinic
_cell_length_a                    23.247018
_cell_length_b                    10.471856
_cell_length_c                    9.857862
_cell_angle_alpha                 88.871684
_cell_angle_beta                  90.385525
_cell_angle_gamma                 89.219845
_cell_volume                      2399.04576708

loop_
_atom_site_label
_atom_site_type_symbol
_atom_type_description
_atom_site_fract_x
_atom_site_fract_y
_atom_site_fract_z
_atom_type_partial_charge
C1    C     C_R   0.499681 0.257843 0.501208 0.854287
C2    C     C_R   0.500304 0.742166 0.498819 0.865478
C3    C     C_R   0.232179 0.515831 0.427425 -0.112069
C4    C     C_R   0.764847 0.426553 0.416158 -0.106261
C5    C     C_R   0.290652 0.539308 0.420604 -0.228981
C6    C     C_R   0.705418 0.439157 0.403173 -0.205751
C7    C     C_R   0.328971 0.467131 0.500816 -0.028325
C8    C     C_R   0.673380 0.492582 0.507853 -0.051199
C9    C     C_R   0.309163 0.366728 0.583318 -0.238435
C10   C     C_R   0.701098 0.528310 0.627740 -0.273951
C11   C     C_R   0.250442 0.343739 0.592361 0.052108
C12   C     C_R   0.759474 0.504206 0.646679 0.052465
C13   C     C_R   0.211731 0.420593 0.515773 0.278085
C14   C     C_R   0.792350 0.457523 0.538277 0.249039
C15   C     C_3   0.487700 0.036775 0.626847 -0.132286
C16   C     C_3   0.512301 0.963278 0.373410 -0.130381
C17   C     C_3   0.540274 0.954256 0.587183 -0.155318
C18   C     C_3   0.459699 0.045739 0.412967 -0.162820
C19   C     C_3   0.500480 0.877534 0.496932 0.021344
C20   C     C_3   0.499489 0.122504 0.503233 0.022353
C21   C     C_3   0.447972 0.957305 0.536461 -0.183304
C22   C     C_3   0.552000 0.042745 0.463783 -0.177326
C23   C     C_R   0.389821 0.494790 0.499819 0.860018
C24   C     C_R   0.610636 0.499489 0.501012 0.867972
C25   C     C_3   0.479071 0.394549 0.051478 -0.190773
C26   C     C_3   0.520761 0.605132 0.948300 -0.190370
C27   C     C_3   0.530647 0.406753 0.954874 0.046327
C28   C     C_3   0.469497 0.593388 0.044980 0.051741
C29   C     C_3   0.448927 0.488832 0.952257 0.044910
C30   C     C_3   0.551045 0.511487 0.047549 0.051202
C31   C     C_R   0.885149 0.549431 0.584304 0.507443
C32   C     C_R   0.121094 0.312880 0.490160 0.497318
C33   C     C_R   0.879995 0.330763 0.521851 0.499464
C34   C     C_R   0.125104 0.512545 0.602548 0.500659
C35   C     C_R   0.940028 0.320685 0.520741 -0.017556
C36   C     C_R   0.065383 0.519226 0.609472 -0.022296
C37   C     C_R   0.972626 0.424885 0.563232 -0.031351
C38   C     C_R   0.033057 0.416609 0.561467 -0.031048
C39   C     C_R   0.944849 0.538278 0.605096 -0.064783
C40   C     C_R   0.061100 0.307016 0.509835 -0.057235
C41   C     C_R   0.967762 0.208389 0.479821 -0.250411
C42   C     C_R   0.037714 0.626355 0.662991 -0.217479
C43   C     C_R   0.027838 0.199313 0.475217 0.002511
C44   C     C_R   0.977884 0.637141 0.661839 -0.000710
H1    H     H_    0.942624 0.126151 0.452592 0.191990
H2    H     H_    0.062595 0.702536 0.706260 0.183866
H3    H     H_    0.460433 0.307597 0.098993 0.129266
H4    H     H_    0.539556 0.691596 0.900071 0.128383
H5    H     H_    0.202353 0.575529 0.368959 0.128958
H6    H     H_    0.789435 0.389914 0.332160 0.165128
H7    H     H_    0.305757 0.616994 0.358023 0.139079
H8    H     H_    0.684563 0.404089 0.313305 0.174886
H9    H     H_    0.339424 0.308378 0.642488 0.150347
H10   H     H_    0.676907 0.571617 0.708780 0.154580
H11   H     H_    0.573256 0.910452 0.656096 0.133656
H12   H     H_    0.426717 0.088939 0.343588 0.137398
H13   H     H_    0.476657 0.070550 0.729464 0.147958
H14   H     H_    0.523746 0.929659 0.271076 0.148940
H15   H     H_    0.405656 0.917523 0.565399 0.145126
H16   H     H_    0.594312 0.082604 0.434914 0.143224
N1    N     N_R   0.853800 0.444994 0.549714 -0.350241
N2    N     N_R   0.151278 0.413605 0.538255 -0.351500
N3    N     N_3   0.499960 0.500030 0.863290 -0.105217
N4    N     N_3   0.500040 0.499970 0.136710 -0.103798
O1    O     O_R   0.500000 0.313960 0.616610 -0.616692
O2    O     O_R   0.500000 0.686040 0.383390 -0.612994
O3    O     O_R   0.500030 0.313950 0.383350 -0.624389
O4    O     O_R   0.499970 0.686050 0.616650 -0.622258
O5    O     O_R   0.416140 0.499970 0.616650 -0.602345
O6    O     O_R   0.583860 0.500030 0.383350 -0.605632
O7    O     O_R   0.416170 0.499960 0.383400 -0.623113
O8    O     O_R   0.583830 0.500040 0.616600 -0.628633
O9    O     O_2   0.858686 0.664417 0.593404 -0.543572
O10   O     O_2   0.148959 0.222523 0.419310 -0.552161
O11   O     O_2   0.848018 0.227708 0.494206 -0.572756
O12   O     O_2   0.157104 0.605358 0.657144 -0.583689
Zn1   Zn    Zn3+2 0.499980 0.500010 0.655740 0.953083
Zn2   Zn    Zn3+2 0.500020 0.499990 0.344260 0.955669
C45   C     C_R   0.567647 0.298253 0.905885 0.141031
C46   C     C_R   0.550950 0.171005 0.926281 -0.163307
C47   C     C_R   0.587278 0.070683 0.888066 -0.148649
C48   C     C_R   0.640171 0.096587 0.827684 -0.108174
C49   C     C_R   0.657286 0.222909 0.808098 -0.139010
C50   C     C_R   0.621441 0.323102 0.848786 -0.102720
H17   H     H_    0.510091 0.148913 0.972061 0.103875
H18   H     H_    0.574242 0.972814 0.904539 0.118492
H19   H     H_    0.668040 0.018829 0.797139 0.138829
H20   H     H_    0.698640 0.243198 0.763315 0.150134
H21   H     H_    0.636030 0.420014 0.839236 0.129593
C51   C     C_R   0.433945 0.705623 0.091398 0.152039
C52   C     C_R   0.453950 0.830760 0.072107 -0.158073
C53   C     C_R   0.418469 0.935639 0.099978 -0.154270
C54   C     C_R   0.362686 0.916880 0.146819 -0.094936
C55   C     C_R   0.342273 0.793138 0.165559 -0.146584
C56   C     C_R   0.377856 0.687677 0.139076 -0.123154
H22   H     H_    0.496782 0.847989 0.034525 0.103539
H23   H     H_    0.434132 0.031608 0.084823 0.116087
H24   H     H_    0.335129 0.998227 0.167530 0.138248
H25   H     H_    0.298450 0.779455 0.198388 0.135077
H26   H     H_    0.361053 0.592303 0.151238 0.136744
C57   C     C_1   0.389947 0.475967 0.901586 0.174056
N5    N     N_1   0.342944 0.466631 0.864332 -0.191098
C58   C     C_1   0.609182 0.538972 0.095820 0.155595
N6    N     N_1   0.655271 0.563578 0.130418 -0.213176
C59   C     C_R   0.053590 0.072634 0.445265 0.170762
C60   C     C_R   0.090776 0.011559 0.539876 -0.109440
C61   C     C_R   0.114203 0.891206 0.513173 -0.127507
C62   C     C_R   0.099538 0.829185 0.393850 -0.097317
C63   C     C_R   0.061772 0.888120 0.300349 -0.133334
C64   C     C_R   0.038849 0.009443 0.325693 -0.145008
H27   H     H_    0.101708 0.057459 0.633944 0.140125
H28   H     H_    0.143512 0.846008 0.585520 0.189876
H29   H     H_    0.117290 0.735395 0.374021 0.134199
H30   H     H_    0.050291 0.839851 0.208135 0.140229
H31   H     H_    0.009721 0.054153 0.252260 0.134125
C65   C     C_R   0.951940 0.746370 0.733534 0.178349
C66   C     C_R   0.922125 0.725245 0.855170 -0.096665
C67   C     C_R   0.898837 0.828244 0.925403 -0.124645
C68   C     C_R   0.905609 0.952863 0.875297 -0.105907
C69   C     C_R   0.935644 0.974603 0.754878 -0.114736
C70   C     C_R   0.958770 0.871749 0.683938 -0.129856
H32   H     H_    0.917340 0.629168 0.895771 0.133131
H33   H     H_    0.875809 0.811491 0.018998 0.146854
H34   H     H_    0.887741 0.032603 0.929965 0.136574
H35   H     H_    0.941036 0.071222 0.717000 0.149119
H36   H     H_    0.981621 0.889337 0.590361 0.138987
C71   C     C_1   0.230421 0.245889 0.684949 0.195343
N7    N     N_1   0.214328 0.167389 0.759155 -0.203535
C72   C     C_1   0.784073 0.522978 0.779600 0.189747
N8    N     N_1   0.803498 0.537690 0.886446 -0.216506

loop_
_geom_bond_atom_site_label_1
_geom_bond_atom_site_label_2
_ccdc_geom_bond_type
C38   C40   A    
C59   C64   A    
C29   N3    S    
C54   C55   A    
C30   N4    S    
O6    Zn2   S    
C18   C21   S    
C41   C43   A    
C61   H28   S    
C23   O5    A    
C36   C42   A    
C66   H32   S    
C47   C48   A    
C3    H5    S    
C24   O6    A    
C51   C56   A    
C68   H34   S    
C62   C63   A    
C46   H17   S    
C28   C29   S    
C35   C37   A    
C37   C38   A    
C21   H15   S    
C27   C45   S    
C32   O10   S    
C45   C50   A    
C31   O9    S    
C60   C61   A    
C48   H19   S    
C34   N2    A    
C65   C66   A    
C15   C17   S    
C43   C59   S    
C31   N1    A    
C67   C68   A    
C33   C35   A    
C52   H22   S    
O5    Zn1   S    
C33   O11   S    
C40   C43   A    
C13   N2    S    
C30   C58   S    
C1    O1    A    
C61   C62   A    
C17   H11   S    
C18   C20   S    
C47   H18   S    
C3    C13   A    
C18   H12   S    
C49   H20   S    
C27   C30   S    
C15   H13   S    
O3    Zn2   S    
C42   C44   A    
C35   C41   A    
C26   C28   S    
C53   H23   S    
C60   H27   S    
C25   C29   S    
C15   C20   S    
O2    Zn2   S    
O1    Zn1   S    
C12   C72   S    
C57   N5    T    
C23   O7    A    
C4    C6    A    
C65   C70   A    
C52   C53   A    
C5    C7    A    
C69   H35   S    
C17   C19   S    
C6    C8    A    
C3    C5    A    
C14   N1    S    
C4    H6    S    
C25   N4    S    
C62   H29   S    
C11   C71   S    
C26   N3    S    
O8    Zn1   S    
C27   N3    S    
C49   C50   A    
C29   C57   S    
C16   C18   S    
C16   H14   S    
C9    C11   A    
C10   C12   A    
C63   H30   S    
C28   N4    S    
C8    C10   A    
C12   C14   A    
C26   C30   S    
C42   H2    S    
C9    H9    S    
C50   H21   S    
C71   N7    T    
C69   C70   A    
C24   O8    A    
C72   N8    T    
N3    Zn1   S    
O4    Zn1   S    
C7    C9    A    
C25   H3    S    
C1    C20   S    
C16   C22   S    
C19   C21   S    
C2    C19   S    
C56   H26   S    
N4    Zn2   S    
C20   C22   S    
C46   C47   A    
C2    O2    A    
C68   C69   A    
C39   C44   A    
C1    O3    A    
C26   H4    S    
C25   C27   S    
C59   C60   A    
C2    O4    A    
C17   C22   S    
C36   C38   A    
C32   N2    A    
C70   H36   S    
C37   C39   A    
C66   C67   A    
C22   H16   S    
C11   C13   A    
C51   C52   A    
C55   H25   S    
C16   C19   S    
C7    C23   S    
C64   H31   S    
C53   C54   A    
C8    C24   S    
C31   C39   A    
C34   C36   A    
C67   H33   S    
C32   C40   A    
C4    C14   A    
C55   C56   A    
C10   H10   S    
C45   C46   A    
C15   C21   S    
C44   C65   S    
C33   N1    A    
C48   C49   A    
C58   N6    T    
C41   H1    S    
C5    H7    S    
C28   C51   S    
C6    H8    S    
C63   C64   A    
C54   H24   S    
O7    Zn2   S    
C34   O12   S    
