data_mof_unit_16967.cif
_audit_creation_date              2012-12-10T20:45:27-0500
_audit_creation_method            fapswitch 2.2
_symmetry_space_group_name_H-M    P1
_symmetry_Int_Tables_number       1
_space_group_crystal_system       triclinic
_cell_length_a                    10.745008
_cell_length_b                    10.709677
_cell_length_c                    9.83709
_cell_angle_alpha                 89.794706
_cell_angle_beta                  90.457691
_cell_angle_gamma                 89.876801
_cell_volume                      1131.96261925

loop_
_atom_site_label
_atom_site_type_symbol
_atom_type_description
_atom_site_fract_x
_atom_site_fract_y
_atom_site_fract_z
_atom_type_partial_charge
C1    C     C_R   0.497716 0.259884 0.500044 0.887126
C2    C     C_R   0.215374 0.739923 0.037414 -0.106998
C3    C     C_R   0.931923 0.549670 0.389443 -0.246242
C4    C     C_R   0.872648 0.500481 0.503527 -0.075586
C5    C     C_R   0.940942 0.458529 0.617864 0.002676
C6    C     C_R   0.068258 0.462536 0.612706 -0.246166
C7    C     C_R   0.127731 0.510301 0.498304 -0.082661
C8    C     C_R   0.059799 0.557509 0.385989 -0.001818
C9    C     C_R   0.863837 0.490986 0.852849 -0.148343
C10   C     C_R   0.818143 0.446169 0.976188 -0.152586
C11   C     C_R   0.794264 0.319089 0.992936 -0.130887
C12   C     C_R   0.260136 0.505024 0.499173 0.869988
C13   C     C_R   0.816257 0.236276 0.886361 -0.197149
C14   C     C_R   0.861142 0.280337 0.761583 0.048082
C15   C     C_R   0.885065 0.408887 0.744401 0.103851
C16   C     C_R   0.468588 0.063335 0.620702 0.127223
C17   C     C_R   0.482177 0.128313 0.498951 -0.090949
C18   C     C_R   0.477324 0.064783 0.374675 -0.225991
C19   C     C_R   0.478633 0.936149 0.374540 -0.244050
C20   C     C_R   0.482598 0.871628 0.498539 -0.095404
C21   C     C_R   0.468241 0.935543 0.620425 0.138898
C22   C     C_3   0.545078 0.927481 0.747424 -0.502430
C23   C     C_R   0.497935 0.740078 0.499688 0.872503
C24   C     C_3   0.546970 0.068594 0.746678 -0.479519
C25   C     C_R   0.464874 0.395681 0.071521 0.209862
C26   C     C_R   0.545203 0.598737 0.072058 -0.138448
C27   C     C_R   0.545956 0.598354 0.928007 -0.128089
C28   C     C_R   0.462875 0.396561 0.928693 0.241091
C29   C     C_3   0.336858 0.338392 0.924402 -0.521123
C30   C     C_3   0.341528 0.333079 0.078484 -0.504359
C31   C     C_R   0.740095 0.498259 0.501052 0.878875
C32   C     C_R   0.234452 0.789709 0.166969 -0.132975
C33   C     C_R   0.186050 0.729417 0.281335 -0.088170
C34   C     C_R   0.116803 0.619112 0.266244 0.136824
C35   C     C_R   0.095890 0.571190 0.135291 -0.194587
C36   C     C_R   0.145872 0.630868 0.021548 -0.137366
H1    H     H_    0.253577 0.786416 0.949258 0.124565
H2    H     H_    0.759279 0.284649 0.088858 0.143068
H3    H     H_    0.798786 0.137670 0.901599 0.136898
H4    H     H_    0.481825 0.113361 0.278139 0.163302
H5    H     H_    0.485425 0.888268 0.278131 0.163670
H6    H     H_    0.491722 0.887911 0.833754 0.193340
H7    H     H_    0.638207 0.884881 0.730886 0.206374
H8    H     H_    0.497707 0.109703 0.834436 0.196260
H9    H     H_    0.640400 0.107902 0.726730 0.214585
H10   H     H_    0.580303 0.679047 0.126371 0.142219
H11   H     H_    0.285511 0.875877 0.178286 0.123320
H12   H     H_    0.582731 0.677732 0.873721 0.143050
H13   H     H_    0.264585 0.403378 0.884613 0.210696
H14   H     H_    0.336530 0.244894 0.876369 0.197270
H15   H     H_    0.349108 0.236361 0.118874 0.189527
H16   H     H_    0.201116 0.769297 0.381128 0.106957
H17   H     H_    0.042659 0.486412 0.121789 0.145011
H18   H     H_    0.130309 0.592861 0.921094 0.133120
H19   H     H_    0.878313 0.586174 0.304137 0.157363
H20   H     H_    0.120979 0.425977 0.698458 0.154991
H21   H     H_    0.883320 0.589682 0.841863 0.128900
H22   H     H_    0.802313 0.509949 0.059350 0.138385
N1    N     N_R   0.499160 0.499140 0.142800 -0.100886
N2    N     N_R   0.499160 0.499180 0.857150 -0.101137
O1    O     O_R   0.500020 0.316790 0.614690 -0.615568
O2    O     O_R   0.500000 0.316760 0.385350 -0.626648
O3    O     O_R   0.316770 0.500030 0.614670 -0.629190
O4    O     O_R   0.316750 0.499990 0.385330 -0.610309
O5    O     O_R   0.500000 0.683240 0.614650 -0.626100
O6    O     O_R   0.499980 0.683210 0.385310 -0.628647
O7    O     O_R   0.683250 0.500010 0.614670 -0.611616
O8    O     O_R   0.683230 0.499970 0.385330 -0.628547
Zn1   Zn    Zn3+2 0.500010 0.500020 0.653130 0.949816
Zn2   Zn    Zn3+2 0.499990 0.499980 0.346870 0.945723
C37   C     C_1   0.883245 0.192747 0.653229 0.098004
N3    N     N_1   0.900783 0.122573 0.566254 -0.208320
H23   H     H_    0.269976 0.391253 0.128343 0.235453

loop_
_geom_bond_atom_site_label_1
_geom_bond_atom_site_label_2
_ccdc_geom_bond_type
C27   H12   S    
C11   H2    S    
C30   H15   S    
C16   C21   A    
O4    Zn2   S    
C35   H17   S    
C29   C30   S    
C14   C37   S    
C1    C17   S    
C19   C20   A    
C20   C23   S    
C27   N2    A    
C32   C33   A    
C23   O5    A    
C33   C34   A    
C9    C15   A    
C19   H5    S    
C7    C8    A    
C16   C24   S    
C22   H6    S    
C21   C22   S    
C1    O2    A    
C33   H16   S    
C31   O7    A    
C11   C13   A    
C2    H1    S    
C26   C27   A    
O6    Zn2   S    
N2    Zn1   S    
O5    Zn1   S    
C24   H9    S    
C23   O6    A    
C2    C32   A    
C28   C29   S    
C10   H22   S    
C25   C28   A    
C17   C18   A    
C6    C7    A    
C9    H21   S    
C29   H14   S    
C28   N2    A    
C3    C8    A    
C5    C6    A    
C24   H8    S    
C32   H11   S    
C22   C24   S    
C7    C12   S    
C13   H3    S    
C4    C31   S    
C5    C15   S    
C10   C11   A    
C26   H10   S    
N1    Zn2   S    
O1    Zn1   S    
C3    C4    A    
C8    C34   S    
C37   N3    T    
C36   H18   S    
C20   C21   A    
O2    Zn2   S    
O8    Zn2   S    
C34   C35   A    
C9    C10   A    
C2    C36   A    
C25   C30   S    
C30   H23   S    
C12   O4    A    
C18   H4    S    
C14   C15   A    
C18   C19   A    
C26   N1    A    
C29   H13   S    
C25   N1    A    
C13   C14   A    
C12   O3    A    
C3    H19   S    
C31   O8    A    
C22   H7    S    
O3    Zn1   S    
C16   C17   A    
C6    H20   S    
C4    C5    A    
O7    Zn1   S    
C35   C36   A    
C1    O1    A    
