data_mof_unit_47199.cif
_audit_creation_date              2013-03-05T15:55:17-0500
_audit_creation_method            fapswitch 2.2
_symmetry_space_group_name_H-M    P1
_symmetry_Int_Tables_number       1
_space_group_crystal_system       triclinic
_cell_length_a                    14.740905
_cell_length_b                    14.708297
_cell_length_c                    33.079828
_cell_angle_alpha                 96.069993
_cell_angle_beta                  96.230675
_cell_angle_gamma                 61.369443
_cell_volume                      6246.13362798

loop_
_atom_site_label
_atom_site_type_symbol
_atom_site_description
_atom_site_fract_x
_atom_site_fract_y
_atom_site_fract_z
_atom_type_partial_charge
O1    O     O_R   0.679450 0.499830 0.463150 -0.554899
O2    O     O_R   0.480650 0.664000 0.464630 -0.531965
C1    C     C_R   0.390496 0.700601 0.446356 0.829312
O3    O     O_R   0.323930 0.675950 0.455370 -0.535688
O4    O     O_R   0.354700 0.475360 0.451930 -0.533646
C2    C     C_R   0.406221 0.386282 0.433870 0.889791
O5    O     O_R   0.494470 0.320860 0.448390 -0.512911
O6    O     O_R   0.662580 0.357570 0.460050 -0.517453
C3    C     C_R   0.704079 0.408169 0.448080 0.814848
O7    O     O_R   0.680900 0.502040 0.551870 -0.526566
O8    O     O_R   0.481990 0.666040 0.546870 -0.513551
C4    C     C_R   0.391956 0.704649 0.560869 0.881425
O9    O     O_R   0.325370 0.678160 0.544080 -0.494517
O10   O     O_R   0.356040 0.477400 0.534170 -0.512755
C5    C     C_R   0.407694 0.388506 0.549396 0.864759
O11   O     O_R   0.495910 0.323070 0.537100 -0.518199
O12   O     O_R   0.663920 0.359620 0.542290 -0.526237
C6    C     C_R   0.707370 0.410647 0.561490 0.827009
Cr1   Cr    Cr6+3 0.576280 0.580550 0.506370 1.058550
Cr2   Cr    Cr6+3 0.346780 0.572400 0.496520 1.098400
Cr3   Cr    Cr6+3 0.576960 0.347070 0.497150 1.083635
O13   O     O_3   0.500010 0.500010 0.500010 -0.385367
C7    C     C_R   0.378597 0.371167 0.390507 -0.186223
C8    C     C_R   0.333364 0.459167 0.367678 -0.260739
C9    C     C_R   0.336573 0.450334 0.325558 0.395309
C10   C     C_R   0.381001 0.350895 0.305370 -0.092790
C11   C     C_R   0.419473 0.260514 0.327446 -0.198868
C12   C     C_R   0.418710 0.271208 0.370453 0.302553
C13   C     C_R   0.422752 0.292360 0.156069 0.414497
C14   C     C_R   0.400387 0.276703 0.114026 -0.195965
C15   C     C_R   0.215488 0.361053 0.126294 0.354916
C16   C     C_R   0.237370 0.386512 0.166918 -0.187406
C17   C     C_R   0.341449 0.344592 0.182172 -0.098296
C18   C     C_1   0.364209 0.343480 0.225376 0.219233
C19   C     C_1   0.375571 0.344416 0.261767 0.220800
C20   C     C_R   0.296732 0.302848 0.099965 -0.261400
H1    H     H_    0.303927 0.535951 0.382899 0.193775
N1    N     N_R   0.732949 0.400477 0.219999 -0.142386
N2    N     N_R   0.728050 0.406947 0.260205 -0.176654
C21   C     C_R   0.765282 0.368407 0.410997 -0.210411
C22   C     C_R   0.795600 0.433011 0.393374 -0.186277
C23   C     C_R   0.807549 0.421017 0.351067 0.347197
C24   C     C_R   0.798067 0.340324 0.327575 -0.214149
C25   C     C_R   0.787593 0.264809 0.346347 0.277914
C26   C     C_R   0.774576 0.276614 0.388470 -0.175471
N3    N     N_R   0.884383 0.252577 0.265178 -0.169873
N4    N     N_R   0.889645 0.246601 0.225053 -0.232443
C27   C     C_R   0.813865 0.320062 0.201707 0.631533
C28   C     C_R   0.803556 0.332930 0.283345 0.644478
C29   C     C_R   0.808043 0.399789 0.137817 0.386341
C30   C     C_R   0.838780 0.387859 0.097780 -0.190533
C31   C     C_R   0.890408 0.202804 0.096044 0.342973
C32   C     C_R   0.853882 0.216133 0.134970 -0.215612
C33   C     C_R   0.822417 0.312641 0.157321 -0.157389
C34   C     C_R   0.891910 0.286513 0.078845 -0.236706
N5    N     N_R   0.293025 0.787403 0.222778 -0.132321
N6    N     N_R   0.296410 0.782752 0.262844 -0.136970
C35   C     C_R   0.367269 0.761108 0.410473 -0.184539
C36   C     C_R   0.267661 0.803777 0.390976 -0.151955
C37   C     C_R   0.248988 0.841736 0.352262 0.370502
C38   C     C_R   0.333025 0.833987 0.332464 -0.237734
C39   C     C_R   0.431713 0.799611 0.353511 0.343208
C40   C     C_R   0.447098 0.765171 0.392693 -0.161134
N7    N     N_R   0.342661 0.915384 0.273260 -0.217233
N8    N     N_R   0.338853 0.920200 0.233154 -0.252590
C41   C     C_R   0.314350 0.856067 0.207124 0.592521
C42   C     C_R   0.321525 0.846392 0.288666 0.641890
C43   C     C_R   0.254080 0.828813 0.134257 0.335278
C44   C     C_R   0.251275 0.842331 0.092414 -0.175390
C45   C     C_R   0.374890 0.909476 0.107748 0.351938
C46   C     C_R   0.377940 0.894268 0.148766 -0.171901
C47   C     C_R   0.313992 0.860133 0.162747 -0.149298
C48   C     C_R   0.301881 0.895155 0.079949 -0.207403
H2    H     H_    0.204769 0.804505 0.405408 0.210726
H3    H     H_    0.524206 0.733051 0.407706 0.199511
H4    H     H_    0.430848 0.909873 0.170048 0.225043
N9    N     N_R   0.279418 0.460741 0.774759 -0.162677
N10   N     N_R   0.281465 0.467779 0.735097 -0.162525
C49   C     C_R   0.372372 0.369139 0.586633 -0.216536
C50   C     C_R   0.266390 0.425390 0.594895 0.294383
C51   C     C_R   0.236836 0.433674 0.634870 0.279538
C52   C     C_R   0.312716 0.385246 0.666328 -0.165656
C53   C     C_R   0.417392 0.321376 0.657654 -0.132650
C54   C     C_R   0.446274 0.310139 0.617493 -0.134680
N11   N     N_R   0.280747 0.308765 0.721283 -0.243567
N12   N     N_R   0.278656 0.301729 0.760864 -0.262638
C55   C     C_R   0.280099 0.376477 0.788266 0.580991
C56   C     C_R   0.282864 0.391510 0.707773 0.658586
C57   C     C_R   0.209091 0.430153 0.856618 0.303407
C58   C     C_R   0.211514 0.407805 0.897140 0.243003
C59   C     C_R   0.380593 0.255572 0.889784 0.354079
C60   C     C_R   0.380240 0.280029 0.849507 -0.223167
C61   C     C_R   0.289591 0.361664 0.832014 -0.267315
C62   C     C_R   0.291099 0.312928 0.911981 -0.332743
C63   C     C_R   0.776941 0.370542 0.599377 -0.104234
C64   C     C_R   0.809782 0.435337 0.624745 -0.102597
C65   C     C_R   0.829085 0.422018 0.667243 -0.164097
C66   C     C_R   0.826485 0.337757 0.682792 -0.055600
C67   C     C_R   0.820174 0.259678 0.656087 0.335806
C68   C     C_R   0.798038 0.274405 0.613921 -0.226326
C69   C     C_R   0.885610 0.214918 0.821203 0.300611
C70   C     C_R   0.905261 0.202591 0.863418 -0.246400
C71   C     C_R   0.850859 0.388228 0.875520 0.284886
C72   C     C_R   0.829543 0.399787 0.833072 0.261021
C73   C     C_R   0.851859 0.312280 0.806134 -0.172491
C74   C     C_1   0.842005 0.321542 0.762631 0.211742
C75   C     C_1   0.835266 0.328258 0.726326 0.086905
C76   C     C_R   0.899276 0.287338 0.890414 -0.240986
C77   C     C_R   0.370107 0.766678 0.600982 -0.289106
C78   C     C_R   0.274146 0.800304 0.618326 0.278412
C79   C     C_R   0.264508 0.828271 0.660452 -0.224569
C80   C     C_R   0.352530 0.818985 0.685227 -0.139306
C81   C     C_R   0.442907 0.799538 0.667393 0.295894
C82   C     C_R   0.449860 0.778789 0.624878 0.222484
C83   C     C_R   0.413303 0.850016 0.836027 0.262495
C84   C     C_R   0.395695 0.874000 0.878070 0.275048
C85   C     C_R   0.229228 0.876129 0.864131 -0.247175
C86   C     C_R   0.251737 0.839740 0.823729 0.383898
C87   C     C_R   0.339740 0.835890 0.808886 -0.210031
C88   C     C_1   0.349081 0.828186 0.765512 0.228953
C89   C     C_1   0.352456 0.824282 0.729110 0.224215
C90   C     C_R   0.296944 0.899734 0.890820 -0.259200
H5    H     H_    0.157179 0.887817 0.874646 0.211980
O14   O     O_R   0.170070 0.978950 0.027680 -0.502287
O15   O     O_R   0.001760 0.175230 0.026640 -0.494094
C91   C     C_R   0.959696 0.265510 0.044721 0.858171
O16   O     O_R   0.984760 0.333570 0.037150 -0.520384
O17   O     O_R   0.183410 0.309240 0.041890 -0.492090
C92   C     C_R   0.273471 0.260869 0.059682 0.813758
O18   O     O_R   0.340240 0.172500 0.045430 -0.528922
O19   O     O_R   0.309670 0.000990 0.032050 -0.506286
C93   C     C_R   0.261051 0.956689 0.043145 0.887809
O20   O     O_R   0.168330 0.982130 0.939200 -0.545156
O21   O     O_R   0.000140 0.178170 0.944610 -0.533374
C94   C     C_R   0.959499 0.268344 0.931013 0.856468
O22   O     O_R   0.983010 0.336750 0.948660 -0.501922
O23   O     O_R   0.181800 0.312190 0.959860 -0.514002
C95   C     C_R   0.271842 0.266323 0.946040 0.839564
O24   O     O_R   0.338500 0.175680 0.956950 -0.503542
O25   O     O_R   0.308050 0.003930 0.950020 -0.505973
C96   C     C_R   0.257921 0.961464 0.929622 0.863477
Cr4   Cr    Cr6+3 0.087320 0.083240 0.984860 1.109522
Cr5   Cr    Cr6+3 0.087720 0.316210 0.996740 1.137955
Cr6   Cr    Cr6+3 0.317350 0.090340 0.995890 1.142926
O26   O     O_3   0.164130 0.163270 0.992500 -0.392471
C97   C     C_2   0.482381 0.239154 0.084276 0.638318
H6    H     H_    0.461171 0.244682 0.051861 0.052135
O27   O     O_2   0.574035 0.204791 0.095171 -0.447994
C98   C     C_2   0.769906 0.192553 0.407926 0.622842
H7    H     H_    0.732789 0.149973 0.391549 0.117048
O28   O     O_2   0.811621 0.167114 0.441788 -0.458523
C99   C     C_2   0.815046 0.480461 0.075478 0.703710
H8    H     H_    0.804021 0.477405 0.042484 0.052336
O29   O     O_2   0.808664 0.560173 0.093268 -0.406818
N13   N     N_R   0.831752 0.488892 0.331760 0.169911
O30   O     O_R   0.759503 0.582224 0.324396 -0.233189
O31   O     O_R   0.920352 0.452280 0.315741 -0.314157
N14   N     N_R   0.787830 0.177284 0.322365 0.122759
O32   O     O_R   0.719430 0.191365 0.291985 -0.293507
O33   O     O_R   0.858185 0.083451 0.330180 -0.265730
N15   N     N_R   0.765755 0.499794 0.159303 0.163518
O34   O     O_R   0.669444 0.567704 0.151764 -0.298761
O35   O     O_R   0.823324 0.522658 0.186619 -0.282224
N16   N     N_R   0.925770 0.103723 0.074052 0.093711
O36   O     O_R   0.872349 0.092638 0.041743 -0.296771
O37   O     O_R   0.011630 0.024769 0.086173 -0.395008
C100  C     C_2   0.847188 0.128773 0.151339 0.678026
H9    H     H_    0.891704 0.049688 0.139164 0.131916
O38   O     O_2   0.788725 0.144308 0.177730 -0.420222
C101  C     C_2   0.194620 0.801657 0.062397 0.648035
H10   H     H_    0.131377 0.791978 0.071477 0.132779
O39   O     O_2   0.220583 0.774922 0.027471 -0.485341
N17   N     N_R   0.527737 0.251170 0.172902 0.170020
O40   O     O_R   0.559649 0.312566 0.193059 -0.313289
O41   O     O_R   0.585172 0.151202 0.174125 -0.236799
N18   N     N_R   0.145421 0.885304 0.333105 0.176925
O42   O     O_R   0.078350 0.860743 0.344271 -0.256755
O43   O     O_R   0.113948 0.958358 0.307878 -0.308445
N19   N     N_R   0.519111 0.791133 0.334631 0.156697
O44   O     O_R   0.587060 0.811606 0.356253 -0.266046
O45   O     O_R   0.540127 0.747472 0.298123 -0.291412
N20   N     N_R   0.192741 0.787541 0.147707 0.113642
O46   O     O_R   0.218098 0.690025 0.139880 -0.324748
O47   O     O_R   0.108760 0.848587 0.166119 -0.302028
N21   N     N_R   0.445441 0.940875 0.095130 0.147182
O48   O     O_R   0.501984 0.890376 0.064648 -0.280507
O49   O     O_R   0.466248 0.007078 0.117990 -0.326564
N22   N     N_R   0.188800 0.474168 0.562650 0.167249
O50   O     O_R   0.114606 0.568608 0.568145 -0.250273
O51   O     O_R   0.191932 0.423808 0.527578 -0.326884
C102  C     C_2   0.556281 0.241868 0.609362 0.515882
H11   H     H_    0.615022 0.258908 0.625247 0.000866
O52   O     O_2   0.581399 0.164548 0.586212 -0.450139
N23   N     N_R   0.131419 0.480124 0.922696 0.179212
O53   O     O_R   0.034351 0.514414 0.910465 -0.258378
O54   O     O_R   0.155653 0.511515 0.958493 -0.311083
N24   N     N_R   0.129297 0.487846 0.643146 0.168477
O55   O     O_R   0.096627 0.561232 0.672015 -0.277625
O56   O     O_R   0.063918 0.462662 0.622135 -0.293049
C103  C     C_2   0.498154 0.264357 0.690236 0.473608
H12   H     H_    0.561303 0.187748 0.683191 0.136963
O57   O     O_2   0.497222 0.303532 0.724716 -0.505664
C104  C     C_2   0.458001 0.155006 0.306447 0.598024
H13   H     H_    0.456634 0.093184 0.321150 0.122214
O58   O     O_2   0.493306 0.135019 0.273007 -0.460401
N25   N     N_R   0.124375 0.522162 0.840461 0.195768
O59   O     O_R   0.102515 0.612909 0.858200 -0.245160
O60   O     O_R   0.068509 0.515554 0.808157 -0.282131
N26   N     N_R   0.470410 0.171121 0.907707 0.189400
O61   O     O_R   0.515260 0.187045 0.941777 -0.299746
O62   O     O_R   0.505748 0.077777 0.890640 -0.257005
C105  C     C_2   0.474819 0.223811 0.825892 0.670102
H14   H     H_    0.468735 0.221082 0.792912 0.078155
O63   O     O_2   0.561507 0.183395 0.842971 -0.422353
C106  C     C_2   0.926141 0.102047 0.878213 0.632615
H15   H     H_    0.974251 0.029637 0.861652 0.094935
O64   O     O_2   0.884347 0.099712 0.907717 -0.445729
N27   N     N_R   0.899668 0.128141 0.793399 0.147623
O65   O     O_R   0.992698 0.055177 0.786462 -0.306363
O66   O     O_R   0.820832 0.128743 0.771293 -0.262012
N28   N     N_R   0.841494 0.163507 0.671803 0.107992
O67   O     O_R   0.769110 0.136559 0.670652 -0.353538
O68   O     O_R   0.930392 0.108004 0.691026 -0.283963
C107  C     C_2   0.806747 0.185697 0.585401 0.564118
H16   H     H_    0.794988 0.124566 0.595423 0.130075
O69   O     O_2   0.832849 0.176954 0.550804 -0.458722
C108  C     C_2   0.827028 0.514075 0.606921 0.694397
H17   H     H_    0.812327 0.586455 0.623759 0.146167
O70   O     O_2   0.862428 0.496514 0.573565 -0.463192
N29   N     N_R   0.783607 0.500321 0.817109 0.171622
O71   O     O_R   0.840802 0.544155 0.813929 -0.247724
O72   O     O_R   0.692783 0.536335 0.797684 -0.312229
N30   N     N_R   0.816423 0.478277 0.903723 0.185747
O73   O     O_R   0.774231 0.480143 0.936598 -0.328960
O74   O     O_R   0.820044 0.561103 0.895717 -0.210106
N31   N     N_R   0.461275 0.181063 0.393908 0.102827
O75   O     O_R   0.554959 0.106719 0.388968 -0.328703
O76   O     O_R   0.410013 0.177469 0.422806 -0.318593
C109  C     C_2   0.852776 0.494024 0.696100 0.557491
H18   H     H_    0.821031 0.516226 0.725807 0.136038
O77   O     O_2   0.911736 0.524926 0.688006 -0.434946
N32   N     N_R   0.479047 0.862539 0.907969 0.185137
O78   O     O_R   0.557774 0.871395 0.898656 -0.212089
O79   O     O_R   0.485431 0.824758 0.942647 -0.303905
N33   N     N_R   0.503778 0.842850 0.820494 0.208627
O80   O     O_R   0.512619 0.926422 0.819479 -0.263910
O81   O     O_R   0.566245 0.758436 0.800479 -0.242982
N34   N     N_R   0.527278 0.801899 0.692626 0.184054
O82   O     O_R   0.607977 0.715200 0.702247 -0.308891
O83   O     O_R   0.515146 0.888340 0.711953 -0.285605
N35   N     N_R   0.533680 0.777112 0.605673 0.151695
O84   O     O_R   0.628034 0.731146 0.621694 -0.336849
O85   O     O_R   0.513936 0.830835 0.574018 -0.311423
N36   N     N_R   0.185321 0.809178 0.592911 0.121253
O86   O     O_R   0.147354 0.746952 0.596433 -0.312257
O87   O     O_R   0.149049 0.872215 0.563532 -0.306861
N37   N     N_R   0.183349 0.810090 0.798059 0.188999
O88   O     O_R   0.090001 0.839807 0.808342 -0.266204
O89   O     O_R   0.218650 0.740682 0.767942 -0.322823
C110  C     C_2   0.161712 0.868005 0.677762 0.662054
H19   H     H_    0.101089 0.854807 0.661271 0.141288
O90   O     O_2   0.141629 0.919593 0.710108 -0.452022
C111  C     C_2   0.149805 0.453121 0.193280 0.601258
H20   H     H_    0.072789 0.462309 0.185010 0.143979
O91   O     O_2   0.161427 0.501881 0.223806 -0.453866
N38   N     N_R   0.110469 0.388658 0.112752 0.080094
O92   O     O_R   0.069129 0.334642 0.123229 -0.409825
O93   O     O_R   0.051939 0.476950 0.096532 -0.301371
N39   N     N_R   0.296714 0.543410 0.303917 0.139114
O94   O     O_R   0.218231 0.628279 0.316955 -0.296579
O95   O     O_R   0.346170 0.547591 0.274474 -0.320785
C112  C     C_2   0.821757 0.506920 0.419874 0.606686
H21   H     H_    0.845770 0.492690 0.451784 0.080257
O96   O     O_2   0.817285 0.583656 0.406859 -0.425078

loop_
_geom_bond_atom_site_label_1
_geom_bond_atom_site_label_2
_geom_bond_distance
_ccdc_geom_bond_type
O6    C3    1.279085 A    
N23   O54   1.301391 A    
C104  H13   1.084896 S    
C67   N28   1.436632 S    
C91   O16   1.276277 A    
N13   O31   1.300931 A    
C25   N14   1.437666 S    
C22   C23   1.411474 A    
C73   C74   1.444904 S    
C63   C64   1.425342 A    
C17   C18   1.432132 S    
C59   N26   1.434110 S    
O17   C92   1.276266 A    
C102  O52   1.220945 D    
C65   C66   1.409465 A    
N27   O65   1.300316 A    
O9    Cr2   2.028364 S    
C111  H20   1.084129 S    
C100  O38   1.220443 D    
O4    Cr2   1.912842 S    
N11   N12   1.329094 A    
N34   O82   1.300939 A    
C27   C33   1.475369 S    
C104  O58   1.220839 D    
N3    C28   1.353996 A    
O8    Cr1   1.918570 S    
C10   C11   1.419517 A    
C29   C33   1.410358 A    
O15   C91   1.276292 A    
C84   C90   1.418328 A    
C54   C102  1.478968 S    
C53   C54   1.408000 A    
C11   C104  1.492106 S    
Cr3   O13   1.972010 S    
N16   O36   1.300949 A    
C109  H18   1.084794 S    
O7    C6    1.273314 A    
C92   O18   1.274974 A    
O22   Cr5   2.031061 S    
C53   C103  1.496042 S    
C106  O64   1.221157 D    
C57   N25   1.437053 S    
C51   N24   1.435400 S    
O4    C2    1.276587 A    
N5    C41   1.355417 A    
N21   O49   1.301612 A    
C74   C75   1.204862 T    
C68   C107  1.488076 S    
N20   O47   1.300954 A    
C83   C84   1.418774 A    
C66   C67   1.406382 A    
C13   C17   1.405052 A    
C20   C92   1.484655 S    
N5    N6    1.328635 A    
O14   C93   1.277994 A    
C22   C112  1.491871 S    
N22   O51   1.301481 A    
C18   C19   1.196789 T    
N24   O56   1.300505 A    
C108  H17   1.081787 S    
C86   C87   1.410362 A    
C4    C77   1.500661 S    
N36   O87   1.301055 A    
C45   N21   1.436781 S    
C78   C79   1.413145 A    
C50   N22   1.439197 S    
C72   N29   1.432431 S    
C69   N27   1.434445 S    
C32   C100  1.494713 S    
C41   C47   1.474849 S    
C67   C68   1.412928 A    
C103  H12   1.084823 S    
N32   O79   1.301861 A    
C7    C8    1.400187 A    
C44   C48   1.421299 A    
C45   C46   1.390839 A    
C70   C106  1.485042 S    
N24   O55   1.301037 A    
C13   C14   1.414730 A    
O18   Cr6   2.027724 S    
N30   O73   1.301706 A    
O15   Cr4   1.918086 S    
C15   C20   1.418418 A    
N1    C27   1.356886 A    
C59   C60   1.415180 A    
C31   C34   1.420237 A    
N9    N10   1.331650 A    
O23   C95   1.278373 A    
C37   N18   1.442667 S    
N18   O43   1.301570 A    
N23   O53   1.300525 A    
O23   Cr5   1.920559 S    
C48   C93   1.488474 S    
C82   N35   1.438306 S    
C36   C37   1.398212 A    
C71   N30   1.442021 S    
N39   O94   1.301208 A    
C107  H16   1.083185 S    
C29   N15   1.433073 S    
N14   O33   1.301053 A    
C6    C63   1.506020 S    
C49   C54   1.421939 A    
Cr4   O26   1.970694 S    
O14   Cr4   2.034364 S    
N29   O71   1.300785 A    
N6    C42   1.355455 A    
C72   C73   1.405059 A    
N15   O35   1.300984 A    
C100  H9    1.082894 S    
N34   O83   1.300846 A    
C58   C62   1.419741 A    
N13   O30   1.300542 A    
C97   O27   1.220313 D    
N17   O41   1.300978 A    
C112  O96   1.220199 D    
C69   C73   1.400391 A    
C21   C26   1.424452 A    
C65   C109  1.491020 S    
N26   O61   1.301166 A    
C84   N32   1.445463 S    
O1    Cr1   2.036954 S    
C97   H6    1.084185 S    
C102  H11   1.081699 S    
C69   C70   1.407936 A    
O10   Cr2   1.915871 S    
C94   O22   1.280331 A    
Cr1   O13   1.970752 S    
O1    C3    1.275139 A    
O25   C96   1.279222 A    
C76   C94   1.500890 S    
C8    H1    1.083887 S    
N31   O75   1.301373 A    
N38   O92   1.300277 A    
C15   N38   1.430955 S    
C13   N17   1.434544 S    
C39   N19   1.438606 S    
C86   N37   1.443854 S    
C63   C68   1.420419 A    
C112  H21   1.085333 S    
C29   C30   1.412469 A    
C9    C10   1.408714 A    
N17   O40   1.301161 A    
C45   C48   1.417638 A    
C3    C21   1.497885 S    
C51   C52   1.407843 A    
C66   C75   1.447393 S    
C49   C50   1.416362 A    
C107  O69   1.221233 D    
N22   O50   1.300981 A    
N37   O89   1.301470 A    
C1    O3    1.269064 A    
N1    N2    1.330696 A    
C16   C111  1.496063 S    
N29   O72   1.300602 A    
C85   C90   1.404422 A    
N7    C42   1.353988 A    
C39   C40   1.397493 A    
O21   Cr4   1.917301 S    
N28   O67   1.300131 A    
O24   Cr6   2.033753 S    
C38   C42   1.460848 S    
N27   O66   1.300905 A    
N4    C27   1.358039 A    
C58   N23   1.436340 S    
C34   C91   1.497788 S    
O7    Cr1   2.033303 S    
C43   C47   1.413416 A    
C43   N20   1.433337 S    
C64   C65   1.419040 A    
N37   O88   1.301552 A    
O10   C5    1.282547 A    
O12   C6    1.283925 A    
O20   Cr4   2.033127 S    
C111  O91   1.220813 D    
C109  O77   1.220021 D    
O16   Cr5   2.037748 S    
C7    C12   1.413156 A    
C8    C9    1.389454 A    
C70   C76   1.426632 A    
N20   O46   1.301007 A    
N30   O74   1.300248 A    
C36   H2    1.083059 S    
C71   C76   1.420387 A    
N38   O93   1.300718 A    
C77   C82   1.416998 A    
C31   N16   1.433477 S    
C110  O90   1.220665 D    
C21   C22   1.422381 A    
C108  O70   1.221511 D    
C12   N31   1.438171 S    
C30   C99   1.490492 S    
N8    C41   1.359736 A    
C83   C87   1.410757 A    
N39   O95   1.301413 A    
C24   C25   1.405028 A    
N14   O32   1.301322 A    
C62   C95   1.496349 S    
C98   O28   1.221279 D    
C60   C105  1.494225 S    
C23   C24   1.404412 A    
Cr2   O13   1.978280 S    
O19   C93   1.275982 A    
C79   C110  1.494828 S    
C71   C72   1.415210 A    
C31   C32   1.407975 A    
N12   C55   1.355845 A    
C81   C82   1.411404 A    
C99   O29   1.220713 D    
N11   C56   1.355119 A    
N10   C56   1.357670 A    
C35   C40   1.399752 A    
Cr5   O26   1.971799 S    
N3    N4    1.329163 A    
N18   O42   1.301605 A    
C57   C61   1.405705 A    
C79   C80   1.413121 A    
N32   O78   1.299841 A    
O2    Cr1   1.917806 S    
N25   O59   1.301125 A    
C43   C44   1.412482 A    
C15   C16   1.401929 A    
C24   C28   1.463812 S    
C25   C26   1.408382 A    
O25   Cr6   1.910620 S    
N33   O80   1.300864 A    
C50   C51   1.411881 A    
O6    Cr3   1.919913 S    
C87   C88   1.443623 S    
N2    C28   1.356475 A    
O11   Cr3   2.035692 S    
C32   C33   1.413582 A    
C2    O5    1.269422 A    
C5    C49   1.491703 S    
N35   O84   1.298875 A    
C81   N34   1.433412 S    
C64   C108  1.487470 S    
O21   C94   1.275354 A    
O20   C96   1.273846 A    
C14   C20   1.421050 A    
Cr6   O26   1.978176 S    
C14   C97   1.495977 S    
C16   C17   1.407059 A    
N36   O86   1.300782 A    
N33   O81   1.300240 A    
C23   N13   1.434388 S    
C35   C36   1.400970 A    
C26   C98   1.485621 S    
C80   C89   1.445586 S    
N28   O68   1.300686 A    
N15   O34   1.300890 A    
C98   H7    1.085077 S    
C110  H19   1.082542 S    
C59   C62   1.415586 A    
O5    Cr3   2.029997 S    
N21   O48   1.301505 A    
C46   H4    1.083869 S    
C101  O39   1.221289 D    
C78   N36   1.434847 S    
C52   C56   1.465303 S    
C2    C7    1.471515 S    
C55   C61   1.467954 S    
N7    N8    1.329753 A    
N16   O37   1.300399 A    
C60   C61   1.415493 A    
N26   O62   1.299828 A    
N31   O76   1.301283 A    
O2    C1    1.276796 A    
C30   C34   1.420554 A    
C44   C101  1.488123 S    
C106  H15   1.083727 S    
C85   H5    1.082169 S    
C38   C39   1.416482 A    
C40   H3    1.083642 S    
O17   Cr5   1.915045 S    
O12   Cr3   1.913102 S    
N35   O85   1.301551 A    
C95   O24   1.281626 A    
C105  O63   1.221421 D    
N19   O44   1.301356 A    
O3    Cr2   2.033077 S    
C1    C35   1.470152 S    
C80   C81   1.405151 A    
C10   C19   1.431474 S    
C46   C47   1.397077 A    
C4    O9    1.275168 A    
N9    C55   1.356482 A    
C103  O57   1.220644 D    
C52   C53   1.412692 A    
C101  H10   1.084716 S    
C77   C78   1.421422 A    
C11   C12   1.415384 A    
C88   C89   1.204750 T    
C37   C38   1.414736 A    
C99   H8    1.085279 S    
C90   C96   1.488642 S    
N19   O45   1.301295 A    
C57   C58   1.406300 A    
C85   C86   1.399138 A    
N25   O60   1.301240 A    
C9    N39   1.441173 S    
O19   Cr6   1.917069 S    
C5    O11   1.270978 A    
O8    C4    1.286036 A    
C105  H14   1.082962 S    
C83   N33   1.434033 S    
