data_mof_unit_31567.cif
_audit_creation_date              2012-12-10T20:44:03-0500
_audit_creation_method            fapswitch 2.2
_symmetry_space_group_name_H-M    P1
_symmetry_Int_Tables_number       1
_space_group_crystal_system       triclinic
_cell_length_a                    17.583199
_cell_length_b                    10.813799
_cell_length_c                    9.937302
_cell_angle_alpha                 89.034018
_cell_angle_beta                  91.929019
_cell_angle_gamma                 93.948545
_cell_volume                      1883.73663696

loop_
_atom_site_label
_atom_site_type_symbol
_atom_type_description
_atom_site_fract_x
_atom_site_fract_y
_atom_site_fract_z
_atom_type_partial_charge
C1    C     C_R   0.500513 0.259854 0.500742 0.919821
C2    C     C_R   0.115352 0.555455 0.475725 -0.301561
C3    C     C_R   0.507949 0.060082 0.620244 -0.033062
C4    C     C_R   0.353781 0.508058 0.497416 0.998209
C5    C     C_R   0.510670 0.129008 0.501454 -0.163351
C6    C     C_R   0.533271 0.071645 0.384910 -0.231776
C7    C     C_R   0.537796 0.942925 0.382870 0.195097
C8    C     C_R   0.520474 0.872654 0.501216 -0.176922
C9    C     C_R   0.518390 0.935931 0.622644 -0.127362
C10   C     C_3   0.478157 0.918309 0.753606 0.602715
C11   C     C_3   0.454949 0.050967 0.735248 0.734273
C12   C     C_R   0.887094 0.516444 0.487303 -0.311851
C13   C     C_R   0.434736 0.470483 0.067185 -0.118076
C14   C     C_R   0.563607 0.536568 0.075172 0.603025
C15   C     C_R   0.563451 0.538789 0.931638 0.128053
C16   C     C_R   0.505421 0.740031 0.499666 0.849349
C17   C     C_R   0.433204 0.481958 0.925529 -0.079675
C18   C     C_3   0.374870 0.377454 0.908872 0.680821
C19   C     C_3   0.387852 0.348022 0.058664 0.617513
C20   C     C_R   0.646359 0.501652 0.501607 1.006124
C21   C     C_R   0.853263 0.600552 0.566577 0.549964
C22   C     C_R   0.774206 0.596622 0.573075 0.007990
C23   C     C_1   0.967199 0.528347 0.477601 0.224898
C24   C     C_R   0.729238 0.504258 0.503023 -0.371553
C25   C     C_R   0.764194 0.418292 0.425117 0.531773
C26   C     C_R   0.843242 0.424581 0.417156 0.541829
C27   C     C_3   0.636794 0.849547 0.268217 -0.624494
C28   C     C_3   0.394927 0.784545 0.894802 -0.564060
C29   C     C_3   0.315614 0.044999 0.782231 -0.683853
C30   C     C_3   0.644271 0.723535 0.892426 -0.586110
C31   C     C_3   0.241921 0.328923 0.833418 -0.599571
C32   C     C_3   0.737768 0.808219 0.574807 -0.668214
C33   C     C_3   0.395580 0.134694 0.150412 -0.606748
C34   C     C_1   0.034762 0.542143 0.474779 0.154498
C35   C     C_3   0.112132 0.593277 0.821393 -0.575865
C36   C     C_R   0.157218 0.594373 0.592158 0.044282
C37   C     C_R   0.235739 0.578946 0.599280 0.547380
C38   C     C_R   0.271997 0.530919 0.489223 -0.472409
C39   C     C_R   0.230227 0.515220 0.366702 0.513450
C40   C     C_R   0.151948 0.521267 0.361853 0.576703
F1    F     F_    0.896979 0.689950 0.633399 -0.653734
F2    F     F_    0.264742 0.499828 0.249820 -0.562031
F3    F     F_    0.111799 0.494671 0.245448 -0.595211
F4    F     F_    0.530954 0.910131 0.859266 -0.660412
F5    F     F_    0.480029 0.125932 0.841203 -0.568687
F6    F     F_    0.628375 0.574153 0.144682 -0.651233
F7    F     F_    0.396172 0.292952 0.818424 -0.602433
F8    F     F_    0.322259 0.342703 0.131454 -0.605005
F9    F     F_    0.721646 0.328944 0.356549 -0.599973
F10   F     F_    0.876856 0.342484 0.340434 -0.579726
F11   F     F_    0.277232 0.620146 0.708258 -0.679030
H1    H     H_    0.545268 0.125533 0.294333 0.195859
H2    H     H_    0.361749 0.030817 0.593549 0.163948
H3    H     H_    0.264816 0.090233 0.742616 0.235273
H4    H     H_    0.333075 0.082924 0.881929 0.286085
H5    H     H_    0.297194 0.945599 0.791855 0.222596
H6    H     H_    0.675226 0.541564 0.879445 0.247965
H7    H     H_    0.702765 0.740623 0.937002 0.214516
H8    H     H_    0.604098 0.759034 0.963665 0.268718
H9    H     H_    0.638868 0.777079 0.797178 0.276070
H10   H     H_    0.281760 0.484636 0.943036 0.263928
H11   H     H_    0.185733 0.369058 0.825199 0.216813
H12   H     H_    0.547589 0.936999 0.175898 0.253102
H13   H     H_    0.237999 0.250690 0.907285 0.243620
H14   H     H_    0.254779 0.296506 0.731932 0.245038
H15   H     H_    0.765201 0.699815 0.740193 0.270025
H16   H     H_    0.678076 0.835190 0.569766 0.223739
H17   H     H_    0.758958 0.805109 0.470746 0.243259
H18   H     H_    0.773254 0.881132 0.630119 0.264145
H19   H     H_    0.489405 0.257241 0.106966 0.228691
H20   H     H_    0.428611 0.052152 0.137554 0.217487
H21   H     H_    0.336909 0.113344 0.108698 0.242145
H22   H     H_    0.392481 0.154213 0.259316 0.237645
H23   H     H_    0.677198 0.928499 0.298753 0.236398
H24   H     H_    0.074552 0.703390 0.663413 0.264093
H25   H     H_    0.081314 0.650226 0.890762 0.249257
H26   H     H_    0.168146 0.576953 0.870100 0.270533
H27   H     H_    0.078021 0.504090 0.805125 0.221516
H28   H     H_    0.652816 0.819063 0.168067 0.256497
H29   H     H_    0.641913 0.770513 0.339623 0.251512
H30   H     H_    0.374494 0.821267 0.685846 0.212958
H31   H     H_    0.344612 0.717413 0.891838 0.268041
H32   H     H_    0.381093 0.866259 0.953127 0.209578
H33   H     H_    0.442369 0.740048 0.948711 0.245029
N1    N     N_R   0.499490 0.499140 0.142800 -0.171898
N2    N     N_2   0.122323 0.659292 0.695034 -0.270801
N3    N     N_R   0.499490 0.499180 0.857150 -0.095772
N4    N     N_2   0.559319 0.886827 0.262473 -0.287151
N5    N     N_2   0.417092 0.821140 0.759633 -0.302651
N6    N     N_2   0.376277 0.065328 0.687911 -0.313343
N7    N     N_2   0.628033 0.592600 0.866122 -0.259381
N8    N     N_2   0.300191 0.421908 0.876253 -0.258612
N9    N     N_2   0.740763 0.689807 0.644949 -0.277862
N10   N     N_2   0.432385 0.240252 0.081232 -0.259394
O1    O     O_R   0.500010 0.316790 0.614690 -0.524623
O2    O     O_R   0.500000 0.316760 0.385350 -0.636568
O3    O     O_R   0.389120 0.500020 0.614710 -0.538743
O4    O     O_R   0.389110 0.499990 0.385370 -0.542137
O5    O     O_R   0.500000 0.683240 0.614650 -0.590831
O6    O     O_R   0.499990 0.683210 0.385310 -0.594441
O7    O     O_R   0.610890 0.500010 0.614630 -0.613332
O8    O     O_R   0.610880 0.499980 0.385290 -0.523230
Zn1   Zn    Zn3+2 0.500010 0.500020 0.653130 1.077950
Zn2   Zn    Zn3+2 0.499990 0.499980 0.346870 1.062955

loop_
_geom_bond_atom_site_label_1
_geom_bond_atom_site_label_2
_ccdc_geom_bond_type
O5    Zn1   S    
C4    O4    A    
H12   N4    S    
C28   H33   S    
C6    C7    A    
C18   F7    S    
C7    C8    A    
C14   F6    S    
C12   C23   S    
C1    C5    S    
C36   C37   A    
H19   N10   S    
C27   H28   S    
C26   F10   S    
C38   C39   A    
C37   F11   S    
C35   N2    S    
C20   O8    A    
C29   H3    S    
O6    Zn2   S    
C18   C19   S    
C33   H21   S    
H15   N9    S    
C40   F3    S    
C20   C24   S    
C10   N5    S    
C8    C9    A    
C30   H9    S    
C28   N5    S    
C27   H23   S    
C9    C10   S    
H10   N8    S    
C32   H17   S    
H30   N5    S    
C2    C34   S    
C32   N9    S    
O7    Zn1   S    
C4    O3    A    
C33   N10   S    
C28   H32   S    
C31   H11   S    
C29   N6    S    
O1    Zn1   S    
C39   F2    S    
C35   H25   S    
C13   C19   S    
C10   F4    S    
C24   C25   A    
C27   H29   S    
C21   F1    S    
C39   C40   A    
C19   F8    S    
C16   O6    A    
C20   O7    A    
C29   H4    S    
C36   N2    S    
C25   C26   A    
C28   H31   S    
C12   C21   A    
C35   H26   S    
C12   C26   A    
C37   C38   A    
C3    C9    A    
H24   N2    S    
C7    N4    S    
C1    O1    A    
C23   C34   T    
C30   H8    S    
C17   C18   S    
O8    Zn2   S    
C19   N10   S    
O3    Zn1   S    
N1    Zn2   S    
C32   H16   S    
N3    Zn1   S    
C33   H22   S    
C4    C38   S    
O2    Zn2   S    
C22   N9    S    
C22   C24   A    
C11   F5    S    
C15   N3    A    
C2    C36   A    
C31   H14   S    
H6    N7    S    
C17   N3    A    
C31   H13   S    
C14   N1    A    
C30   N7    S    
C3    C5    A    
C16   O5    A    
C32   H18   S    
C29   H5    S    
C35   H27   S    
C13   C17   A    
C18   N8    S    
C11   N6    S    
C5    C6    A    
C1    O2    A    
O4    Zn2   S    
C30   H7    S    
C27   N4    S    
C25   F9    S    
C3    C11   S    
C10   C11   S    
C33   H20   S    
C15   N7    S    
C2    C40   A    
C8    C16   S    
C31   N8    S    
C13   N1    A    
H2    N6    S    
C14   C15   A    
C6    H1    S    
C21   C22   A    
