data_mof_unit_9756.cif
_audit_creation_date              2012-12-11T14:35:58-0500
_audit_creation_method            fapswitch 2.2
_symmetry_space_group_name_H-M    P1
_symmetry_Int_Tables_number       1
_space_group_crystal_system       triclinic
_cell_length_a                    13.540654
_cell_length_b                    13.613188
_cell_length_c                    27.337141
_cell_angle_alpha                 91.04724
_cell_angle_beta                  90.744333
_cell_angle_gamma                 60.202461
_cell_volume                      4372.08564631

loop_
_atom_site_label
_atom_site_type_symbol
_atom_type_description
_atom_site_fract_x
_atom_site_fract_y
_atom_site_fract_z
_atom_type_partial_charge
C1    C     C_R   0.622043 0.102099 0.569369 0.546721
C2    C     C_1   0.638018 0.723160 0.614530 -0.019725
C3    C     C_3   0.712208 0.499872 0.751879 -0.119208
C4    C     C_3   0.717311 0.568880 0.796117 0.009446
C5    C     C_3   0.608028 0.607665 0.733016 0.306848
C6    C     C_3   0.683861 0.640850 0.704924 0.048648
C7    C     C_3   0.611451 0.675187 0.777947 -0.080288
C8    C     C_3   0.688835 0.708502 0.749707 -0.145648
C9    C     C_1   0.726519 0.542739 0.848358 -0.055912
C10   C     C_1   0.662494 0.683386 0.654829 -0.038741
C11   C     C_3   0.051676 0.158274 0.732038 -0.181848
C12   C     C_R   0.600099 0.779648 0.568675 0.539895
C13   C     C_3   0.139213 0.084853 0.771951 -0.116868
C14   C     C_1   0.078072 0.212029 0.899065 -0.005823
C15   C     C_1   0.218513 0.143794 0.615130 0.031140
C16   C     C_3   0.016983 0.266712 0.764024 -0.141377
C17   C     C_3   0.106179 0.192927 0.802573 -0.018262
C18   C     C_3   0.109858 0.282046 0.738592 0.072688
C19   C     C_3   0.144265 0.175062 0.707357 0.053513
C20   C     C_3   0.197353 0.211269 0.778010 -0.068441
C21   C     C_3   0.229317 0.104177 0.747321 0.320850
C22   C     C_1   0.092561 0.200741 0.855602 -0.055177
C23   C     C_R   0.277087 0.122287 0.569281 0.545333
C24   C     C_1   0.179359 0.159128 0.655796 0.044228
C25   C     C_3   0.633910 0.274555 0.741458 -0.140408
C26   C     C_3   0.564777 0.242205 0.775280 0.289294
C27   C     C_1   0.690105 0.204466 0.903234 -0.008719
C28   C     C_1   0.643971 0.136948 0.616081 0.006684
C29   C     C_3   0.740792 0.204859 0.773966 -0.144404
C30   C     C_3   0.669607 0.174382 0.807681 0.050088
C31   C     C_3   0.773665 0.096251 0.742965 -0.122442
C32   C     C_3   0.667342 0.165994 0.711183 -0.008058
C33   C     C_3   0.702847 0.065389 0.777379 -0.140482
C34   C     C_R   0.623201 0.100579 0.432129 0.539850
C35   C     C_3   0.596947 0.134955 0.744852 0.078684
C36   C     C_1   0.675805 0.188515 0.860817 -0.014994
C37   C     C_1   0.658618 0.155470 0.658005 -0.036743
C38   C     C_R   0.730511 0.711886 0.356783 0.255763
C39   C     C_R   0.736373 0.710598 0.305304 -0.013735
C40   C     C_R   0.750239 0.698743 0.202556 -0.016556
C41   C     C_R   0.832753 0.710580 0.230351 0.075846
C42   C     C_R   0.827872 0.710313 0.281627 -0.128454
C43   C     C_R   0.767004 0.662029 0.153420 -0.136124
C44   C     C_R   0.679916 0.656284 0.127378 -0.026983
C45   C     C_R   0.600084 0.778549 0.429343 0.550683
C46   C     C_R   0.540446 0.734793 0.350524 -0.174254
C47   C     C_R   0.546479 0.731461 0.299867 0.010310
C48   C     C_R   0.644597 0.719161 0.277060 0.017699
C49   C     C_R   0.452558 0.747742 0.271719 -0.096843
C50   C     C_R   0.456628 0.749345 0.220970 -0.074912
C51   C     C_R   0.557540 0.726630 0.197672 0.040121
C52   C     C_R   0.650865 0.714827 0.225834 -0.007757
C53   C     C_R   0.569249 0.710536 0.146974 0.250723
C54   C     C_R   0.628514 0.732320 0.379210 0.002977
C55   C     C_R   0.202645 0.060129 0.360138 -0.133969
C56   C     C_R   0.276607 0.120972 0.431486 0.543774
C57   C     C_R   0.175459 0.072316 0.310267 0.023520
C58   C     C_R   0.143357 0.088741 0.207914 -0.003899
C59   C     C_R   0.156493 0.993295 0.233205 -0.117579
C60   C     C_R   0.171956 0.985588 0.283722 -0.141450
C61   C     C_R   0.124025 0.100382 0.156808 0.038343
C62   C     C_R   0.115105 0.197667 0.133674 -0.044708
C63   C     C_R   0.182885 0.247266 0.362471 -0.139484
C64   C     C_R   0.161051 0.258091 0.312654 -0.020102
C65   C     C_R   0.159812 0.169576 0.285927 0.064303
C66   C     C_R   0.148310 0.353384 0.289041 -0.142420
C67   C     C_3   0.790028 0.533091 0.723114 -0.138971
C68   C     C_R   0.140698 0.360065 0.238121 0.057030
C69   C     C_R   0.144180 0.269195 0.210607 -0.014765
C70   C     C_R   0.147622 0.176498 0.234805 0.019772
C71   C     C_R   0.142918 0.268863 0.159648 -0.145098
C72   C     C_R   0.212968 0.145101 0.385504 -0.005068
C73   C     C_R   0.576468 0.246743 0.367495 -0.134105
C74   C     C_R   0.590246 0.269338 0.318886 -0.031957
C75   C     C_R   0.606718 0.301797 0.218414 0.017150
C76   C     C_R   0.531209 0.393782 0.248260 0.265142
C77   C     C_R   0.520891 0.376211 0.298079 -0.102140
C78   C     C_3   0.795214 0.601006 0.768491 -0.100235
C79   C     C_R   0.616559 0.313819 0.168152 -0.128502
C80   C     C_R   0.690107 0.220099 0.139219 -0.026142
C81   C     C_R   0.742727 0.058908 0.359747 -0.122787
C82   C     C_R   0.753046 0.077511 0.311104 0.011758
C83   C     C_R   0.674254 0.181428 0.290000 0.048292
C84   C     C_R   0.838214 0.991387 0.282729 -0.129494
C85   C     C_R   0.839843 0.005042 0.232699 -0.092150
C86   C     C_R   0.757466 0.104300 0.210895 0.018567
C87   C     C_R   0.678640 0.195920 0.239728 0.014910
C88   C     C_R   0.756602 0.114602 0.160727 -0.098531
C89   C     C_1   0.729749 0.527199 0.891790 -0.011321
C90   C     C_R   0.649655 0.139054 0.387021 -0.001196
C91   C     C_R   0.045668 0.238266 0.949126 0.530938
C92   C     C_R   0.733573 0.508136 0.943457 0.556123
C93   C     C_R   0.721733 0.225121 0.951059 0.529265
C94   C     C_R   0.051109 0.242422 0.087599 0.552235
C95   C     C_R   0.706936 0.578282 0.085207 0.556669
C96   C     C_R   0.720746 0.235656 0.090206 0.544570
Cr1   Cr    Cr6+3 0.417550 0.169090 0.500530 1.023454
Cr2   Cr    Cr6+3 0.669180 0.913420 0.499920 1.053613
Cr3   Cr    Cr6+3 0.413260 0.917540 0.499520 1.006024
Cr4   Cr    Cr6+3 0.909170 0.177380 0.020380 1.067768
Cr5   Cr    Cr6+3 0.912710 0.429210 0.018220 1.039615
Cr6   Cr    Cr6+3 0.657170 0.432570 0.019030 1.026989
H1    H     H_    0.872142 0.598692 0.784276 0.177567
H2    H     H_    0.255476 0.235215 0.796935 0.136778
H3    H     H_    0.929622 0.333258 0.773409 0.124656
H4    H     H_    0.604951 0.358544 0.725801 0.096258
H5    H     H_    0.729189 0.980729 0.792548 0.116499
H6    H     H_    0.860208 0.037350 0.728830 0.121852
H7    H     H_    0.802208 0.231138 0.787133 0.113941
H8    H     H_    0.850181 0.627755 0.137049 0.207986
H9    H     H_    0.862522 0.475075 0.699550 0.141361
H10   H     H_    0.893070 0.715017 0.303212 0.187230
H11   H     H_    0.382552 0.763204 0.200174 0.149766
H12   H     H_    0.375850 0.759562 0.288987 0.103926
H13   H     H_    0.462028 0.749499 0.367309 0.137266
H14   H     H_    0.224186 0.981468 0.378023 0.120288
H15   H     H_    0.157322 0.922504 0.214451 0.140897
H16   H     H_    0.681051 0.793508 0.748957 0.153186
H17   H     H_    0.182975 0.910762 0.301951 0.101753
H18   H     H_    0.154612 0.329073 0.139216 0.187185
H19   H     H_    0.146645 0.422066 0.310496 0.138523
H20   H     H_    0.187918 0.314583 0.382130 0.126547
H21   H     H_    0.572090 0.396128 0.151774 0.164112
H22   H     H_    0.506710 0.310317 0.389141 0.118964
H23   H     H_    0.460275 0.446384 0.320494 0.123760
H24   H     H_    0.814966 0.041916 0.138826 0.178365
H25   H     H_    0.537738 0.725958 0.802099 0.102230
H26   H     H_    0.906441 0.939676 0.210816 0.182060
H27   H     H_    0.901366 0.912719 0.299021 0.144878
H28   H     H_    0.801869 0.976891 0.374794 0.152568
H29   H     H_    0.725972 0.413282 0.753355 0.093325
H30   H     H_    0.150425 0.004209 0.786344 0.104674
H31   H     H_    0.991305 0.137984 0.712693 0.114491
O1    O     O_R   0.301710 0.195650 0.554160 -0.490180
O2    O     O_R   0.658900 0.818120 0.449760 -0.447469
O3    O     O_R   0.503220 0.801620 0.445520 -0.537991
O4    O     O_R   0.319370 0.022040 0.450020 -0.503069
O5    O     O_3   0.499990 0.000010 0.499990 -0.250263
O6    O     O_R   0.818720 0.150820 0.967160 -0.505664
O7    O     O_R   0.006410 0.181720 0.970200 -0.494039
O8    O     O_R   0.027890 0.334070 0.964920 -0.513018
O9    O     O_R   0.809600 0.521790 0.967960 -0.493372
O10   O     O_R   0.635520 0.542770 0.964420 -0.509153
O11   O     O_R   0.665950 0.325030 0.970100 -0.508865
O12   O     O_R   0.522390 0.158990 0.550460 -0.494092
O13   O     O_R   0.816620 0.158530 0.074540 -0.493049
O14   O     O_R   0.004460 0.188870 0.069750 -0.455764
O15   O     O_R   0.025800 0.341780 0.072300 -0.503404
O16   O     O_R   0.807650 0.528950 0.067500 -0.497276
O17   O     O_R   0.633420 0.550490 0.071810 -0.474052
O18   O     O_R   0.664000 0.332180 0.069640 -0.509027
O19   O     O_3   0.826350 0.346390 0.019210 -0.284288
O20   O     O_R   0.694390 0.003530 0.554040 -0.504055
O21   O     O_R   0.657700 0.819660 0.549320 -0.490587
O22   O     O_R   0.501930 0.803280 0.552920 -0.521518
O23   O     O_R   0.318170 0.023580 0.549580 -0.503738
O24   O     O_R   0.303010 0.193990 0.446760 -0.523727
O25   O     O_R   0.523600 0.157450 0.450900 -0.503796
O26   O     O_R   0.695690 0.001860 0.446640 -0.508704
C97   C     C_2   0.094748 0.392315 0.721104 0.546589
O27   O     O_2   0.073742 0.468577 0.750609 -0.577219
O28   O     O_R   0.105662 0.407327 0.671462 -0.700539
H32   H     H_    0.094138 0.485220 0.664436 0.333327
O29   O     O_3   0.457429 0.311924 0.796849 -0.574209
C98   C     C_3   0.379621 0.390130 0.763031 0.028481
H33   H     H_    0.299688 0.386663 0.765246 0.206104
H34   H     H_    0.407660 0.371507 0.724095 0.138709
C99   C     C_3   0.354333 0.509301 0.777513 -0.263412
H35   H     H_    0.325904 0.527225 0.816232 0.183915
H36   H     H_    0.433376 0.514257 0.774499 0.203335
C100  C     C_3   0.261736 0.598430 0.745085 -0.453956
H37   H     H_    0.284232 0.578209 0.705890 0.148841
H38   H     H_    0.251991 0.682790 0.753773 0.163094
H39   H     H_    0.179257 0.601984 0.751614 0.187332
C101  C     C_2   0.520516 0.097523 0.721564 0.575453
O30   O     O_2   0.419003 0.164707 0.717325 -0.505378
O31   O     O_R   0.568303 0.989666 0.700119 -0.715936
H40   H     H_    0.511010 0.977266 0.680761 0.362211
O32   O     O_3   0.819575 0.704710 0.384994 -0.565387
C102  C     C_3   0.901706 0.589404 0.392009 -0.004644
H41   H     H_    0.986123 0.583908 0.395652 0.149257
H42   H     H_    0.908714 0.533335 0.360295 0.125199
C103  C     C_3   0.877503 0.545939 0.439169 -0.259906
H43   H     H_    0.872082 0.601873 0.470388 0.183073
H44   H     H_    0.794848 0.547655 0.435749 0.150828
C104  C     C_3   0.970346 0.424967 0.449782 -0.477458
H45   H     H_    0.974715 0.367125 0.419646 0.155763
H46   H     H_    0.950642 0.396622 0.484304 0.153482
H47   H     H_    0.054181 0.420499 0.453977 0.156243
C105  C     C_2   0.915728 0.737157 0.207717 0.568106
O33   O     O_2   0.904113 0.767840 0.165218 -0.572048
O34   O     O_R   0.004161 0.733660 0.236043 -0.701922
H48   H     H_    0.055728 0.752776 0.216825 0.328900
O35   O     O_3   0.474283 0.737919 0.118103 -0.584943
C106  C     C_3   0.457848 0.822768 0.084376 0.032858
H49   H     H_    0.387352 0.834816 0.059484 0.196916
H50   H     H_    0.533586 0.795859 0.060725 0.125456
C107  C     C_3   0.425194 0.936440 0.110113 -0.265561
H51   H     H_    0.356399 0.957233 0.136851 0.189899
H52   H     H_    0.499771 0.929711 0.130541 0.151114
C108  C     C_3   0.385993 0.032151 0.073485 -0.461163
H53   H     H_    0.455105 0.013431 0.047118 0.146551
H54   H     H_    0.363785 0.112438 0.093266 0.146581
H55   H     H_    0.309633 0.043415 0.053115 0.183262
C109  C     C_2   0.112917 0.012312 0.128088 0.579698
O36   O     O_2   0.169727 0.971024 0.091210 -0.551280
O37   O     O_R   0.035353 0.979066 0.142467 -0.728813
H56   H     H_    0.035430 0.919084 0.119909 0.335711
C110  C     C_2   0.126023 0.464637 0.215676 0.551628
O38   O     O_2   0.164385 0.518411 0.236554 -0.550911
O39   O     O_R   0.065036 0.504697 0.172100 -0.719732
H57   H     H_    0.076564 0.565033 0.156626 0.347393
O40   O     O_3   0.475876 0.502631 0.230159 -0.587656
C111  C     C_3   0.370677 0.527474 0.208399 0.001892
H58   H     H_    0.302475 0.593369 0.231693 0.200733
H59   H     H_    0.356662 0.453338 0.205790 0.158955
C112  C     C_3   0.362871 0.571923 0.156298 -0.268649
H60   H     H_    0.429571 0.595124 0.151071 0.240777
H61   H     H_    0.378868 0.503822 0.129167 0.131455
C113  C     C_3   0.247388 0.674667 0.144929 -0.430944
H62   H     H_    0.180052 0.651286 0.145514 0.159065
H63   H     H_    0.249137 0.706136 0.107939 0.186518
H64   H     H_    0.226756 0.743835 0.171921 0.143344
O41   O     O_3   0.502643 0.619095 0.717860 -0.590711
C114  C     C_3   0.510985 0.565044 0.672191 -0.003507
H65   H     H_    0.487376 0.498772 0.677347 0.131078
H66   H     H_    0.597862 0.522258 0.655907 0.121142
C115  C     C_3   0.424612 0.651313 0.636597 -0.245070
H67   H     H_    0.337066 0.682533 0.650462 0.160296
H68   H     H_    0.437475 0.725411 0.634229 0.199089
C116  C     C_3   0.434926 0.599413 0.585666 -0.464170
H69   H     H_    0.521012 0.570388 0.570516 0.154528
H70   H     H_    0.370694 0.663862 0.560877 0.157717
H71   H     H_    0.419761 0.526469 0.587241 0.142305
O42   O     O_3   0.341865 0.022258 0.736148 -0.547010
C117  C     C_3   0.396504 0.950182 0.775951 0.014370
H72   H     H_    0.480049 0.887341 0.761562 0.182176
H73   H     H_    0.352183 0.903727 0.786756 0.120171
C118  C     C_3   0.417092 0.009046 0.820501 -0.279672
H74   H     H_    0.443546 0.069723 0.808334 0.203857
H75   H     H_    0.337660 0.055711 0.841989 0.150111
C119  C     C_3   0.508911 0.924409 0.854604 -0.479977
H76   H     H_    0.484049 0.863613 0.868448 0.152992
H77   H     H_    0.519642 0.970365 0.886354 0.158677
H78   H     H_    0.591603 0.877718 0.835269 0.149901

loop_
_geom_bond_atom_site_label_1
_geom_bond_atom_site_label_2
_ccdc_geom_bond_type
C66   C68   A    
C100  H37   S    
Cr2   O21   S    
Cr5   O15   S    
C40   C41   A    
C105  O33   D    
C110  O38   D    
Cr6   O19   S    
C73   C74   A    
C83   C87   A    
C118  H74   S    
C33   H5    S    
C12   O21   A    
C74   C83   A    
C43   C44   A    
C2    C12   S    
O41   C114  S    
C17   C20   S    
C113  H63   S    
C81   C82   A    
C6    C67   S    
C8    H16   S    
C7    C8    S    
C47   C49   A    
C21   O42   S    
C109  O36   D    
Cr4   O19   S    
C112  C113  S    
C100  H38   S    
C11   C19   S    
C98   H33   S    
C41   C105  S    
Cr2   O5    S    
C3    H29   S    
C49   C50   A    
C29   H7    S    
O29   C98   S    
C19   C21   S    
C73   C90   A    
C103  H44   S    
C5    C6    S    
C111  H59   S    
C55   H14   S    
C75   C76   A    
Cr4   O14   S    
C65   C70   A    
C84   H27   S    
C114  C115  S    
C58   C70   A    
C117  H72   S    
C60   H17   S    
C18   C19   S    
C41   C42   A    
C26   O29   S    
C69   C71   A    
C92   O10   A    
C42   H10   S    
C115  H67   S    
C88   H24   S    
Cr4   O7    S    
C114  H66   S    
Cr5   O8    S    
C44   C53   A    
C99   C100  S    
C101  O30   D    
Cr4   O13   S    
C16   C17   S    
C56   C72   S    
C74   C77   A    
Cr3   O22   S    
C62   C71   A    
C1    C28   S    
C119  H77   S    
O42   C117  S    
C31   C33   S    
Cr3   O5    S    
C107  H51   S    
C95   O16   A    
C43   H8    S    
C80   C96   S    
C11   H31   S    
C92   O9    A    
C18   C20   S    
C55   C72   A    
C23   O1    A    
C102  C103  S    
Cr6   O18   S    
C3    C5    S    
C106  C107  S    
C34   O26   A    
C58   C61   A    
C99   H36   S    
C49   H12   S    
Cr2   O20   S    
C59   C60   A    
C59   H15   S    
C23   O23   A    
C8    C78   S    
C53   O35   S    
C108  H54   S    
C61   C62   A    
C67   C78   S    
Cr6   O11   S    
Cr1   O1    S    
C4    C7    S    
C68   C110  S    
C76   O40   S    
C115  H68   S    
C113  H62   S    
C102  H42   S    
C25   H4    S    
C119  H76   S    
C39   C42   A    
C91   O8    A    
C40   C43   A    
C25   C29   S    
C100  H39   S    
C45   O2    A    
C119  H78   S    
O37   H56   S    
C32   C35   S    
C76   C77   A    
C101  O31   S    
C103  C104  S    
C9    C89   T    
C5    C7    S    
C111  H58   S    
C68   C69   A    
C57   C60   A    
C6    C8    S    
C94   O15   A    
C50   C51   A    
C25   C26   S    
C85   C86   A    
C96   O18   A    
C79   H21   S    
Cr2   O2    S    
C118  H75   S    
C79   C80   A    
C51   C53   A    
Cr1   O24   S    
C103  H43   S    
C34   C90   S    
O39   H57   S    
C4    C78   S    
C29   C30   S    
C93   O6    A    
Cr4   O6    S    
C56   O24   A    
C11   C16   S    
C31   C32   S    
C38   C54   A    
O40   C111  S    
C4    C9    S    
C29   C31   S    
C73   H22   S    
Cr3   O23   S    
C46   C54   A    
C107  C108  S    
C114  H65   S    
C66   H19   S    
C13   C21   S    
C116  H70   S    
C95   O17   A    
C32   C37   S    
C84   C85   A    
C89   C92   S    
C1    O20   A    
C91   O7    A    
C93   O11   A    
C16   H3    S    
Cr6   O17   S    
C81   C90   A    
C71   H18   S    
C67   H9    S    
C15   C24   T    
C97   O28   S    
C45   C54   S    
C26   C30   S    
C98   C99   S    
C82   C84   A    
C55   C57   A    
C108  H55   S    
C27   C93   S    
C1    O12   A    
C12   O22   A    
C104  H46   S    
C3    C4    S    
C2    C10   T    
C31   H6    S    
C34   O25   A    
Cr1   O5    S    
C63   H20   S    
C77   H23   S    
C102  H41   S    
O28   H32   S    
C75   C87   A    
C94   O14   A    
C46   C47   A    
C99   H35   S    
C45   O3    A    
C105  O34   S    
C38   O32   S    
C30   C33   S    
C78   H1    S    
C86   C87   A    
Cr1   O12   S    
C16   C18   S    
C3    C67   S    
C57   C65   A    
C63   C64   A    
C47   C48   A    
C111  C112  S    
C118  C119  S    
C6    C10   S    
C117  C118  S    
C20   H2    S    
C30   C36   S    
C27   C36   T    
C112  H61   S    
C96   O13   A    
Cr5   O19   S    
C17   C22   S    
C108  H53   S    
C13   C17   S    
C50   H11   S    
C35   C101  S    
C15   C23   S    
C14   C22   T    
C104  H47   S    
C62   C94   S    
C19   C24   S    
C112  H60   S    
C51   C52   A    
C80   C88   A    
C44   C95   S    
C40   C52   A    
O34   H48   S    
Cr1   O25   S    
C20   C21   S    
C56   O4    A    
C11   C13   S    
C81   H28   S    
C38   C39   A    
C46   H13   S    
C28   C37   T    
C25   C32   S    
C64   C65   A    
Cr5   O16   S    
C63   C72   A    
C33   C35   S    
C13   H30   S    
C117  H73   S    
Cr3   O3    S    
O35   C106  S    
C116  H71   S    
C86   C88   A    
C113  H64   S    
C69   C70   A    
C97   O27   D    
C58   C59   A    
C14   C91   S    
C18   C97   S    
O31   H40   S    
C106  H49   S    
C26   C35   S    
C48   C52   A    
C5    O41   S    
Cr2   O26   S    
C98   H34   S    
C82   C83   A    
Cr6   O10   S    
C61   C109  S    
C116  H69   S    
O32   C102  S    
C110  O39   S    
Cr3   O4    S    
C85   H26   S    
C107  H52   S    
C7    H25   S    
C104  H45   S    
C109  O37   S    
C75   C79   A    
C115  C116  S    
C64   C66   A    
C39   C48   A    
C106  H50   S    
Cr5   O9    S    
