data_mof_unit_13648.cif
_audit_creation_date              2012-12-11T14:33:56-0500
_audit_creation_method            fapswitch 2.2
_symmetry_space_group_name_H-M    P1
_symmetry_Int_Tables_number       1
_space_group_crystal_system       triclinic
_cell_length_a                    13.903067
_cell_length_b                    13.982247
_cell_length_c                    27.243308
_cell_angle_alpha                 89.835817
_cell_angle_beta                  90.145519
_cell_angle_gamma                 119.976191
_cell_volume                      4587.54210224

loop_
_atom_site_label
_atom_site_type_symbol
_atom_type_description
_atom_site_fract_x
_atom_site_fract_y
_atom_site_fract_z
_atom_type_partial_charge
C1    C     C_R   0.233852 0.787319 0.568780 0.560582
C2    C     C_R   0.212414 0.446232 0.568748 0.570867
C3    C     C_R   0.553577 0.765821 0.568731 0.549489
C4    C     C_3   0.657447 0.734840 0.789917 -0.213411
C5    C     C_3   0.266634 0.921325 0.789759 -0.213517
C6    C     C_3   0.077759 0.343722 0.789619 -0.213355
C7    C     C_3   0.636910 0.722128 0.733830 -0.213422
C8    C     C_3   0.278943 0.912803 0.733711 -0.213334
C9    C     C_3   0.085965 0.364303 0.733526 -0.213596
C10   C     C_1   0.712050 0.864862 0.859343 -0.077866
C11   C     C_1   0.135778 0.848115 0.859407 -0.078169
C12   C     C_1   0.152441 0.287848 0.859402 -0.078269
C13   C     C_1   0.633692 0.817404 0.658055 -0.066640
C14   C     C_1   0.181932 0.814943 0.658138 -0.066491
C15   C     C_1   0.184530 0.366286 0.658069 -0.066814
C16   C     C_1   0.604239 0.798092 0.615964 0.001655
C17   C     C_1   0.201180 0.804876 0.616045 0.004039
C18   C     C_1   0.194593 0.395707 0.615972 0.006382
C19   C     C_R   0.066181 0.152672 0.096300 0.532596
C20   C     C_R   0.777275 0.883569 0.088401 0.533691
C21   C     C_R   0.085943 0.934054 0.096086 0.539996
C22   C     C_R   0.107494 0.220719 0.950865 0.567531
C23   C     C_R   0.779647 0.886982 0.950774 0.555150
C24   C     C_R   0.113383 0.892938 0.950823 0.568972
C25   C     C_R   0.621508 0.896947 0.362312 -0.163260
C26   C     C_R   0.102881 0.731112 0.361901 -0.170522
C27   C     C_R   0.272931 0.434022 0.350964 -0.165802
C28   C     C_R   0.647612 0.912063 0.312642 -0.012554
C29   C     C_R   0.072881 0.752108 0.316094 0.026870
C30   C     C_R   0.257097 0.390621 0.304277 0.002860
C31   C     C_R   0.680355 0.927667 0.210649 0.008680
C32   C     C_R   0.034786 0.790756 0.218847 0.018207
C33   C     C_R   0.217017 0.314970 0.207657 0.002764
C34   C     C_R   0.231071 0.789400 0.432527 0.572777
C35   C     C_R   0.211606 0.443708 0.432303 0.594592
C36   C     C_R   0.557948 0.768658 0.432592 0.565327
C37   C     C_R   0.656725 0.001729 0.234909 -0.130161
C38   C     C_R   0.975578 0.684283 0.238757 -0.128906
C39   C     C_R   0.316684 0.410048 0.219725 -0.135626
C40   C     C_R   0.638432 0.992677 0.285516 -0.117572
C41   C     C_R   0.995590 0.664805 0.286901 -0.098181
C42   C     C_R   0.336636 0.447785 0.267843 -0.115695
C43   C     C_R   0.702967 0.937947 0.160184 -0.150275
C44   C     C_R   0.023130 0.809212 0.169296 -0.127747
C45   C     C_R   0.193698 0.280593 0.159080 -0.124395
C46   C     C_R   0.727226 0.863114 0.137124 -0.010868
C47   C     C_R   0.091031 0.913898 0.148548 -0.012616
C48   C     C_R   0.092672 0.186939 0.147003 -0.008965
C49   C     C_R   0.680159 0.759524 0.367841 0.244679
C50   C     C_R   0.219670 0.928743 0.376749 0.252830
C51   C     C_R   0.097291 0.277057 0.378739 0.249840
C52   C     C_R   0.692338 0.763182 0.316568 0.008759
C53   C     C_R   0.200870 0.950126 0.327923 0.021026
C54   C     C_R   0.078351 0.233626 0.330407 0.024457
C55   C     C_R   0.675486 0.839851 0.289056 0.002449
C56   C     C_R   0.127012 0.860902 0.297759 0.031429
C57   C     C_R   0.158292 0.292206 0.293274 0.017754
C58   C     C_R   0.714924 0.688547 0.291754 -0.082091
C59   C     C_R   0.258215 0.057056 0.307422 -0.080761
C60   C     C_R   0.980685 0.135499 0.317378 -0.066782
C61   C     C_R   0.720534 0.689784 0.240913 -0.151207
C62   C     C_R   0.245340 0.074420 0.258051 -0.143061
C63   C     C_R   0.961953 0.098054 0.269097 -0.133046
C64   C     C_R   0.708213 0.768279 0.214058 0.005449
C65   C     C_R   0.172862 0.986166 0.228309 0.016029
C66   C     C_R   0.038467 0.158195 0.232381 0.019884
C67   C     C_3   0.576259 0.864141 0.736023 -0.215464
C68   C     C_3   0.133408 0.711525 0.736574 -0.215836
C69   C     C_3   0.288782 0.422154 0.736315 -0.215872
C70   C     C_R   0.687093 0.844747 0.237870 0.052671
C71   C     C_R   0.110258 0.879625 0.248516 0.068516
C72   C     C_R   0.138269 0.254545 0.244541 0.061021
C73   C     C_R   0.722113 0.774452 0.163779 -0.129562
C74   C     C_R   0.165030 0.001878 0.178226 -0.137642
C75   C     C_R   0.015941 0.125086 0.183455 -0.151460
C76   C     C_R   0.627771 0.813792 0.388817 -0.014182
C77   C     C_R   0.181721 0.817803 0.390941 -0.009345
C78   C     C_R   0.192370 0.381316 0.387278 -0.006296
C79   C     C_3   0.777320 0.923103 0.721738 -0.214305
C80   C     C_3   0.077662 0.855076 0.721598 -0.213902
C81   C     C_3   0.145384 0.222863 0.721857 -0.213681
C82   C     C_3   0.797725 0.935991 0.777987 -0.215761
C83   C     C_3   0.065186 0.863319 0.777806 -0.215998
C84   C     C_3   0.137499 0.202420 0.778115 -0.216161
C85   C     C_1   0.736984 0.874105 0.902049 -0.025853
C86   C     C_1   0.126568 0.863780 0.902089 -0.027295
C87   C     C_1   0.136804 0.263058 0.902111 -0.027674
C88   C     C_3   0.656332 0.832009 0.710938 0.068913
C89   C     C_3   0.167651 0.823507 0.711027 0.068587
C90   C     C_3   0.176223 0.343619 0.710968 0.068448
C91   C     C_3   0.596646 0.876707 0.792233 -0.215981
C92   C     C_3   0.121232 0.720046 0.792746 -0.215391
C93   C     C_3   0.280582 0.401740 0.792533 -0.215651
C94   C     C_3   0.691038 0.853548 0.806303 0.073708
C95   C     C_3   0.146783 0.837876 0.806370 0.073660
C96   C     C_3   0.162418 0.308849 0.806352 0.073835
Cr1   Cr    Cr6+3 0.164410 0.584450 0.499910 1.077711
Cr2   Cr    Cr6+3 0.415550 0.579960 0.499910 1.102611
Cr3   Cr    Cr6+3 0.420040 0.835590 0.499910 1.096634
Cr4   Cr    Cr6+3 0.155170 0.075460 0.019960 1.016403
Cr5   Cr    Cr6+3 0.924540 0.079710 0.019960 1.014244
Cr6   Cr    Cr6+3 0.920290 0.844830 0.019960 1.010125
H1    H     H_    0.618936 0.961741 0.803580 0.112781
H2    H     H_    0.035331 0.658460 0.804245 0.113038
H3    H     H_    0.343019 0.378516 0.804140 0.112820
H4    H     H_    0.488485 0.799867 0.728745 0.104831
H5    H     H_    0.196855 0.686838 0.729491 0.104697
H6    H     H_    0.312971 0.509733 0.728974 0.104724
H7    H     H_    0.518887 0.818253 0.811823 0.108482
H8    H     H_    0.179036 0.699850 0.812504 0.108907
H9    H     H_    0.300387 0.479299 0.812063 0.108658
H10   H     H_    0.724223 0.716211 0.799628 0.112799
H11   H     H_    0.287008 0.006901 0.799119 0.112841
H12   H     H_    0.991927 0.278037 0.799133 0.112937
H13   H     H_    0.706563 0.006046 0.139532 0.117873
H14   H     H_    0.964860 0.741212 0.146551 0.123069
H15   H     H_    0.252960 0.327745 0.130518 0.131930
H16   H     H_    0.587898 0.944125 0.379191 0.166661
H17   H     H_    0.068954 0.646146 0.373721 0.141761
H18   H     H_    0.346622 0.512940 0.358556 0.133354
H19   H     H_    0.651437 0.065833 0.214729 0.116174
H20   H     H_    0.917180 0.615382 0.216505 0.101057
H21   H     H_    0.378029 0.456476 0.191802 0.112572
H22   H     H_    0.617092 0.048640 0.303462 0.136053
H23   H     H_    0.952623 0.581036 0.300937 0.123166
H24   H     H_    0.413095 0.523220 0.276355 0.122223
H25   H     H_    0.739489 0.715224 0.146160 0.128724
H26   H     H_    0.217178 0.082656 0.162113 0.119024
H27   H     H_    0.939115 0.051525 0.173589 0.106677
H28   H     H_    0.736599 0.630478 0.222602 0.104440
H29   H     H_    0.293889 0.156784 0.242890 0.122421
H30   H     H_    0.886314 0.023040 0.260273 0.136005
H31   H     H_    0.723815 0.625668 0.310964 0.192731
H32   H     H_    0.318686 0.127215 0.328216 0.194158
H33   H     H_    0.915765 0.088184 0.343542 0.198357
H34   H     H_    0.588605 0.943151 0.720413 0.117187
H35   H     H_    0.053345 0.645697 0.721146 0.116916
H36   H     H_    0.355296 0.408858 0.720961 0.117213
H37   H     H_    0.836502 0.901611 0.704441 0.116593
H38   H     H_    0.100657 0.935622 0.703967 0.117636
H39   H     H_    0.064438 0.164781 0.704371 0.117547
H40   H     H_    0.793413 0.003058 0.705694 0.119085
H41   H     H_    0.996702 0.792065 0.705737 0.118626
H42   H     H_    0.209084 0.205873 0.706063 0.119551
H43   H     H_    0.823638 0.022216 0.788907 0.110735
H44   H     H_    0.978150 0.804214 0.788874 0.110568
H45   H     H_    0.197482 0.175602 0.789288 0.110694
H46   H     H_    0.867161 0.921271 0.787548 0.105925
H47   H     H_    0.081632 0.947709 0.787003 0.105872
H48   H     H_    0.052896 0.134052 0.787490 0.105977
H49   H     H_    0.550296 0.655064 0.726553 0.109922
H50   H     H_    0.345252 0.892045 0.726618 0.109609
H51   H     H_    0.106192 0.450778 0.726185 0.109640
H52   H     H_    0.693631 0.697179 0.716690 0.119006
H53   H     H_    0.305449 0.994318 0.716248 0.120044
H54   H     H_    0.004040 0.308710 0.716188 0.119643
H55   H     H_    0.580784 0.673818 0.809480 0.111060
H56   H     H_    0.327081 0.904780 0.809476 0.111232
H57   H     H_    0.093895 0.420224 0.809118 0.111397
O1    O     O_R   0.137150 0.468200 0.553200 -0.484239
O2    O     O_R   0.531800 0.668950 0.553200 -0.487133
O3    O     O_R   0.331050 0.862850 0.553200 -0.478948
O4    O     O_R   0.179100 0.982980 0.967000 -0.502750
O5    O     O_R   0.017020 0.196120 0.967000 -0.500963
O6    O     O_R   0.803880 0.820900 0.967000 -0.506658
O7    O     O_R   0.173970 0.688730 0.549930 -0.502404
O8    O     O_R   0.311270 0.485240 0.549930 -0.498786
O9    O     O_R   0.514760 0.826030 0.549930 -0.500294
O10   O     O_R   0.140110 0.470540 0.446010 -0.469082
O11   O     O_R   0.529460 0.669570 0.446010 -0.440570
O12   O     O_R   0.330430 0.859890 0.446010 -0.444452
O13   O     O_R   0.176710 0.690910 0.450560 -0.515702
O14   O     O_R   0.309090 0.485800 0.450560 -0.501254
O15   O     O_R   0.514200 0.823290 0.450560 -0.513331
O16   O     O_3   0.333333 0.666667 0.499990 -0.311878
O17   O     O_R   0.176750 0.985260 0.074180 -0.503322
O18   O     O_R   0.014740 0.191490 0.074180 -0.487561
O19   O     O_R   0.808510 0.823250 0.074180 -0.532595
O20   O     O_R   0.146100 0.172630 0.068980 -0.514676
O21   O     O_R   0.827370 0.973470 0.068980 -0.518526
O22   O     O_R   0.026530 0.853900 0.068980 -0.489691
O23   O     O_3   0.000000 0.000000 0.020040 -0.265475
O24   O     O_R   0.148270 0.170520 0.969620 -0.489027
O25   O     O_R   0.829480 0.977750 0.969620 -0.491921
O26   O     O_R   0.022250 0.851730 0.969620 -0.485686
S1    S     S_3+6 0.736209 0.694800 0.405547 0.022933
O27   O     O_2   0.754117 0.739085 0.457025 -0.249789
O28   O     O_2   0.657379 0.572281 0.406281 -0.279921
O29   O     O_3   0.859028 0.720210 0.382662 -0.528765
H58   H     H_    0.882155 0.677507 0.403817 0.370373
S2    S     S_3+6 0.280142 0.037922 0.420527 0.041890
O30   O     O_2   0.246230 0.993897 0.471802 -0.238548
O31   O     O_2   0.404446 0.095251 0.416214 -0.287591
O32   O     O_3   0.237140 0.129200 0.409616 -0.496912
H59   H     H_    0.277986 0.189500 0.433551 0.379595
S3    S     S_3+6 0.006362 0.200055 0.427897 0.026214
O33   O     O_2   0.055598 0.246807 0.477269 -0.252143
O34   O     O_2   0.899341 0.201039 0.421882 -0.299138
O35   O     O_3   0.980225 0.068870 0.425743 -0.475450
H60   H     H_    0.912520 0.025939 0.445836 0.380145

loop_
_geom_bond_atom_site_label_1
_geom_bond_atom_site_label_2
_ccdc_geom_bond_type
C15   C18   T    
C79   H37   S    
C43   C46   A    
C10   C85   T    
C36   O15   A    
Cr1   O16   S    
C2    C18   S    
C33   C45   A    
C48   C75   A    
C27   C78   A    
C92   H8    S    
C25   H16   S    
Cr2   O2    S    
C6    C9    S    
C6    H57   S    
C53   C59   A    
Cr1   O10   S    
C20   O21   A    
C54   C60   A    
C27   H18   S    
C25   C28   A    
C21   O22   A    
C7    H52   S    
C67   C88   S    
C33   C39   A    
Cr1   O13   S    
C31   C43   A    
C60   C63   A    
C82   C94   S    
C8    H50   S    
C37   C40   A    
C69   C93   S    
C51   S3    S    
C80   C83   S    
C34   C77   S    
C64   C70   A    
C84   H45   S    
C79   H40   S    
Cr3   O12   S    
C28   C40   A    
C11   C86   T    
C45   H15   S    
Cr1   O7    S    
C83   H44   S    
C30   C57   A    
C39   H21   S    
C84   C96   S    
C80   C89   S    
Cr4   O24   S    
C8    H53   S    
C6    H12   S    
C36   C76   S    
C33   C72   A    
C43   H13   S    
C23   O6    A    
C28   C55   A    
C31   C70   A    
C66   C72   A    
C49   S1    S    
C7    C88   S    
C9    H54   S    
Cr4   O17   S    
Cr6   O23   S    
C64   C73   A    
C68   H5    S    
C32   C38   A    
C39   C42   A    
Cr4   O23   S    
C19   O18   A    
Cr2   O8    S    
C62   C65   A    
C44   C47   A    
C93   H3    S    
C49   C52   A    
C58   C61   A    
C81   H39   S    
O32   H59   S    
C4    H10   S    
C63   C66   A    
C9    H51   S    
O35   H60   S    
C27   C30   A    
C80   H38   S    
C14   C17   T    
C68   H35   S    
C4    C7    S    
C79   C88   S    
C5    C95   S    
C69   H6    S    
C3    O9    A    
C32   C71   A    
C81   H42   S    
C58   H31   S    
C40   H22   S    
C74   H26   S    
C26   C77   A    
S2    O30   D    
C50   C53   A    
Cr1   O1    S    
C41   H23   S    
C83   H47   S    
C26   H17   S    
C38   C41   A    
S3    O34   D    
Cr2   O14   S    
C92   H2    S    
C19   C48   S    
C20   O19   A    
C65   C71   A    
C92   C95   S    
C65   C74   A    
C31   C37   A    
C24   O26   A    
C35   O14   A    
C61   C64   A    
C3    C16   S    
S2    O31   D    
C14   C89   S    
C22   O24   A    
C80   H41   S    
C79   C82   S    
Cr3   O3    S    
C22   O5    A    
C5    H11   S    
C4    H55   S    
C56   C71   A    
C83   C95   S    
C67   C91   S    
C68   C89   S    
C32   C44   A    
C49   C76   A    
C22   C87   S    
C50   S2    S    
C60   H33   S    
C38   H20   S    
Cr5   O25   S    
C52   C58   A    
C61   H28   S    
C93   H9    S    
C7    H49   S    
C81   C90   S    
C1    O3    A    
C93   C96   S    
C6    C96   S    
C35   O10   A    
C37   H19   S    
C24   O4    A    
C42   H24   S    
S1    O28   D    
C69   C90   S    
C50   C77   A    
C19   O20   A    
C81   C84   S    
C34   O13   A    
Cr3   O9    S    
C45   C48   A    
C11   C95   S    
C69   H36   S    
C34   O12   A    
C59   C62   A    
C59   H32   S    
C12   C87   T    
C29   C41   A    
Cr6   O22   S    
C1    C17   S    
C62   H29   S    
Cr5   O5    S    
C30   C42   A    
C47   C74   A    
C91   H1    S    
S3    O33   D    
C9    C90   S    
C5    C8    S    
C82   H46   S    
C52   C55   A    
C67   H4    S    
C29   C56   A    
Cr6   O6    S    
Cr6   O26   S    
C35   C78   S    
C36   O11   A    
C51   C54   A    
C25   C76   A    
S1    O29   S    
C67   H34   S    
C51   C78   A    
C23   O25   A    
Cr5   O21   S    
C73   H25   S    
C15   C90   S    
Cr2   O16   S    
C91   H7    S    
C4    C94   S    
Cr3   O15   S    
C1    O7    A    
Cr6   O19   S    
C66   C75   A    
C13   C88   S    
C68   C92   S    
C63   H30   S    
Cr4   O4    S    
C57   C72   A    
O29   H58   S    
C21   O17   A    
C53   C56   A    
S2    O32   S    
C55   C70   A    
Cr5   O18   S    
C3    O2    A    
Cr2   O11   S    
Cr3   O16   S    
C82   H43   S    
C44   H14   S    
C26   C29   A    
C2    O1    A    
C5    H56   S    
C23   C85   S    
C13   C16   T    
C10   C94   S    
C12   C96   S    
C8    C89   S    
C21   C47   S    
S1    O27   D    
Cr4   O20   S    
C24   C86   S    
C2    O8    A    
C46   C73   A    
C20   C46   S    
Cr5   O23   S    
C75   H27   S    
S3    O35   S    
C91   C94   S    
C54   C57   A    
C84   H48   S    
