data_mof_unit_34797.cif
_audit_creation_date              2012-12-10T16:59:56-0500
_audit_creation_method            fapswitch 2.2
_symmetry_space_group_name_H-M    P1
_symmetry_Int_Tables_number       1
_space_group_crystal_system       triclinic
_cell_length_a                    15.18301
_cell_length_b                    15.076727
_cell_length_c                    10.011282
_cell_angle_alpha                 92.756693
_cell_angle_beta                  89.193764
_cell_angle_gamma                 89.728234
_cell_volume                      2288.77121843

loop_
_atom_site_label
_atom_site_type_symbol
_atom_type_description
_atom_site_fract_x
_atom_site_fract_y
_atom_site_fract_z
_atom_type_partial_charge
C1    C     C_R   0.379437 0.883399 0.498212 0.849954
C2    C     C_2   0.746653 0.187247 0.397605 0.306171
C3    C     C_2   0.179366 0.245494 0.402257 0.336113
C4    C     C_2   0.246553 0.687346 0.397508 0.306199
C5    C     C_2   0.688779 0.818483 0.483762 0.345017
C6    C     C_2   0.703351 0.162970 0.507362 0.365492
C7    C     C_2   0.188778 0.318483 0.483755 0.345053
C8    C     C_2   0.203367 0.662949 0.507300 0.365607
C9    C     C_2   0.247650 0.176632 0.398386 0.372128
C10   C     C_2   0.323366 0.744297 0.422265 0.359806
C11   C     C_2   0.747656 0.676639 0.398380 0.372125
C12   C     C_R   0.375827 0.113988 0.503021 0.793972
C13   C     C_2   0.823443 0.244226 0.422423 0.359633
C14   C     C_2   0.292249 0.162278 0.511492 0.228792
C15   C     C_2   0.307641 0.822336 0.489596 0.278543
C16   C     C_2   0.792246 0.662272 0.511486 0.228824
C17   C     C_2   0.807661 0.322318 0.489578 0.278652
C18   C     C_2   0.561703 0.964513 0.922284 -0.216621
C19   C     C_2   0.061704 0.464518 0.922285 -0.216604
C20   C     C_2   0.570264 0.983721 0.072502 0.633298
C21   C     C_2   0.070261 0.483726 0.072497 0.633263
C22   C     C_3   0.618022 0.750298 0.194820 -0.174624
C23   C     C_R   0.879444 0.383393 0.498208 0.850060
C24   C     C_3   0.741071 0.222444 0.174322 -0.242794
C25   C     C_3   0.117984 0.250264 0.194835 -0.174339
C26   C     C_3   0.240662 0.722886 0.174416 -0.243293
C27   C     C_3   0.228166 0.051429 0.267242 -0.207372
C28   C     C_3   0.419481 0.627196 0.366821 -0.211560
C29   C     C_3   0.728184 0.551457 0.267191 -0.207186
C30   C     C_3   0.919630 0.127066 0.367680 -0.211351
C31   C     C_3   0.304019 0.216847 0.735040 -0.120672
C32   C     C_3   0.215713 0.914285 0.625881 -0.221219
C33   C     C_3   0.803995 0.716808 0.735040 -0.120776
C34   C     C_R   0.875826 0.613985 0.503020 0.793980
C35   C     C_3   0.715630 0.414263 0.625667 -0.221149
C36   C     C_3   0.724062 0.985590 0.050849 -0.313897
C37   C     C_3   0.224032 0.485888 0.050874 -0.313449
C38   C     C_R   0.622837 0.114339 0.501321 0.868544
C39   C     C_R   0.619588 0.881931 0.496464 0.918420
C40   C     C_R   0.122838 0.614338 0.501314 0.868498
C41   C     C_R   0.119587 0.381929 0.496463 0.918460
C42   C     C_2   0.679373 0.745499 0.402255 0.336272
F1    F     F_    0.766868 0.841222 0.540434 -0.714359
F2    F     F_    0.736047 0.182823 0.631669 -0.676439
F3    F     F_    0.266878 0.341233 0.540399 -0.714300
F4    F     F_    0.236184 0.682673 0.631565 -0.676332
F5    F     F_    0.422879 0.981877 0.094018 -0.628008
F6    F     F_    0.922877 0.481891 0.094017 -0.628026
H1    H     H_    0.610651 0.922891 0.870106 0.165755
H2    H     H_    0.706674 0.204039 0.080078 0.192351
H3    H     H_    0.138350 0.188945 0.136736 0.173706
H4    H     H_    0.167528 0.303430 0.180380 0.170009
H5    H     H_    0.055178 0.273168 0.152440 0.195257
H6    H     H_    0.312466 0.722295 0.151411 0.190990
H7    H     H_    0.217964 0.790803 0.207986 0.161986
H8    H     H_    0.206145 0.704604 0.080235 0.192349
H9    H     H_    0.155349 0.057683 0.278742 0.144922
H10   H     H_    0.254071 0.006662 0.342644 0.157926
H11   H     H_    0.242306 0.019746 0.166911 0.216998
H12   H     H_    0.110659 0.422900 0.870116 0.165774
H13   H     H_    0.384867 0.598968 0.277637 0.165355
H14   H     H_    0.397136 0.594841 0.458947 0.166323
H15   H     H_    0.490283 0.611082 0.352456 0.214312
H16   H     H_    0.655367 0.557710 0.278690 0.144925
H17   H     H_    0.754086 0.506675 0.342572 0.158073
H18   H     H_    0.742325 0.519795 0.166849 0.217010
H19   H     H_    0.885177 0.098685 0.278446 0.165464
H20   H     H_    0.897118 0.094869 0.459857 0.166238
H21   H     H_    0.990463 0.110936 0.353693 0.214213
H22   H     H_    0.362359 0.252151 0.695200 0.181696
H23   H     H_    0.462275 0.047794 0.900425 0.217388
H24   H     H_    0.325114 0.164200 0.801701 0.163099
H25   H     H_    0.265279 0.266170 0.797555 0.173465
H26   H     H_    0.241577 0.978713 0.593481 0.142906
H27   H     H_    0.250240 0.892622 0.716131 0.203291
H28   H     H_    0.145416 0.924860 0.654139 0.192642
H29   H     H_    0.862333 0.752120 0.695229 0.181694
H30   H     H_    0.825089 0.664151 0.801678 0.163122
H31   H     H_    0.765248 0.766116 0.797561 0.173463
H32   H     H_    0.741534 0.478712 0.593398 0.142907
H33   H     H_    0.750078 0.392549 0.715965 0.203262
H34   H     H_    0.962273 0.547793 0.900422 0.217383
H35   H     H_    0.645312 0.424833 0.653798 0.192703
H36   H     H_    0.717159 0.041573 0.983118 0.182023
H37   H     H_    0.735938 0.921622 0.993537 0.141465
H38   H     H_    0.783212 0.999042 0.112209 0.213814
H39   H     H_    0.216994 0.541990 0.983399 0.182117
H40   H     H_    0.236052 0.422056 0.993284 0.141572
H41   H     H_    0.283153 0.499355 0.112285 0.213658
H42   H     H_    0.638382 0.688985 0.136702 0.173701
H43   H     H_    0.667578 0.803455 0.180397 0.169982
H44   H     H_    0.555229 0.773222 0.152419 0.195361
H45   H     H_    0.812896 0.221786 0.151536 0.190832
H46   H     H_    0.718362 0.290410 0.207587 0.162009
N1    N     N_2   0.501330 0.000000 0.852150 -0.176321
N2    N     N_2   0.001330 0.500000 0.852150 -0.176341
N3    N     N_2   0.501360 0.000000 0.147810 0.122854
N4    N     N_2   0.001360 0.500000 0.147810 0.122876
O1    O     O_R   0.409520 0.909540 0.613040 -0.618535
O2    O     O_R   0.590440 0.909540 0.613100 -0.614807
O3    O     O_R   0.090440 0.590460 0.613100 -0.584315
O4    O     O_R   0.090440 0.409540 0.613100 -0.614790
O5    O     O_R   0.590480 0.090460 0.386960 -0.568225
O6    O     O_R   0.590480 0.909540 0.386960 -0.590139
O7    O     O_R   0.090480 0.590460 0.386960 -0.568214
O8    O     O_R   0.090480 0.409540 0.386960 -0.590180
O9    O     O_3   0.602736 0.732048 0.330347 -0.625463
O10   O     O_3   0.719684 0.159613 0.269528 -0.606001
O11   O     O_3   0.102719 0.232034 0.330374 -0.625406
O12   O     O_R   0.409520 0.090460 0.613040 -0.639787
O13   O     O_3   0.219428 0.659888 0.269438 -0.606102
O14   O     O_3   0.269655 0.135123 0.275785 -0.607887
O15   O     O_3   0.408701 0.720449 0.379204 -0.607068
O16   O     O_3   0.769676 0.635148 0.275774 -0.607963
O17   O     O_3   0.908825 0.220328 0.379643 -0.607125
O18   O     O_3   0.248622 0.180279 0.634342 -0.643625
O19   O     O_3   0.220783 0.848654 0.520769 -0.662383
O20   O     O_3   0.748609 0.680261 0.634325 -0.643608
O21   O     O_3   0.720782 0.348684 0.520475 -0.662401
O22   O     O_3   0.650694 0.979059 0.137688 -0.603683
O23   O     O_R   0.909520 0.409540 0.613040 -0.618527
O24   O     O_3   0.150690 0.479018 0.137665 -0.603969
O25   O     O_R   0.909520 0.590460 0.613040 -0.639795
O26   O     O_R   0.409560 0.909540 0.386900 -0.579768
O27   O     O_R   0.409560 0.090460 0.386900 -0.547797
O28   O     O_R   0.909560 0.409540 0.386900 -0.579881
O29   O     O_R   0.909560 0.590460 0.386900 -0.547786
O30   O     O_R   0.590440 0.090460 0.613100 -0.584308
Zn1   Zn    Zn3+2 0.499970 0.000000 0.650990 0.981423
Zn2   Zn    Zn3+2 0.999970 0.500000 0.650990 0.981431
Zn3   Zn    Zn3+2 0.500030 0.000000 0.349010 1.114833
Zn4   Zn    Zn3+2 0.000030 0.500000 0.349010 1.114784

loop_
_geom_bond_atom_site_label_1
_geom_bond_atom_site_label_2
_ccdc_geom_bond_type
C5    C42   D    
C34   O25   A    
C37   H40   S    
C35   O21   S    
O23   Zn2   S    
C4    C8    D    
O30   Zn1   S    
C1    O1    A    
C32   H27   S    
C12   O12   A    
C35   H33   S    
C39   O6    A    
C23   O23   A    
O8    Zn4   S    
C17   C23   S    
O12   Zn1   S    
C7    F3    S    
C19   C21   S    
C25   H5    S    
C16   O20   S    
C10   C15   D    
C32   H26   S    
C33   H30   S    
C31   H25   S    
H23   N1    S    
C22   O9    S    
C35   H32   S    
C41   O4    A    
C11   C42   S    
C21   O24   S    
C2    C13   S    
C11   O16   S    
O29   Zn4   S    
C29   O16   S    
C16   C34   S    
C40   O3    A    
C31   H22   S    
C20   N3    D    
C34   O29   A    
O6    Zn3   S    
C22   H43   S    
C6    C38   S    
C1    C15   S    
C42   O9    S    
C32   O19   S    
C30   H19   S    
C25   O11   S    
O3    Zn2   S    
C9    O14   S    
C5    F1    S    
C29   H16   S    
C33   O20   S    
C6    F2    S    
C26   H7    S    
C18   N1    D    
C2    C6    D    
C26   H6    S    
O7    Zn4   S    
C30   O17   S    
C24   H2    S    
H34   N2    S    
C41   O8    A    
O1    Zn1   S    
N3    Zn3   S    
C27   H9    S    
C35   H35   S    
O2    Zn1   S    
C33   H31   S    
C12   O27   A    
C36   H38   S    
C15   O19   S    
O26   Zn3   S    
C9    C14   D    
C25   H3    S    
C38   O5    A    
C3    C9    S    
C24   H46   S    
C11   C16   D    
O27   Zn3   S    
O28   Zn4   S    
C29   H18   S    
C22   H42   S    
C13   O17   S    
C10   O15   S    
C23   O28   A    
C24   O10   S    
C31   H24   S    
C4    O13   S    
C12   C14   S    
C27   O14   S    
C5    C39   S    
O25   Zn2   S    
C19   H12   S    
C29   H17   S    
C4    C10   S    
C31   O18   S    
C20   O22   S    
C30   H21   S    
N2    Zn2   S    
C37   H39   S    
O4    Zn2   S    
C27   H10   S    
C26   H8    S    
C32   H28   S    
C38   O30   A    
C37   H41   S    
C36   H37   S    
F6    N4    S    
C3    C7    D    
F5    N3    S    
C13   C17   D    
C36   H36   S    
C25   H4    S    
C27   H11   S    
C24   H45   S    
C28   H13   S    
C21   N4    D    
C33   H29   S    
C39   O2    A    
C3    O11   S    
C14   O18   S    
C2    O10   S    
C18   C20   S    
C7    C41   S    
C36   O22   S    
C8    F4    S    
C1    O26   A    
C28   O15   S    
C17   O21   S    
C37   O24   S    
C28   H15   S    
N4    Zn4   S    
N1    Zn1   S    
C22   H44   S    
C8    C40   S    
O5    Zn3   S    
C26   O13   S    
C30   H20   S    
C19   N2    D    
C18   H1    S    
C40   O7    A    
C28   H14   S    
