data_mof_unit_18686.cif
_audit_creation_date              2012-10-26T21:32:58-0400
_audit_creation_method            fapswitch 2.2
_symmetry_space_group_name_H-M    P1
_symmetry_Int_Tables_number       1
_space_group_crystal_system       triclinic
_cell_length_a                    28.28652
_cell_length_b                    18.473205
_cell_length_c                    17.069275
_cell_angle_alpha                 90.005429
_cell_angle_beta                  60.730014
_cell_angle_gamma                 90.011753
_cell_volume                      7780.64160165

loop_
_atom_site_label
_atom_site_type_symbol
_atom_type_description
_atom_site_fract_x
_atom_site_fract_y
_atom_site_fract_z
_atom_type_partial_charge
C1    C     C_R   0.701886 0.268819 0.675798 0.911120
C2    C     C_R   0.923036 0.613081 0.570912 -0.214944
C3    C     C_R   0.073978 0.900348 0.933964 0.910555
C4    C     C_R   0.573994 0.599633 0.933956 0.910232
C5    C     C_R   0.425998 0.400376 0.066050 0.910804
C6    C     C_R   0.426016 0.599643 0.066041 0.910307
C7    C     C_R   0.573962 0.400332 0.933976 0.910668
C8    C     C_R   0.558290 0.998050 0.473165 0.019686
C9    C     C_R   0.469491 0.998806 0.440800 0.019978
C10   C     C_R   0.047190 0.501320 0.508519 0.016035
C11   C     C_R   0.952809 0.498678 0.491483 0.016048
C12   C     C_R   0.545659 0.061699 0.440546 0.050055
C13   C     C_R   0.975258 0.379255 0.423093 -0.212998
C14   C     C_R   0.488708 0.932920 0.456827 0.049802
C15   C     C_R   0.498051 0.063709 0.431950 0.048904
C16   C     C_R   0.528969 0.933794 0.483114 0.047798
C17   C     C_R   0.010936 0.560650 0.540536 0.047822
C18   C     C_R   0.989063 0.439347 0.459466 0.047850
C19   C     C_R   0.962821 0.558491 0.533827 0.050479
C20   C     C_R   0.037177 0.441506 0.466178 0.050497
C21   C     C_R   0.613465 0.935558 0.528243 0.077998
C22   C     C_R   0.397367 0.065382 0.430304 0.071747
C23   C     C_R   0.395841 0.933396 0.434819 0.068467
C24   C     C_R   0.024743 0.620740 0.576905 -0.212848
C25   C     C_R   0.632308 0.061070 0.480482 0.062655
C26   C     C_R   0.128500 0.441249 0.493270 0.062539
C27   C     C_R   0.871500 0.558750 0.506729 0.062494
C28   C     C_R   0.891577 0.436385 0.448911 0.077834
C29   C     C_R   0.108423 0.563613 0.551087 0.078088
C30   C     C_R   0.660189 0.935900 0.540318 -0.130822
C31   C     C_R   0.343599 0.064904 0.441908 -0.129067
C32   C     C_R   0.343021 0.934754 0.443328 -0.127337
C33   C     C_R   0.670537 0.062498 0.512312 -0.114674
C34   C     C_R   0.169458 0.438424 0.518488 -0.120390
C35   C     C_R   0.538924 0.873393 0.523203 -0.223051
C36   C     C_R   0.830544 0.561575 0.481508 -0.120448
C37   C     C_R   0.841100 0.435684 0.449271 -0.135378
C38   C     C_R   0.158901 0.564315 0.550724 -0.135239
C39   C     C_R   0.684008 0.000246 0.540984 -0.304716
C40   C     C_R   0.318898 0.999906 0.444145 -0.300030
C41   C     C_R   0.184584 0.500129 0.545706 -0.295977
C42   C     C_R   0.815418 0.499870 0.454287 -0.296137
C43   C     C_R   0.600992 0.998387 0.494682 0.071827
C44   C     C_R   0.421015 0.999285 0.434754 0.074876
C45   C     C_R   0.094276 0.501887 0.518407 0.076420
C46   C     C_R   0.477677 0.128039 0.415196 -0.217799
C47   C     C_R   0.905724 0.498112 0.481592 0.076382
C48   C     C_R   0.121588 0.386961 0.442168 -0.179401
C49   C     C_R   0.878410 0.613036 0.557836 -0.179475
C50   C     C_R   0.927578 0.377849 0.418250 -0.181915
C51   C     C_R   0.072422 0.622147 0.581751 -0.182163
C52   C     C_R   0.579276 0.874998 0.547469 -0.174568
C53   C     C_R   0.428756 0.128709 0.413781 -0.185724
C54   C     C_R   0.424988 0.868941 0.425917 -0.178763
C55   C     C_R   0.625076 0.118988 0.433345 -0.179396
C56   C     C_R   0.468361 0.868163 0.442442 -0.225140
C57   C     C_R   0.581671 0.120401 0.416616 -0.219479
C58   C     C_R   0.720504 0.265746 0.954100 0.116527
C59   C     C_R   0.279167 0.733736 0.046226 0.116476
C60   C     C_R   0.278842 0.266747 0.046561 0.115706
C61   C     C_R   0.298101 0.731153 0.324206 0.891770
C62   C     C_R   0.721011 0.733479 0.953589 0.115670
C63   C     C_R   0.220780 0.766173 0.953826 0.116620
C64   C     C_R   0.778799 0.233165 0.046598 0.115945
C65   C     C_R   0.779300 0.766022 0.046104 0.116523
C66   C     C_R   0.220521 0.234249 0.954078 0.116356
C67   C     C_R   0.744238 0.197310 0.945827 -0.179823
C68   C     C_R   0.255413 0.802155 0.054467 -0.180118
C69   C     C_R   0.255048 0.198342 0.054862 -0.182372
C70   C     C_R   0.744747 0.801917 0.945357 -0.182765
C71   C     C_R   0.244533 0.697753 0.945587 -0.180763
C72   C     C_R   0.298067 0.268913 0.324226 0.869208
C73   C     C_R   0.755038 0.301582 0.054907 -0.182653
C74   C     C_R   0.755573 0.697576 0.054323 -0.181052
C75   C     C_R   0.244292 0.302672 0.945810 -0.180324
C76   C     C_R   0.772837 0.181200 0.991530 -0.177028
C77   C     C_R   0.226775 0.818193 0.008814 -0.175382
C78   C     C_R   0.226445 0.182271 0.009164 -0.177807
C79   C     C_R   0.773335 0.818011 0.991074 -0.178078
C80   C     C_R   0.273172 0.681714 0.991240 -0.176310
C81   C     C_R   0.726449 0.317692 0.009204 -0.178035
C82   C     C_R   0.726979 0.681484 0.008609 -0.178495
C83   C     C_R   0.701931 0.731091 0.675776 0.871018
C84   C     C_R   0.272902 0.318743 0.991509 -0.177580
C85   C     C_R   0.643292 0.326738 0.946173 -0.205515
C86   C     C_R   0.356507 0.672946 0.053994 -0.205245
C87   C     C_R   0.356300 0.327358 0.054168 -0.202923
C88   C     C_R   0.643613 0.672778 0.945909 -0.204123
C89   C     C_R   0.143456 0.826991 0.946038 -0.203537
C90   C     C_R   0.856245 0.172533 0.054210 -0.202918
C91   C     C_R   0.856588 0.826902 0.053927 -0.205901
C92   C     C_R   0.143276 0.173312 0.946186 -0.205772
C93   C     C_R   0.616428 0.347211 0.898357 -0.065013
C94   C     C_R   0.201895 0.768840 0.675797 0.886669
C95   C     C_R   0.383495 0.652686 0.101692 -0.064501
C96   C     C_R   0.383396 0.347445 0.101758 -0.066129
C97   C     C_R   0.616573 0.652596 0.898264 -0.066130
C98   C     C_R   0.116485 0.847282 0.898324 -0.064575
C99   C     C_R   0.883353 0.152482 0.101792 -0.066116
C100  C     C_R   0.883523 0.847269 0.101672 -0.065000
C101  C     C_R   0.116404 0.152838 0.898381 -0.064904
C102  C     C_R   0.633225 0.322163 0.813166 -0.260960
C103  C     C_R   0.366768 0.677859 0.186810 -0.264619
C104  C     C_R   0.366701 0.322223 0.186839 -0.264602
C105  C     C_R   0.798049 0.231051 0.324238 0.865274
C106  C     C_R   0.633302 0.677758 0.813149 -0.264432
C107  C     C_R   0.133217 0.822119 0.813199 -0.265412
C108  C     C_R   0.866655 0.177703 0.186873 -0.265146
C109  C     C_R   0.866759 0.822171 0.186829 -0.261093
C110  C     C_R   0.133190 0.177900 0.813199 -0.260817
C111  C     C_R   0.679518 0.281483 0.770994 -0.058075
C112  C     C_R   0.320427 0.718436 0.229038 -0.052342
C113  C     C_R   0.320293 0.281777 0.229138 -0.044587
C114  C     C_R   0.679686 0.718254 0.770878 -0.045799
C115  C     C_R   0.179554 0.781531 0.770976 -0.051209
C116  C     C_R   0.798105 0.768836 0.324205 0.908926
C117  C     C_R   0.820249 0.218134 0.229169 -0.043604
C118  C     C_R   0.820433 0.781547 0.229039 -0.057161
C119  C     C_R   0.179498 0.218570 0.771012 -0.057822
C120  C     C_R   0.707551 0.260194 0.817225 -0.197027
C121  C     C_R   0.292290 0.739540 0.182915 -0.196705
C122  C     C_R   0.292017 0.260897 0.183164 -0.206569
C123  C     C_R   0.707911 0.739226 0.816905 -0.206901
C124  C     C_R   0.207674 0.760395 0.817117 -0.197547
C125  C     C_R   0.791963 0.238974 0.183210 -0.206619
C126  C     C_R   0.792328 0.760360 0.182884 -0.197371
C127  C     C_R   0.201875 0.231204 0.675808 0.910100
C128  C     C_R   0.207544 0.239857 0.817231 -0.196940
C129  C     C_R   0.689615 0.283097 0.905852 0.073117
C130  C     C_R   0.310149 0.716519 0.094358 0.072230
C131  C     C_R   0.309862 0.283925 0.094627 0.073200
C132  C     C_R   0.690032 0.716246 0.905472 0.073595
C133  C     C_R   0.189806 0.783402 0.905683 0.072132
C134  C     C_R   0.809807 0.215951 0.094672 0.073347
C135  C     C_R   0.810232 0.783312 0.094291 0.073042
C136  C     C_R   0.189611 0.216944 0.905853 0.073152
C137  C     C_R   0.696873 0.127971 0.516784 0.907747
C138  C     C_R   0.076960 0.386915 0.429096 -0.214966
C139  C     C_R   0.308486 0.870649 0.465585 0.902130
C140  C     C_R   0.308836 0.129381 0.464656 0.899338
C141  C     C_R   0.691692 0.870968 0.532555 0.899218
C142  C     C_R   0.191164 0.629617 0.535878 0.897367
C143  C     C_R   0.808837 0.370382 0.464117 0.899087
C144  C     C_R   0.803410 0.627741 0.481920 0.906666
C145  C     C_R   0.196591 0.372259 0.518077 0.906793
C146  C     C_R   0.073951 0.099686 0.933990 0.910571
C147  C     C_R   0.926026 0.900343 0.066029 0.910081
C148  C     C_R   0.925983 0.099601 0.066067 0.910237
H1    H     H_    0.716013 0.000947 0.558648 0.193783
H2    H     H_    0.417256 0.179551 0.396904 0.174960
H3    H     H_    0.415687 0.818118 0.405528 0.177023
H4    H     H_    0.653255 0.163508 0.406482 0.177235
H5    H     H_    0.075405 0.343554 0.388272 0.138268
H6    H     H_    0.924588 0.656439 0.611744 0.138255
H7    H     H_    0.999859 0.331279 0.399239 0.138191
H8    H     H_    0.000140 0.668713 0.600760 0.138150
H9    H     H_    0.514054 0.825288 0.540128 0.143335
H10   H     H_    0.497737 0.179490 0.406208 0.139365
H11   H     H_    0.487170 0.816584 0.439837 0.141911
H12   H     H_    0.278239 0.000039 0.453041 0.199021
H13   H     H_    0.578303 0.167213 0.381849 0.138973
H14   H     H_    0.709737 0.371500 0.015947 0.129667
H15   H     H_    0.289901 0.627917 0.984528 0.129625
H16   H     H_    0.289671 0.372528 0.984752 0.129595
H17   H     H_    0.710251 0.627679 0.015316 0.129578
H18   H     H_    0.210048 0.871991 0.015525 0.129759
H19   H     H_    0.789581 0.127410 0.984763 0.129595
H20   H     H_    0.790045 0.871826 0.984381 0.129908
H21   H     H_    0.209705 0.128471 0.015900 0.130076
H22   H     H_    0.628774 0.346046 0.014047 0.146302
H23   H     H_    0.219303 0.499373 0.556548 0.196371
H24   H     H_    0.370960 0.653534 0.986178 0.146989
H25   H     H_    0.370740 0.346783 0.986363 0.147916
H26   H     H_    0.629149 0.653395 0.013737 0.147100
H27   H     H_    0.128997 0.846394 0.013858 0.147815
H28   H     H_    0.870683 0.153109 0.986405 0.147949
H29   H     H_    0.871079 0.846249 0.986077 0.146397
H30   H     H_    0.128760 0.153997 0.014056 0.146319
H31   H     H_    0.612248 0.338684 0.777244 0.177319
H32   H     H_    0.387835 0.661505 0.222646 0.175343
H33   H     H_    0.387863 0.338418 0.222582 0.175514
H34   H     H_    0.780701 0.500627 0.443442 0.196484
H35   H     H_    0.612182 0.661484 0.777364 0.175962
H36   H     H_    0.112163 0.838496 0.777351 0.175398
H37   H     H_    0.887823 0.161537 0.222609 0.175764
H38   H     H_    0.887790 0.838610 0.222698 0.177399
H39   H     H_    0.112203 0.161381 0.777286 0.177346
H40   H     H_    0.744653 0.229128 0.783013 0.151618
H41   H     H_    0.255161 0.770547 0.217169 0.151716
H42   H     H_    0.254818 0.230022 0.217499 0.148541
H43   H     H_    0.745095 0.770135 0.782595 0.148516
H44   H     H_    0.244800 0.729379 0.782868 0.151008
H45   H     H_    0.151476 0.345107 0.408561 0.172332
H46   H     H_    0.754763 0.269829 0.217551 0.148122
H47   H     H_    0.755200 0.729331 0.217126 0.151125
H48   H     H_    0.244657 0.270918 0.783010 0.151468
H49   H     H_    0.739927 0.155660 0.905126 0.129231
H50   H     H_    0.259758 0.843861 0.095075 0.128999
H51   H     H_    0.259354 0.156657 0.095523 0.129776
H52   H     H_    0.740414 0.843599 0.904721 0.129636
H53   H     H_    0.240189 0.656048 0.904975 0.128752
H54   H     H_    0.759363 0.343246 0.095579 0.129383
H55   H     H_    0.759900 0.655900 0.094971 0.129142
H56   H     H_    0.848521 0.654889 0.591445 0.172282
H57   H     H_    0.239999 0.344343 0.905121 0.129164
H58   H     H_    0.920282 0.331288 0.387184 0.163773
H59   H     H_    0.079717 0.668701 0.612824 0.163254
H60   H     H_    0.581943 0.828828 0.583957 0.170212
O1    O     O_R   0.746490 0.236330 0.638080 -0.632361
O2    O     O_R   0.325830 0.813840 0.483730 -0.640470
O3    O     O_R   0.325830 0.186160 0.483730 -0.637453
O4    O     O_R   0.674170 0.813840 0.516270 -0.638509
O5    O     O_R   0.174170 0.686160 0.516270 -0.631443
O6    O     O_R   0.825830 0.313840 0.483730 -0.631780
O7    O     O_R   0.825830 0.686160 0.483730 -0.637432
O8    O     O_R   0.174170 0.313840 0.516270 -0.637424
O9    O     O_R   0.739960 0.127620 0.525000 -0.629931
O10   O     O_R   0.260040 0.872380 0.475000 -0.627188
O11   O     O_R   0.260040 0.127620 0.475000 -0.625463
O12   O     O_R   0.253510 0.763670 0.361920 -0.634383
O13   O     O_R   0.739960 0.872380 0.525000 -0.622110
O14   O     O_R   0.239960 0.627620 0.525000 -0.624723
O15   O     O_R   0.760040 0.372380 0.475000 -0.624395
O16   O     O_R   0.760040 0.627620 0.475000 -0.631258
O17   O     O_R   0.239960 0.372380 0.525000 -0.631201
O18   O     O_R   0.680700 0.294870 0.629350 -0.621900
O19   O     O_R   0.319300 0.705130 0.370650 -0.633838
O20   O     O_R   0.319300 0.294870 0.370650 -0.638001
O21   O     O_R   0.680700 0.705130 0.629350 -0.635782
O22   O     O_R   0.180700 0.794870 0.629350 -0.633949
O23   O     O_R   0.253510 0.236330 0.361920 -0.649838
O24   O     O_R   0.819300 0.205130 0.370650 -0.637434
O25   O     O_R   0.819300 0.794870 0.370650 -0.622348
O26   O     O_R   0.180700 0.205130 0.629350 -0.622183
O27   O     O_R   0.062020 0.072840 0.007170 -0.630377
O28   O     O_R   0.937980 0.927160 0.992830 -0.630518
O29   O     O_R   0.937980 0.072840 0.992830 -0.629300
O30   O     O_R   0.062020 0.927160 0.007170 -0.629293
O31   O     O_R   0.562020 0.572840 0.007170 -0.630036
O32   O     O_R   0.437980 0.427160 0.992830 -0.629236
O33   O     O_R   0.437980 0.572840 0.992830 -0.630042
O34   O     O_R   0.746490 0.763670 0.638080 -0.649924
O35   O     O_R   0.562020 0.427160 0.007170 -0.630423
O36   O     O_R   0.947860 0.073950 0.109290 -0.623752
O37   O     O_R   0.052140 0.926050 0.890710 -0.623582
O38   O     O_R   0.052140 0.073950 0.890710 -0.622225
O39   O     O_R   0.947860 0.926050 0.109290 -0.622364
O40   O     O_R   0.447860 0.573950 0.109290 -0.623414
O41   O     O_R   0.552140 0.426050 0.890710 -0.622331
O42   O     O_R   0.552140 0.573950 0.890710 -0.623411
O43   O     O_R   0.447860 0.426050 0.109290 -0.623789
O44   O     O_R   0.246490 0.736330 0.638080 -0.636266
O45   O     O_R   0.753510 0.263670 0.361920 -0.652908
O46   O     O_R   0.753510 0.736330 0.361920 -0.633708
O47   O     O_R   0.246490 0.263670 0.638080 -0.632797
O48   O     O_R   0.674170 0.186160 0.516270 -0.640783
Zn1   Zn    Zn3+2 0.792340 0.208750 0.507670 0.944575
Zn2   Zn    Zn3+2 0.494040 0.500000 0.919480 0.932379
Zn3   Zn    Zn3+2 0.005960 0.000000 0.080520 0.932307
Zn4   Zn    Zn3+2 0.994040 1.000000 0.919480 0.932375
Zn5   Zn    Zn3+2 0.207660 0.791250 0.492330 0.945602
Zn6   Zn    Zn3+2 0.207660 0.208750 0.492330 0.941685
Zn7   Zn    Zn3+2 0.792340 0.791250 0.507670 0.942489
Zn8   Zn    Zn3+2 0.292340 0.708750 0.507670 0.938276
Zn9   Zn    Zn3+2 0.707660 0.291250 0.492330 0.937997
Zn10  Zn    Zn3+2 0.707660 0.708750 0.492330 0.940129
Zn11  Zn    Zn3+2 0.292340 0.291250 0.507670 0.939892
Zn12  Zn    Zn3+2 0.505960 0.500000 0.080520 0.928842

loop_
_geom_bond_atom_site_label_1
_geom_bond_atom_site_label_2
_ccdc_geom_bond_type
C125  C134  A    
C1    O18   A    
C14   C56   A    
O48   Zn9   S    
C59   C130  S    
C65   C79   A    
C5    O32   A    
C137  O9    A    
C123  C132  A    
C60   C84   A    
C81   H14   S    
C5    O43   A    
C11   C47   A    
O12   Zn5   S    
C139  O10   A    
C8    C43   A    
C105  O45   A    
O41   Zn2   S    
C99   C148  S    
O42   Zn2   S    
C25   C43   A    
C114  C123  A    
C69   C78   A    
O9    Zn1   S    
C55   H4    S    
C28   C47   A    
C116  O46   A    
C42   H34   S    
C140  O3    A    
C99   C108  A    
O36   Zn3   S    
C83   O34   A    
C11   C19   A    
C142  O14   A    
C33   C39   A    
C30   C141  S    
C124  C133  A    
C106  C114  A    
C35   C52   A    
C86   H24   S    
C12   C57   A    
C63   C133  S    
C6    O40   A    
C5    C96   S    
C72   O23   A    
C29   C51   A    
C56   H11   S    
C128  C136  A    
C16   C35   A    
C143  O15   A    
C90   C134  A    
C34   C145  S    
C51   H59   S    
C75   C84   A    
C11   C18   A    
C74   H55   S    
C10   C17   A    
C87   C131  A    
C46   H10   S    
C90   H28   S    
C88   H26   S    
C31   C40   A    
C62   C70   A    
C76   H19   S    
C68   H50   S    
C103  H32   S    
C20   C138  A    
C37   C42   A    
O4    Zn10  S    
O37   Zn4   S    
C13   H7    S    
C26   C45   A    
C85   C129  A    
C125  H46   S    
C21   C43   A    
C85   C93   A    
C126  H47   S    
C26   C34   A    
C22   C44   A    
C113  C122  A    
C33   C137  S    
C9    C44   A    
C141  O13   A    
C29   C38   A    
C30   C39   A    
C64   C73   A    
C61   O12   A    
O6    Zn1   S    
C110  H39   S    
C94   O22   A    
C91   C100  A    
C121  C130  A    
C21   C30   A    
C88   C97   A    
C84   H16   S    
C26   C48   A    
O25   Zn7   S    
C147  O28   A    
C24   C51   A    
C104  H33   S    
C62   C82   A    
O22   Zn5   S    
C147  O39   A    
C100  C109  A    
C8    C16   A    
C4    C97   S    
C102  H31   S    
C38   C142  S    
C83   C114  S    
C105  C117  S    
C102  C111  A    
C92   C136  A    
C34   C41   A    
C28   C50   A    
C74   C82   A    
C87   H25   S    
C24   H8    S    
C120  H40   S    
C60   C131  S    
C73   C81   A    
C71   C80   A    
C95   C103  A    
O19   Zn8   S    
C122  H42   S    
C22   C53   A    
C64   C134  S    
C36   C42   A    
C139  O2    A    
O2    Zn8   S    
C7    C93   S    
C54   C56   A    
C101  C146  S    
O28   Zn4   S    
C17   C24   A    
C89   C133  A    
C22   C31   A    
C3    O37   A    
C1    O1    A    
C148  O29   A    
C105  O24   A    
C62   C132  S    
C108  H37   S    
O35   Zn12  S    
C38   C41   A    
C7    O35   A    
O33   Zn2   S    
C58   C81   A    
C10   C20   A    
C86   C130  A    
C83   O21   A    
O45   Zn9   S    
C77   H18   S    
C145  O17   A    
C72   C113  S    
C78   H21   S    
C65   C74   A    
C120  C129  A    
O5    Zn5   S    
C111  C120  A    
C88   C132  A    
C93   C102  A    
C9    C14   A    
C35   H9    S    
C80   H15   S    
C2    C49   A    
O7    Zn7   S    
C59   C68   A    
C145  O8    A    
C41   H23   S    
C140  O11   A    
O1    Zn1   S    
C12   C15   A    
O34   Zn7   S    
C87   C96   A    
O29   Zn4   S    
O3    Zn11  S    
C64   C76   A    
C57   H13   S    
O30   Zn3   S    
C6    O33   A    
C61   O19   A    
C141  O4    A    
C107  C115  A    
C65   C135  S    
C92   H30   S    
C92   C101  A    
C32   C139  S    
C143  O6    A    
C66   C136  S    
C97   C106  A    
C13   C18   A    
C66   C78   A    
O27   Zn3   S    
O23   Zn6   S    
C7    O41   A    
C126  C135  A    
O24   Zn1   S    
C96   C104  A    
C53   H2    S    
C79   H20   S    
C144  O16   A    
C14   C16   A    
C89   H27   S    
C123  H43   S    
C50   H58   S    
C122  C131  A    
C124  H44   S    
O20   Zn11  S    
C138  H5    S    
C23   C54   A    
C148  O36   A    
C63   C77   A    
C27   C47   A    
C68   C77   A    
C90   C99   A    
C39   H1    S    
C146  O27   A    
O46   Zn10  S    
C127  O26   A    
C70   H52   S    
C115  C124  A    
C37   C143  S    
C2    C19   A    
C52   H60   S    
C108  C117  A    
C40   H12   S    
O11   Zn6   S    
C128  H48   S    
C142  O5    A    
C63   C71   A    
C67   H49   S    
C48   H45   S    
C94   O44   A    
C110  C119  A    
C144  O7    A    
O39   Zn3   S    
O21   Zn10  S    
C59   C80   A    
C54   H3    S    
O40   Zn12  S    
C109  H38   S    
C118  C126  A    
C73   H54   S    
C146  O38   A    
C85   H22   S    
C48   C138  A    
C89   C98   A    
C27   C36   A    
C23   C32   A    
C55   C57   A    
C101  C110  A    
C28   C37   A    
C4    O42   A    
C112  C121  A    
C94   C115  S    
C25   C55   A    
C119  C128  A    
C121  H41   S    
C75   H57   S    
C3    C98   S    
C98   C107  A    
C70   C79   A    
O47   Zn11  S    
C60   C69   A    
C3    O30   A    
C66   C75   A    
C91   H29   S    
C46   C53   A    
C104  C113  A    
C17   C19   A    
C4    O31   A    
C116  C118  S    
O31   Zn12  S    
C18   C20   A    
O15   Zn9   S    
C32   C40   A    
C36   C144  S    
C116  O25   A    
C106  H35   S    
C49   H56   S    
C137  O48   A    
O38   Zn4   S    
C86   C95   A    
O44   Zn8   S    
O18   Zn9   S    
O8    Zn6   S    
C13   C50   A    
C127  O47   A    
C27   C49   A    
C58   C67   A    
O26   Zn6   S    
C91   C135  A    
C109  C118  A    
C2    H6    S    
C6    C95   S    
C72   O20   A    
C10   C45   A    
C29   C45   A    
C100  C147  S    
C69   H51   S    
O10   Zn5   S    
C71   H53   S    
C103  C112  A    
O16   Zn10  S    
C107  H36   S    
C67   C76   A    
C58   C129  S    
C15   C46   A    
O32   Zn2   S    
C31   C140  S    
O13   Zn7   S    
C61   C112  S    
C117  C125  A    
O43   Zn12  S    
O17   Zn11  S    
C21   C52   A    
C1    C111  S    
C8    C12   A    
C9    C15   A    
C25   C33   A    
O14   Zn8   S    
C23   C44   A    
C82   H17   S    
C119  C127  S    
