data_mof_unit_41916.cif
_audit_creation_date              2012-12-10T17:02:28-0500
_audit_creation_method            fapswitch 2.2
_symmetry_space_group_name_H-M    P1
_symmetry_Int_Tables_number       1
_space_group_crystal_system       triclinic
_cell_length_a                    10.824187
_cell_length_b                    11.042821
_cell_length_c                    9.768334
_cell_angle_alpha                 111.187431
_cell_angle_beta                  97.744124
_cell_angle_gamma                 91.29313
_cell_volume                      1075.53487956

loop_
_atom_site_label
_atom_site_type_symbol
_atom_type_description
_atom_site_fract_x
_atom_site_fract_y
_atom_site_fract_z
_atom_type_partial_charge
C1    C     C_R   0.490998 0.253930 0.440485 0.859400
C2    C     C_R   0.509002 0.746070 0.559515 0.859416
C3    C     C_2   0.485604 0.114609 0.406779 -0.364783
C4    C     C_2   0.514397 0.885391 0.593221 -0.364742
C5    C     C_2   0.502918 0.069579 0.516713 -0.164802
C6    C     C_2   0.497086 0.930421 0.483287 -0.164860
C7    C     C_2   0.507907 0.513305 0.081952 -0.014602
C8    C     C_2   0.492091 0.486697 0.918049 -0.014432
C9    C     C_R   0.261721 0.484508 0.498355 0.796650
C10   C     C_R   0.738281 0.515489 0.501643 0.796608
C11   C     C_R   0.143693 0.512545 0.768835 -0.219174
C12   C     C_R   0.856297 0.487391 0.231140 -0.218999
C13   C     C_R   0.106736 0.579072 0.906495 0.534194
C14   C     C_R   0.893237 0.420825 0.093478 0.534406
C15   C     C_R   0.996497 0.644750 0.909057 -0.209227
C16   C     C_R   0.003486 0.355153 0.090940 -0.209114
C17   C     C_R   0.923264 0.635572 0.776407 -0.187178
C18   C     C_R   0.076739 0.364390 0.223599 -0.186991
C19   C     C_R   0.957193 0.560594 0.637275 0.069103
C20   C     C_R   0.042811 0.439390 0.362720 0.069133
C21   C     C_R   0.076993 0.514292 0.634661 -0.004563
C22   C     C_R   0.923009 0.485685 0.365329 -0.004608
C23   C     C_R   0.874793 0.531014 0.501687 -0.186237
C24   C     C_R   0.125210 0.468977 0.498307 -0.186239
Cu1   Cu    Cu3+1 0.521920 0.521810 0.644910 0.937433
Cu2   Cu    Cu3+1 0.478080 0.478190 0.355090 0.937435
H1    H     H_    0.036726 0.300867 0.988166 0.134827
H2    H     H_    0.963247 0.698972 0.011846 0.134935
H3    H     H_    0.223040 0.455215 0.768228 0.160071
H4    H     H_    0.776944 0.544708 0.231730 0.160076
H5    H     H_    0.840434 0.689212 0.784114 0.162082
H6    H     H_    0.159574 0.310756 0.215907 0.162023
H7    H     H_    0.478487 0.864424 0.367663 0.177053
H8    H     H_    0.521520 0.135576 0.632336 0.177136
H9    H     H_    0.532803 0.951628 0.708655 0.148841
H10   H     H_    0.467196 0.048371 0.291345 0.148818
H11   H     H_    0.425886 0.407881 0.843505 0.134897
H12   H     H_    0.574111 0.592122 0.156495 0.134897
H13   H     H_    0.617026 0.629064 0.936107 0.197933
H14   H     H_    0.382975 0.370935 0.063893 0.197984
N1    N     N_2   0.445130 0.445420 0.137360 -0.274704
N2    N     N_2   0.554870 0.554580 0.862640 -0.274700
O1    O     O_R   0.511700 0.332340 0.577400 -0.589374
O2    O     O_R   0.488300 0.667660 0.422600 -0.589437
O3    O     O_R   0.474680 0.295500 0.332650 -0.580448
O4    O     O_R   0.525320 0.704500 0.667350 -0.580450
O5    O     O_R   0.338170 0.518410 0.622370 -0.580017
O6    O     O_R   0.661830 0.481590 0.377630 -0.579999
O7    O     O_R   0.301150 0.481570 0.377630 -0.568039
O8    O     O_R   0.698850 0.518430 0.622370 -0.568100
O9    O     O_3   0.179156 0.570085 0.031360 -0.591974
C25   C     C_3   0.171715 0.676821 0.163258 -0.299463
H15   H     H_    0.083381 0.666756 0.205718 0.164974
H16   H     H_    0.182274 0.771552 0.148166 0.137910
H17   H     H_    0.249799 0.676564 0.249208 0.218720
O10   O     O_3   0.820716 0.429698 0.968605 -0.592021
C26   C     C_3   0.828606 0.323279 0.836591 -0.299399
H18   H     H_    0.818216 0.228372 0.851336 0.137929
H19   H     H_    0.917041 0.333772 0.794499 0.165025
H20   H     H_    0.750611 0.323535 0.750537 0.218768

loop_
_geom_bond_atom_site_label_1
_geom_bond_atom_site_label_2
_ccdc_geom_bond_type
Cu1   N2    S    
C14   O10   S    
C6    H7    S    
C9    C24   S    
C15   C17   A    
C10   C23   S    
Cu1   O5    S    
C19   C23   A    
C25   H17   S    
Cu2   O6    S    
C3    C5    D    
C5    H8    S    
Cu1   O1    S    
C16   H1    S    
C13   C15   A    
C26   H18   S    
C4    H9    S    
Cu2   O2    S    
C7    C8    S    
C13   O9    S    
C2    O4    A    
C11   C13   A    
C1    O3    A    
C15   H2    S    
C3    H10   S    
C2    C4    S    
C16   C18   A    
H14   N1    S    
C19   C21   A    
C7    H12   S    
C25   H16   S    
C9    O5    A    
H13   N2    S    
C18   C20   A    
C7    N1    D    
C10   O6    A    
C5    C6    S    
C17   H5    S    
C14   C16   A    
C26   H19   S    
C18   H6    S    
C8    H11   S    
C20   C22   A    
C11   C21   A    
O9    C25   S    
C10   O8    A    
C12   C22   A    
C12   C14   A    
C9    O7    A    
C25   H15   S    
C11   H3    S    
C4    C6    D    
C21   C24   A    
C2    O2    A    
O10   C26   S    
C22   C23   A    
C17   C19   A    
C26   H20   S    
Cu2   O3    S    
C12   H4    S    
Cu1   Cu2   S    
Cu1   O8    S    
Cu1   O4    S    
C1    O1    A    
C20   C24   A    
Cu2   N1    S    
C8    N2    D    
C1    C3    S    
Cu2   O7    S    
