data_mof_unit_28752.cif
_audit_creation_date              2012-12-10T20:34:55-0500
_audit_creation_method            fapswitch 2.2
_symmetry_space_group_name_H-M    P1
_symmetry_Int_Tables_number       1
_space_group_crystal_system       triclinic
_cell_length_a                    10.6578
_cell_length_b                    10.663072
_cell_length_c                    9.857436
_cell_angle_alpha                 89.814632
_cell_angle_beta                  90.222397
_cell_angle_gamma                 90.220906
_cell_volume                      1120.22464353

loop_
_atom_site_label
_atom_site_type_symbol
_atom_type_description
_atom_site_fract_x
_atom_site_fract_y
_atom_site_fract_z
_atom_type_partial_charge
C1    C     C_R   0.504384 0.259908 0.500190 0.895929
C2    C     C_R   0.525967 0.935543 0.623330 0.199882
C3    C     C_3   0.435989 0.927036 0.739001 -0.455585
C4    C     C_R   0.257782 0.499488 0.499717 0.911764
C5    C     C_3   0.434872 0.069069 0.738685 -0.512270
C6    C     C_R   0.449406 0.401466 0.071455 0.119556
C7    C     C_R   0.560902 0.590890 0.071940 -0.121858
C8    C     C_R   0.561133 0.590754 0.927896 -0.128469
C9    C     C_R   0.448015 0.402332 0.928763 0.200506
C10   C     C_3   0.314100 0.360959 0.924048 -0.593784
C11   C     C_3   0.316995 0.356750 0.078399 -0.230725
C12   C     C_3   0.878690 0.501821 0.501360 -0.010892
C13   C     C_R   0.504776 0.740050 0.499865 0.904443
C14   C     C_R   0.742165 0.501479 0.500153 0.852677
C15   C     C_3   0.072892 0.388010 0.585507 -0.412077
C16   C     C_3   0.928849 0.393408 0.594569 -0.151668
C17   C     C_3   0.074407 0.628769 0.556583 0.218743
C18   C     C_3   0.070600 0.484491 0.353217 -0.469109
C19   C     C_3   0.121638 0.500470 0.500006 0.029796
C20   C     C_2   0.309046 0.226147 0.135761 0.476439
C21   C     C_2   0.868875 0.266842 0.566212 0.410386
C22   C     C_2   0.871770 0.675331 0.685422 0.517989
C23   C     C_3   0.928638 0.632079 0.552591 -0.271651
C24   C     C_3   0.928069 0.483857 0.353900 -0.371286
C25   C     C_R   0.525435 0.063456 0.623488 0.126953
C26   C     C_R   0.526042 0.128674 0.500997 -0.102851
C27   C     C_R   0.551986 0.065462 0.379725 -0.154166
C28   C     C_R   0.552220 0.935727 0.379517 -0.210751
C29   C     C_R   0.526684 0.871340 0.500625 -0.097597
H1    H     H_    0.113332 0.387719 0.689515 0.146981
H2    H     H_    0.477822 0.110519 0.831292 0.202284
H3    H     H_    0.608050 0.665538 0.126225 0.142785
H4    H     H_    0.105009 0.299090 0.538127 0.223136
H5    H     H_    0.608579 0.665208 0.873490 0.166939
H6    H     H_    0.251365 0.435374 0.883681 0.218385
H7    H     H_    0.301986 0.268339 0.874669 0.190896
H8    H     H_    0.253147 0.425614 0.126390 0.186362
H9    H     H_    0.904917 0.415699 0.701476 0.087457
H10   H     H_    0.104333 0.562200 0.286734 0.174878
H11   H     H_    0.103957 0.394795 0.309301 0.252476
H12   H     H_    0.894164 0.560975 0.286748 0.172940
H13   H     H_    0.892750 0.394810 0.309210 0.242210
H14   H     H_    0.367295 0.151943 0.095085 0.045727
H15   H     H_    0.799644 0.229567 0.636203 0.065440
H16   H     H_    0.099479 0.589732 0.749640 0.327690
H17   H     H_    0.881645 0.619625 0.777039 0.044069
H18   H     H_    0.108962 0.703850 0.487113 0.136413
H19   H     H_    0.901208 0.703460 0.475006 0.151706
H20   H     H_    0.562788 0.115012 0.284336 0.161084
H21   H     H_    0.563007 0.887009 0.284020 0.162785
H22   H     H_    0.344350 0.884602 0.709615 0.233278
H23   H     H_    0.480113 0.886368 0.831486 0.207130
H24   H     H_    0.342702 0.108947 0.708072 0.210460
N1    N     N_R   0.499150 0.499140 0.142800 -0.108145
N2    N     N_R   0.499150 0.499180 0.857150 -0.097164
O1    O     O_R   0.500020 0.316790 0.614690 -0.629282
O2    O     O_2   0.894382 0.207166 0.464525 -0.554027
O3    O     O_3   0.124685 0.656957 0.685674 -0.755085
O4    O     O_2   0.813220 0.773401 0.690419 -0.586554
O5    O     O_R   0.500000 0.316760 0.385350 -0.612843
O6    O     O_R   0.314800 0.500000 0.614670 -0.589503
O7    O     O_R   0.314790 0.499960 0.385330 -0.631849
O8    O     O_R   0.500000 0.683240 0.614650 -0.600549
O9    O     O_R   0.499980 0.683210 0.385310 -0.634813
O10   O     O_R   0.685210 0.500040 0.614670 -0.644115
O11   O     O_R   0.685200 0.500000 0.385330 -0.624621
O12   O     O_2   0.237624 0.202580 0.228907 -0.574950
Zn1   Zn    Zn3+2 0.500010 0.500020 0.653130 0.965462
Zn2   Zn    Zn3+2 0.499990 0.499980 0.346870 0.954206

loop_
_geom_bond_atom_site_label_1
_geom_bond_atom_site_label_2
_ccdc_geom_bond_type
C10   H7    S    
C3    H23   S    
C17   H18   S    
C16   C21   S    
C21   O2    D    
C10   H6    S    
C9    N2    A    
C21   H15   S    
C24   H13   S    
C9    C10   S    
C12   C24   S    
C20   O12   D    
C13   O8    A    
C17   O3    S    
C18   H10   S    
O10   Zn1   S    
O1    Zn1   S    
C3    C5    S    
C6    C9    A    
C2    C3    S    
C14   O11   A    
C7    C8    A    
C8    H5    S    
O9    Zn2   S    
C23   H19   S    
C15   C19   S    
C24   H12   S    
N1    Zn2   S    
C12   C23   S    
C26   C27   A    
C17   C23   S    
C13   O9    A    
O5    Zn2   S    
C6    N1    A    
C2    C29   A    
C5    C25   S    
C8    N2    A    
C13   C29   S    
C28   C29   A    
C22   H17   S    
C1    O1    A    
C12   C14   S    
N2    Zn1   S    
C2    C25   A    
C6    C11   S    
C1    C26   S    
H16   O3    S    
C18   C24   S    
C11   C20   S    
O11   Zn2   S    
C10   C11   S    
C3    H22   S    
C15   C16   S    
C4    O7    A    
C22   O4    D    
C20   H14   S    
C15   H1    S    
C18   C19   S    
C1    O5    A    
C5    H24   S    
C27   C28   A    
C11   H8    S    
O6    Zn1   S    
C22   C23   S    
C18   H11   S    
C7    H3    S    
C12   C16   S    
C7    N1    A    
C17   C19   S    
C25   C26   A    
O8    Zn1   S    
C4    C19   S    
C28   H21   S    
C4    O6    A    
C15   H4    S    
C27   H20   S    
O7    Zn2   S    
C16   H9    S    
C14   O10   A    
C5    H2    S    
