data_mof_unit_26381.cif
_audit_creation_date              2012-12-10T18:50:02-0500
_audit_creation_method            fapswitch 2.2
_symmetry_space_group_name_H-M    P1
_symmetry_Int_Tables_number       1
_space_group_crystal_system       triclinic
_cell_length_a                    10.65218
_cell_length_b                    10.123939
_cell_length_c                    10.866851
_cell_angle_alpha                 87.744996
_cell_angle_beta                  96.252178
_cell_angle_gamma                 90.232075
_cell_volume                      1164.03076971

loop_
_atom_site_label
_atom_site_type_symbol
_atom_type_description
_atom_site_fract_x
_atom_site_fract_y
_atom_site_fract_z
_atom_type_partial_charge
C1    C     C_R   0.261280 0.500009 0.501771 1.036100
C2    C     C_3   0.569549 0.632510 0.932604 0.850899
C3    C     C_R   0.077416 0.436485 0.601920 0.501132
C4    C     C_R   0.053987 0.574978 0.412858 0.441892
C5    C     C_R   0.949234 0.443226 0.607125 0.452702
C6    C     C_R   0.925465 0.575552 0.414426 0.507930
C7    C     C_R   0.872930 0.504185 0.508429 -0.503617
C8    C     C_R   0.128854 0.501037 0.503729 -0.483436
C9    C     C_R   0.587194 0.065876 0.572103 0.085972
C10   C     C_R   0.600857 0.929414 0.551677 0.198819
C11   C     C_R   0.403998 0.930036 0.431853 0.116304
C12   C     C_R   0.406177 0.074087 0.430760 0.174375
C13   C     C_R   0.493386 0.500924 0.256949 0.936327
C14   C     C_R   0.739529 0.500542 0.505482 1.019936
C15   C     C_R   0.514869 0.498778 0.742131 1.002376
C16   C     C_3   0.356338 0.497696 0.041701 0.059172
C17   C     C_3   0.586611 0.370885 0.087954 0.153587
C18   C     C_3   0.378536 0.472213 0.905094 0.410107
C19   C     C_3   0.607890 0.391970 0.947166 0.383788
C20   C     C_3   0.566892 0.628668 0.074759 1.003899
C21   C     C_3   0.497978 0.497540 0.119075 -0.428262
C22   C     C_3   0.517343 0.498865 0.879607 -0.438156
H1    H     H_    0.313015 0.532273 0.840071 0.153214
H2    H     H_    0.705540 0.422346 0.935138 0.178559
N1    N     N_R   0.499970 0.857200 0.499970 -0.141400
N2    N     N_R   0.499970 0.142800 0.499970 -0.146719
O1    O     O_R   0.316750 0.614620 0.499990 -0.651152
O2    O     O_R   0.316750 0.385380 0.499990 -0.612351
O3    O     O_R   0.499970 0.614670 0.314790 -0.560079
O4    O     O_R   0.499970 0.385330 0.314790 -0.684016
O5    O     O_R   0.683220 0.614710 0.500010 -0.597789
O6    O     O_R   0.683220 0.385290 0.500010 -0.647377
O7    O     O_R   0.500010 0.614660 0.685200 -0.597347
O8    O     O_R   0.500010 0.385340 0.685200 -0.529061
Zn1   Zn    Zn3+2 0.499980 0.653120 0.500000 0.990912
Zn2   Zn    Zn3+2 0.499980 0.346880 0.500000 0.943871
C23   C     C_3   0.277126 0.631311 0.047596 -0.357477
C24   C     C_3   0.276209 0.753930 0.957377 -0.727942
H3    H     H_    0.348604 0.828197 0.985338 0.333019
H4    H     H_    0.276825 0.731538 0.858860 0.266155
H5    H     H_    0.186505 0.808952 0.960668 0.220419
H6    H     H_    0.175476 0.606489 0.031161 0.243655
H7    H     H_    0.294283 0.663532 0.143549 0.262020
C25   C     C_3   0.715399 0.366425 0.179251 -0.297439
C26   C     C_3   0.839175 0.338225 0.125035 -0.825932
H8    H     H_    0.873148 0.428826 0.078138 0.301459
H9    H     H_    0.912615 0.308955 0.201581 0.231187
H10   H     H_    0.829011 0.256969 0.059438 0.270707
H11   H     H_    0.731348 0.454262 0.234694 0.268573
H12   H     H_    0.708056 0.292426 0.256111 0.214687
C27   C     C_3   0.295632 0.852776 0.363973 -0.245617
C28   C     C_3   0.230522 0.901951 0.237547 -0.850719
H13   H     H_    0.152746 0.971761 0.246477 0.264725
H14   H     H_    0.300393 0.941369 0.176734 0.256801
H15   H     H_    0.178243 0.820843 0.190407 0.303712
H16   H     H_    0.335997 0.759216 0.340667 0.278441
H17   H     H_    0.222911 0.833419 0.428154 0.238527
C29   C     C_3   0.298101 0.152275 0.366666 -0.361665
C30   C     C_3   0.183040 0.145560 0.441017 -0.762433
H18   H     H_    0.138853 0.046531 0.439391 0.239874
H19   H     H_    0.211556 0.166903 0.539573 0.309417
H20   H     H_    0.110153 0.218378 0.403160 0.222303
H21   H     H_    0.328992 0.252338 0.351213 0.260628
H22   H     H_    0.276788 0.131219 0.268932 0.168210
C31   C     C_3   0.261487 0.386386 0.083707 -0.297772
C32   C     C_3   0.186528 0.414195 0.192062 -0.930856
H23   H     H_    0.144076 0.321332 0.224163 0.243301
H24   H     H_    0.248273 0.457693 0.267465 0.281853
H25   H     H_    0.104143 0.478986 0.164156 0.307508
H26   H     H_    0.187691 0.369708 0.005081 0.279143
H27   H     H_    0.303325 0.289913 0.105050 0.196059
C33   C     C_3   0.525623 0.226730 0.104313 -0.270912
C34   C     C_3   0.613085 0.105054 0.105025 -0.700054
H28   H     H_    0.670096 0.106508 0.025824 0.298856
H29   H     H_    0.676628 0.092998 0.192503 0.232916
H30   H     H_    0.553860 0.014456 0.098635 0.276236
H31   H     H_    0.481207 0.213268 0.190553 0.185126
H32   H     H_    0.451866 0.208827 0.027522 0.284950
F1    F     F_    0.348025 0.343715 0.872694 -0.593335
F2    F     F_    0.593454 0.276116 0.888303 -0.677059
F3    F     F_    0.510771 0.741481 0.110418 -0.651660
F4    F     F_    0.689733 0.637752 0.128599 -0.583379
F5    F     F_    0.504641 0.740742 0.877621 -0.653176
F6    F     F_    0.693344 0.650027 0.906422 -0.659577
F7    F     F_    0.151728 0.373550 0.695255 -0.590339
F8    F     F_    0.104659 0.644558 0.321881 -0.683528
F9    F     F_    0.902804 0.403258 0.713183 -0.663753
F10   F     F_    0.852898 0.647589 0.326140 -0.569044
C35   C     C_3   0.624994 0.102160 0.702028 -0.350679
C36   C     C_3   0.744718 0.184091 0.716571 -0.563546
H33   H     H_    0.809496 0.162531 0.646614 0.228586
H34   H     H_    0.717391 0.288952 0.708050 0.318150
H35   H     H_    0.795661 0.165412 0.810358 0.251172
H36   H     H_    0.542139 0.151642 0.731376 0.310557
H37   H     H_    0.637643 0.013378 0.765609 0.224231
C37   C     C_3   0.735572 0.880238 0.558656 -0.425795
C38   C     C_3   0.779215 0.801117 0.677736 -0.621712
H38   H     H_    0.707870 0.726813 0.698119 0.321900
H39   H     H_    0.869104 0.749775 0.667161 0.226990
H40   H     H_    0.796640 0.866851 0.757025 0.253823
H41   H     H_    0.748945 0.827034 0.474262 0.277593
H42   H     H_    0.801589 0.964793 0.552554 0.180815

loop_
_geom_bond_atom_site_label_1
_geom_bond_atom_site_label_2
_ccdc_geom_bond_type
C25   H11   S    
C32   H24   S    
C35   H37   S    
C16   C21   S    
C37   H42   S    
C3    F7    S    
C1    C8    S    
C34   H28   S    
C2    F6    S    
C14   O5    A    
C4    C8    A    
C38   H38   S    
C26   H8    S    
C25   C26   S    
C23   C24   S    
O6    Zn2   S    
C13   O3    A    
C15   C22   S    
C20   F4    S    
C24   H3    S    
C32   H25   S    
C4    F8    S    
C11   N1    A    
C31   H26   S    
C35   H36   S    
C6    F10   S    
C27   H16   S    
C23   H6    S    
C33   H32   S    
C17   C19   S    
C7    C14   S    
C18   F1    S    
C2    C22   S    
C1    O2    A    
C27   H17   S    
C9    C10   A    
C15   O8    A    
C28   H15   S    
C16   C23   S    
C12   C29   S    
C32   H23   S    
C30   H18   S    
C37   H41   S    
C34   H29   S    
C2    F5    S    
C38   H39   S    
C28   H14   S    
C9    N2    A    
C26   H9    S    
C29   H22   S    
C30   H19   S    
C2    C20   S    
C18   H1    S    
C13   O4    A    
C19   C22   S    
C24   H5    S    
C4    C6    A    
C3    C8    A    
C9    C35   S    
C5    C7    A    
O1    Zn1   S    
C29   C30   S    
C31   H27   S    
C17   C21   S    
C27   C28   S    
C12   N2    A    
C23   H7    S    
C33   H31   S    
C36   H34   S    
C10   C37   S    
C37   C38   S    
C13   C21   S    
N1    Zn1   S    
C10   N1    A    
N2    Zn2   S    
C34   H30   S    
O5    Zn1   S    
C38   H40   S    
C28   H13   S    
C36   H35   S    
C26   H10   S    
C25   H12   S    
C29   H21   S    
C30   H20   S    
C18   C22   S    
C14   O6    A    
C33   C34   S    
C3    C5    A    
C11   C12   A    
C6    C7    A    
O3    Zn1   S    
O4    Zn2   S    
C19   H2    S    
C17   C25   S    
C24   H4    S    
C36   H33   S    
O7    Zn1   S    
O8    Zn2   S    
C19   F2    S    
C11   C27   S    
C5    F9    S    
C20   C21   S    
O2    Zn2   S    
C17   C33   S    
C16   C18   S    
C31   C32   S    
C1    O1    A    
C16   C31   S    
C35   C36   S    
C20   F3    S    
C15   O7    A    
