data_mof_unit_64018.cif
_audit_creation_date              2012-12-11T21:22:46-0500
_audit_creation_method            fapswitch 2.2
_symmetry_space_group_name_H-M    P1
_symmetry_Int_Tables_number       1
_space_group_crystal_system       triclinic
_cell_length_a                    8.233062
_cell_length_b                    18.686125
_cell_length_c                    19.075246
_cell_angle_alpha                 103.83695
_cell_angle_beta                  92.789825
_cell_angle_gamma                 91.191145
_cell_volume                      2844.48225954

loop_
_atom_site_label
_atom_site_type_symbol
_atom_type_description
_atom_site_fract_x
_atom_site_fract_y
_atom_site_fract_z
_atom_type_partial_charge
Ba1   Ba    Ba6+2 0.155460 0.532000 0.467920 1.672356
Ba2   Ba    Ba6+2 0.654730 0.467990 0.532020 1.654285
C1    C     C_3   0.354998 0.702167 0.213350 -0.340276
C2    C     C_3   0.382302 0.681431 0.285334 0.362358
C3    C     C_3   0.494012 0.697737 0.657143 0.317207
C4    C     C_3   0.500483 0.781295 0.682797 -0.395370
C5    C     C_3   0.884390 0.277740 0.677469 0.382844
C6    C     C_3   0.866229 0.205203 0.699760 -0.372966
C7    C     C_3   0.419177 0.309328 0.714398 0.362290
C8    C     C_3   0.448984 0.282250 0.782863 -0.378308
C9    C     C_R   0.994907 0.955062 0.536171 0.021905
C10   C     C_R   0.087649 0.910224 0.571469 0.032777
C11   C     C_R   0.242471 0.935450 0.602805 -0.078072
C12   C     C_3   0.907924 0.726769 0.329376 0.322328
C13   C     C_R   0.304527 0.004717 0.599706 -0.089025
C14   C     C_R   0.211857 0.050631 0.566222 0.047341
C15   C     C_R   0.056643 0.025786 0.534104 0.049118
C16   C     C_R   0.271548 0.121239 0.565490 -0.106482
C17   C     C_R   0.176690 0.169215 0.534932 -0.029098
C18   C     C_R   0.022924 0.143404 0.500133 0.013757
C19   C     C_R   0.963657 0.071447 0.499876 0.038211
C20   C     C_R   0.229273 0.242685 0.538941 -0.011212
C21   C     C_R   0.128213 0.289262 0.510695 -0.308207
C22   C     C_R   0.982170 0.263570 0.471817 0.042749
C23   C     C_3   0.936167 0.801857 0.313387 -0.296134
C24   C     C_R   0.928519 0.189219 0.465396 -0.021841
C25   C     C_R   0.840348 0.929535 0.503657 0.010443
C26   C     C_R   0.781308 0.857679 0.503764 -0.003165
C27   C     C_R   0.877741 0.811345 0.537084 -0.047653
C28   C     C_R   0.026103 0.840435 0.574117 -0.045292
C29   C     C_R   0.782168 0.159512 0.426937 0.027717
C30   C     C_R   0.719414 0.090014 0.430185 -0.028519
C31   C     C_R   0.809869 0.045660 0.466710 0.012346
C32   C     C_R   0.746990 0.975183 0.469293 -0.026721
C33   C     C_R   0.565208 0.064919 0.398496 -0.072969
C34   C     C_3   0.815704 0.367630 0.309458 0.471776
C35   C     C_R   0.499176 0.996781 0.403068 0.377226
C36   C     C_R   0.590896 0.950518 0.437423 -0.021153
C37   C     C_R   0.626632 0.832160 0.469980 -0.062076
C38   C     C_R   0.531464 0.879990 0.439482 -0.075366
C39   C     C_R   0.573244 0.758869 0.466465 -0.005641
C40   C     C_R   0.673834 0.712377 0.495194 -0.297303
C41   C     C_R   0.823825 0.737113 0.530927 0.034862
C42   C     C_R   0.381431 0.515546 0.808027 -0.131821
C43   C     C_R   0.327395 0.516885 0.736823 0.033410
C44   C     C_R   0.145412 0.440685 0.816735 -0.157780
C45   C     C_3   0.810446 0.347187 0.226935 0.725463
C46   C     C_R   0.088949 0.446133 0.748198 0.010896
C47   C     C_R   0.636029 0.554751 0.188211 -0.151331
C48   C     C_R   0.701954 0.555201 0.257444 0.007505
C49   C     C_R   0.446797 0.457691 0.197973 -0.137735
C50   C     C_R   0.483598 0.473918 0.272579 0.064181
C51   C     C_R   0.301070 0.469339 0.846944 -0.004644
C52   C     C_R   0.186151 0.478185 0.706376 -0.252830
C53   C     C_R   0.514494 0.501039 0.154094 -0.009700
C54   C     C_R   0.615088 0.521189 0.301771 -0.262538
C55   C     C_R   0.158745 0.372484 0.946858 -0.088133
C56   C     C_3   0.998433 0.631656 0.689842 0.308514
C57   C     C_R   0.046396 0.358267 0.994530 -0.052535
C58   C     C_R   0.050737 0.402025 0.064629 -0.028899
C59   C     C_R   0.178722 0.453359 0.089085 -0.102412
C60   C     C_R   0.307697 0.458632 0.044760 0.013095
C61   C     C_R   0.275540 0.430957 0.969195 0.036150
C62   C     C_R   0.466975 0.486456 0.073074 -0.013464
C63   C     C_R   0.584593 0.490091 0.020920 0.040638
C64   C     C_R   0.534805 0.476716 0.945726 0.012098
C65   C     C_R   0.371068 0.457443 0.920282 -0.019769
C66   C     C_R   0.753063 0.503932 0.039976 -0.086299
C67   C     C_3   0.019645 0.653915 0.771941 -0.384989
C68   C     C_R   0.860861 0.517256 0.990334 -0.076988
C69   C     C_R   0.811043 0.502950 0.918114 -0.051842
C70   C     C_R   0.654905 0.474589 0.896091 -0.078004
C71   C     C_3   0.311001 0.305014 0.365207 0.353135
C72   C     C_3   0.322632 0.221411 0.346563 0.255096
H1    H     H_    0.316981 0.627906 0.281873 0.079642
H2    H     H_    0.798006 0.399341 0.208887 -0.196859
H3    H     H_    0.112496 0.609142 0.667271 0.004070
H4    H     H_    0.900041 0.588631 0.674506 0.087983
H5    H     H_    0.123325 0.694336 0.788914 0.135550
H6    H     H_    0.043698 0.604903 0.793600 0.058581
H7    H     H_    0.907009 0.679147 0.794955 0.127292
H8    H     H_    0.183942 0.320251 0.375766 -0.000294
H9    H     H_    0.390177 0.327094 0.414803 -0.008587
H10   H     H_    0.223733 0.710252 0.202711 0.156583
H11   H     H_    0.308211 0.200466 0.395613 -0.028635
H12   H     H_    0.443720 0.205939 0.325593 0.069142
H13   H     H_    0.514635 0.675925 0.295098 -0.066176
H14   H     H_    0.396432 0.657685 0.168832 0.062838
H15   H     H_    0.619423 0.679242 0.645613 0.016529
H16   H     H_    0.414703 0.682456 0.606659 0.057068
H17   H     H_    0.582578 0.798797 0.732200 0.130848
H18   H     H_    0.547234 0.805966 0.639907 0.054210
H19   H     H_    0.376657 0.801452 0.695142 0.119833
H20   H     H_    0.424461 0.754037 0.214388 0.131239
H21   H     H_    0.882239 0.845206 0.355189 0.086990
H22   H     H_    0.825003 0.271258 0.622646 0.080500
H23   H     H_    0.016575 0.289249 0.675087 -0.087587
H24   H     H_    0.735830 0.189256 0.700203 0.148483
H25   H     H_    0.926021 0.161030 0.660879 0.061284
H26   H     H_    0.924720 0.210664 0.754575 0.107846
H27   H     H_    0.285890 0.308944 0.702584 -0.061561
H28   H     H_    0.470800 0.366431 0.723579 0.070056
H29   H     H_    0.389718 0.318396 0.828239 0.068694
H30   H     H_    0.581271 0.282899 0.797311 0.149549
H31   H     H_    0.967746 0.727503 0.383020 0.084068
H32   H     H_    0.397930 0.225181 0.774674 0.110281
H33   H     H_    0.316328 0.901359 0.629320 0.062499
H34   H     H_    0.424587 0.022694 0.624211 0.066526
H35   H     H_    0.168548 0.345787 0.515496 0.068246
H36   H     H_    0.391262 0.138421 0.590169 0.103783
H37   H     H_    0.097691 0.808908 0.604129 0.098311
H38   H     H_    0.712403 0.190661 0.395904 0.093467
H39   H     H_    0.494318 0.098689 0.370668 0.114338
H40   H     H_    0.411519 0.862028 0.416003 0.166202
H41   H     H_    0.774737 0.717497 0.331231 -0.070745
H42   H     H_    0.632625 0.656134 0.491315 0.073738
H43   H     H_    0.485068 0.550810 0.831863 0.084393
H44   H     H_    0.059787 0.416617 0.845182 0.071379
H45   H     H_    0.688462 0.592587 0.159963 0.074842
H46   H     H_    0.365475 0.410990 0.175395 0.093577
H47   H     H_    0.143600 0.479340 0.652095 0.054908
H48   H     H_    0.657215 0.526968 0.357527 0.066837
H49   H     H_    0.156282 0.336117 0.893417 0.063172
H50   H     H_    0.952990 0.315285 0.976415 0.071322
H51   H     H_    0.956334 0.395576 0.100157 0.109463
H52   H     H_    0.068439 0.814529 0.313359 0.188835
H53   H     H_    0.180106 0.486829 0.143174 0.133182
H54   H     H_    0.807213 0.502620 0.091884 0.075617
H55   H     H_    0.986125 0.533971 0.007137 0.082022
H56   H     H_    0.895339 0.510993 0.879167 0.086177
H57   H     H_    0.626374 0.448870 0.840295 0.123712
H58   H     H_    0.878035 0.802329 0.259739 0.118065
H59   H     H_    0.696951 0.388413 0.327970 -0.132698
H60   H     H_    0.910145 0.412001 0.328883 0.001381
O1    O     O_2   0.114280 0.679350 0.549180 -0.462946
O2    O     O_3   0.362185 0.331919 0.307118 -0.575926
O3    O     O_3   0.974427 0.672321 0.275245 -0.594650
O4    O     O_2   0.696020 0.320600 0.450800 -0.477493
O5    O     O_3   0.943900 0.410390 0.456390 -0.508214
O6    O     O_3   0.448150 0.376500 0.584290 -0.474132
O7    O     O_3   0.849719 0.305212 0.335485 -0.581934
O8    O     O_3   0.365880 0.544470 0.588730 -0.479147
O9    O     O_3   0.859790 0.416060 0.623340 -0.476284
O10   O     O_2   0.762942 0.477426 0.750138 -0.506497
O11   O     O_3   0.810690 0.334058 0.727388 -0.598741
O12   O     O_3   0.866400 0.589600 0.543550 -0.497143
O13   O     O_3   0.444420 0.455520 0.411210 -0.495510
O14   O     O_2   0.612810 0.550740 0.677950 -0.456353
O15   O     O_3   0.431407 0.667153 0.711239 -0.638385
O16   O     O_2   0.561563 0.245778 0.524328 -0.502765
O17   O     O_3   0.496464 0.262444 0.658202 -0.600504
O18   O     O_3   0.362150 0.623490 0.415650 -0.489295
O19   O     O_2   0.236704 0.752860 0.471481 -0.485006
O20   O     O_3   0.960008 0.693914 0.664524 -0.640729
O21   O     O_3   0.322189 0.736848 0.340153 -0.594098
O22   O     O_2   0.197490 0.449210 0.322030 -0.453762
O23   O     O_3   0.950520 0.583920 0.376610 -0.479064
O24   O     O_2   0.032250 0.530855 0.245201 -0.498933
P1    P     P_3+3 0.941030 0.670050 0.569830 0.966653
P2    P     P_3+3 0.370400 0.428500 0.331430 1.038598
P3    P     P_3+3 0.913208 0.585982 0.286914 0.938054
P4    P     P_3+3 0.869270 0.329940 0.430110 1.003259
P5    P     P_3+3 0.880390 0.418569 0.714182 0.930332
P6    P     P_3+3 0.374715 0.718549 0.424021 0.945515
P7    P     P_3+3 0.429766 0.570957 0.681222 0.945409
P8    P     P_3+3 0.432260 0.281505 0.576179 0.933784
O25   O     O_3   0.677482 0.297214 0.200502 -0.622008
C73   C     C_3   0.642824 0.291706 0.126018 0.251406
H61   H     H_    0.740399 0.262151 0.093571 0.103160
H62   H     H_    0.629876 0.346762 0.113937 0.012029
C74   C     C_3   0.483101 0.248231 0.102587 -0.264678
H63   H     H_    0.383409 0.275828 0.134847 0.176786
H64   H     H_    0.452722 0.244797 0.044481 0.051365
H65   H     H_    0.493710 0.191574 0.110701 0.160866
Cl1   Cl    Cl    0.998647 0.306750 0.197725 -0.641206
Cl2   Cl    Cl    0.168152 0.178445 0.280479 -0.537801
Cl3   Cl    Cl    0.300869 0.971978 0.364331 -0.685534

loop_
_geom_bond_atom_site_label_1
_geom_bond_atom_site_label_2
_ccdc_geom_bond_type
C50   P2    S    
C36   C38   A    
C74   H63   S    
O14   P7    D    
C71   C72   S    
C17   C18   A    
C11   H33   S    
C34   H59   S    
Ba2   P4    S    
C5    C6    S    
C37   C39   A    
C46   P5    S    
C46   C52   A    
C5    H22   S    
C74   H64   S    
C27   C28   A    
C34   C45   S    
Ba2   O5    S    
C26   C27   A    
C33   C35   A    
C6    H25   S    
C22   C24   A    
C45   H2    S    
Ba1   Ba2   S    
C41   P1    S    
C23   H52   S    
C3    C4    S    
C55   C57   A    
C19   C31   A    
Ba2   O14   S    
C4    H17   S    
O16   P8    D    
C3    O15   S    
C44   H44   S    
Ba1   O18   S    
C16   C17   A    
C39   C40   A    
C47   C48   A    
C6    H24   S    
C2    H1    S    
C60   C62   A    
Ba1   O8    S    
C56   O20   S    
C56   H3    S    
C42   C51   A    
C12   H31   S    
C38   H40   S    
C64   C70   A    
C14   C15   A    
C29   H38   S    
C12   O3    S    
C68   C69   A    
C9    C25   A    
C7    C8    S    
C66   H54   S    
C3    H16   S    
O24   P3    D    
C63   C66   A    
C73   H62   S    
C64   C65   A    
O7    P4    S    
C12   C23   S    
C27   C41   A    
C48   P3    S    
Ba2   O9    S    
O8    P7    S    
Ba1   O12   S    
C1    H10   S    
Ba1   P2    S    
O13   P2    S    
O9    P5    S    
C49   H46   S    
C55   C61   A    
C44   C46   A    
C73   C74   S    
C25   C32   A    
O6    P8    S    
C21   H35   S    
C74   H65   S    
C61   C65   A    
O1    P1    D    
O19   P6    D    
C49   C50   A    
Ba2   O4    S    
C30   C33   A    
C45   Cl1   S    
Ba1   P1    S    
C17   C20   A    
O15   P7    S    
O4    P4    D    
O25   C73   S    
C2    H13   S    
C7    H28   S    
O12   P1    S    
O11   P5    S    
C26   C37   A    
C58   H51   S    
Ba2   O13   S    
C47   C53   A    
C68   H55   S    
C15   C19   A    
C58   C59   A    
C54   H48   S    
C13   H34   S    
C35   C36   A    
Ba1   O22   S    
C34   O7    S    
C57   C58   A    
C72   Cl2   S    
C60   C61   A    
C55   H49   S    
C45   O25   S    
C29   C30   A    
C71   O2    S    
O22   P2    D    
C21   C22   A    
C4    H19   S    
C53   C62   S    
O2    P2    S    
C31   C32   A    
C59   H53   S    
C72   H12   S    
O18   P6    S    
C67   H7    S    
C14   C16   A    
C73   H61   S    
C52   H47   S    
C43   C52   A    
C23   H21   S    
C11   C13   A    
O10   P5    D    
Ba2   O8    S    
Ba1   O13   S    
C40   C41   A    
C1    C2    S    
C8    H32   S    
O23   P3    S    
C71   H8    S    
C37   C38   A    
C42   C43   A    
C70   H57   S    
Ba1   O5    S    
C40   H42   S    
C57   H50   S    
C8    H29   S    
C5    H23   S    
C10   C28   A    
C1    H14   S    
C32   C36   A    
C9    C15   A    
O5    P4    S    
C22   P4    S    
C16   H36   S    
C34   H60   S    
C9    C10   A    
C56   C67   S    
O21   P6    S    
Ba2   O12   S    
O17   P8    S    
C35   Cl3   S    
C28   H37   S    
C7    O17   S    
Ba2   O6    S    
C62   C63   A    
C8    H30   S    
C6    H26   S    
O20   P1    S    
C30   C31   A    
C69   H56   S    
O3    P3    S    
C47   H45   S    
C18   C24   A    
C42   H43   S    
C4    H18   S    
C44   C51   A    
Ba1   O23   S    
C33   H39   S    
C1    H20   S    
C49   C53   A    
C72   H11   S    
C59   C60   A    
C51   C65   S    
C12   H41   S    
C48   C54   A    
C67   H5    S    
C56   H4    S    
C20   P8    S    
C50   C54   A    
C24   C29   A    
C2    O21   S    
C69   C70   A    
C18   C19   A    
C7    H27   S    
C63   C64   A    
C39   P6    S    
C25   C26   A    
C66   C68   A    
C20   C21   A    
C67   H6    S    
C10   C11   A    
Ba1   O1    S    
C23   H58   S    
C43   P7    S    
C71   H9    S    
C3    H15   S    
C13   C14   A    
C5    O11   S    
