data_mof_unit_17414.cif
_audit_creation_date              2013-03-05T15:51:39-0500
_audit_creation_method            fapswitch 2.2
_symmetry_space_group_name_H-M    P1
_symmetry_Int_Tables_number       1
_space_group_crystal_system       triclinic
_cell_length_a                    31.439077
_cell_length_b                    18.597652
_cell_length_c                    25.71835
_cell_angle_alpha                 90.11423
_cell_angle_beta                  144.921881
_cell_angle_gamma                 89.823085
_cell_volume                      8641.80529334

loop_
_atom_site_label
_atom_site_type_symbol
_atom_site_description
_atom_site_fract_x
_atom_site_fract_y
_atom_site_fract_z
_atom_type_partial_charge
Zn1   Zn    Zn3+2 0.000000 0.086750 0.293940 1.016340
Zn2   Zn    Zn3+2 0.000000 0.913250 0.706060 1.069807
Zn3   Zn    Zn3+2 0.000000 0.086750 0.706060 1.085193
Zn4   Zn    Zn3+2 1.000000 0.913250 0.293940 1.055362
Zn5   Zn    Zn3+2 0.500000 0.586750 0.293940 1.016333
Zn6   Zn    Zn3+2 0.500000 0.413250 0.706060 1.069805
Zn7   Zn    Zn3+2 0.500000 0.586750 0.706060 1.085201
Zn8   Zn    Zn3+2 0.500000 0.413250 0.293940 1.055363
Zn9   Zn    Zn3+2 0.913220 0.000000 0.119290 0.965685
Zn10  Zn    Zn3+2 0.086780 1.000000 0.880710 0.983036
Zn11  Zn    Zn3+2 0.413220 0.500000 0.119290 0.965673
Zn12  Zn    Zn3+2 0.586780 0.500000 0.880710 0.983033
Zn13  Zn    Zn3+2 0.086730 0.000000 0.292800 1.097581
Zn14  Zn    Zn3+2 0.913270 0.000000 0.707200 1.077724
Zn15  Zn    Zn3+2 0.586730 0.500000 0.292800 1.097582
Zn16  Zn    Zn3+2 0.413270 0.500000 0.707200 1.077680
O1    O     O_3   0.999990 1.000000 0.249990 -0.531622
O2    O     O_3   0.000010 1.000000 0.750010 -0.532379
O3    O     O_3   0.499990 0.500000 0.249990 -0.531621
O4    O     O_3   0.500010 0.500000 0.750010 -0.532370
O5    O     O_R   0.914560 0.853840 0.195310 -0.619875
O6    O     O_R   0.085440 0.146160 0.804690 -0.618550
O7    O     O_R   0.085440 0.853840 0.804690 -0.594271
O8    O     O_R   0.914560 0.146160 0.195310 -0.614921
O9    O     O_R   0.414560 0.353840 0.195310 -0.619872
O10   O     O_R   0.585440 0.646160 0.804690 -0.618552
O11   O     O_R   0.585440 0.353840 0.804690 -0.594283
O12   O     O_R   0.414560 0.646160 0.195310 -0.614920
O13   O     O_R   0.085440 0.146150 0.366190 -0.655070
O14   O     O_R   0.914560 0.853850 0.633810 -0.628384
O15   O     O_R   0.914560 0.146150 0.633810 -0.639261
O16   O     O_R   0.085440 0.853850 0.366190 -0.633434
O17   O     O_R   0.585440 0.646150 0.366190 -0.655068
O18   O     O_R   0.414560 0.353850 0.633810 -0.628346
O19   O     O_R   0.414560 0.646150 0.633810 -0.639253
O20   O     O_R   0.585440 0.353850 0.366190 -0.633430
O21   O     O_R   0.853820 0.085430 0.073070 -0.681057
O22   O     O_R   0.146180 0.914570 0.926930 -0.688755
O23   O     O_R   0.146180 0.085430 0.926930 -0.626631
O24   O     O_R   0.853820 0.914570 0.073070 -0.611143
O25   O     O_R   0.353820 0.585430 0.073070 -0.681066
O26   O     O_R   0.646180 0.414570 0.926930 -0.688739
O27   O     O_R   0.646180 0.585430 0.926930 -0.626647
O28   O     O_R   0.353820 0.414570 0.073070 -0.611148
O29   O     O_R   0.146150 0.914540 0.365390 -0.569230
O30   O     O_R   0.853850 0.085460 0.634610 -0.552888
O31   O     O_R   0.853850 0.914540 0.634610 -0.585540
O32   O     O_R   0.146150 0.085460 0.365390 -0.542276
O33   O     O_R   0.646150 0.414540 0.365390 -0.569242
O34   O     O_R   0.353850 0.585460 0.634610 -0.552879
O35   O     O_R   0.353850 0.414540 0.634610 -0.585644
O36   O     O_R   0.646150 0.585460 0.365390 -0.542287
O37   O     O_R   0.939240 0.000000 0.071950 -0.685131
O38   O     O_R   0.060760 0.000000 0.928050 -0.668960
O39   O     O_R   0.439240 0.500000 0.071950 -0.685132
O40   O     O_R   0.560760 0.500000 0.928050 -0.668961
O41   O     O_R   0.000020 0.939290 0.367320 -0.566403
O42   O     O_R   0.999980 0.060710 0.632680 -0.585737
O43   O     O_R   0.999980 0.939290 0.632680 -0.607640
O44   O     O_R   0.000020 0.060710 0.367320 -0.648649
O45   O     O_R   0.500020 0.439290 0.367320 -0.566403
O46   O     O_R   0.499980 0.560710 0.632680 -0.585737
O47   O     O_R   0.499980 0.439290 0.632680 -0.607641
O48   O     O_R   0.500020 0.560710 0.367320 -0.648657
O49   O     O_R   0.060680 0.000000 0.193390 -0.620382
O50   O     O_R   0.939320 1.000000 0.806610 -0.629784
O51   O     O_R   0.560680 0.500000 0.193390 -0.620383
O52   O     O_R   0.439320 0.500000 0.806610 -0.629794
C1    C     C_R   0.859823 0.859395 0.107204 0.836777
C2    C     C_R   0.139215 0.141299 0.892292 0.825987
C3    C     C_R   0.141280 0.861427 0.890798 0.891610
C4    C     C_R   0.858748 0.138536 0.109115 0.887246
C5    C     C_R   0.359822 0.359396 0.107204 0.836766
C6    C     C_R   0.639214 0.641300 0.892291 0.825997
C7    C     C_R   0.641281 0.361428 0.890798 0.891607
C8    C     C_R   0.358748 0.638536 0.109115 0.887247
C9    C     C_R   0.140530 0.139178 0.390582 0.883585
C10   C     C_R   0.859986 0.859503 0.611935 0.790165
C11   C     C_R   0.855995 0.135874 0.602468 0.899929
C12   C     C_R   0.143878 0.862852 0.395755 0.838575
C13   C     C_R   0.640529 0.639178 0.390580 0.883618
C14   C     C_R   0.359989 0.359501 0.611939 0.790118
C15   C     C_R   0.355995 0.635873 0.602468 0.899924
C16   C     C_R   0.643879 0.362853 0.395757 0.838596
C17   C     C_R   0.000492 0.009874 0.109564 0.836690
C18   C     C_R   0.000177 0.000697 0.891991 0.879360
C19   C     C_R   0.500491 0.509873 0.109563 0.836687
C20   C     C_R   0.500177 0.500696 0.891991 0.879336
C21   C     C_R   0.000950 0.000103 0.392173 0.913209
C22   C     C_R   0.998926 0.999768 0.607724 0.989488
C23   C     C_R   0.500950 0.500103 0.392173 0.913197
C24   C     C_R   0.498926 0.499768 0.607724 0.989487
C25   C     C_3   0.061216 0.966772 0.544974 0.107170
C26   C     C_3   0.937066 0.031841 0.453404 0.106637
C27   C     C_3   0.000465 0.931445 0.517049 0.166731
C28   C     C_3   0.997675 0.067600 0.481309 0.135455
C29   C     C_3   0.561218 0.466773 0.544975 0.107160
C30   C     C_3   0.437065 0.531838 0.453403 0.106636
C31   C     C_3   0.500469 0.431445 0.517052 0.166732
C32   C     C_3   0.497673 0.567600 0.481307 0.135462
C33   C     C_3   0.058342 0.034521 0.576835 0.360868
C34   C     C_3   0.940159 0.964297 0.421536 0.344346
C35   C     C_3   0.558342 0.534523 0.576834 0.360870
C36   C     C_3   0.440161 0.464294 0.421539 0.344350
C37   C     C_3   0.997386 0.998991 0.549269 -0.352709
C38   C     C_3   0.001195 0.000163 0.449339 -0.349172
C39   C     C_3   0.497387 0.498991 0.549269 -0.352708
C40   C     C_3   0.501195 0.500162 0.449340 -0.349171
H1    H     H_    0.385209 0.031935 0.680020 0.219721
H2    H     H_    0.604340 0.951154 0.401219 0.249009
H3    H     H_    0.648784 0.078787 0.513435 0.210445
H4    H     H_    0.314546 0.888429 0.412419 0.234297
H5    H     H_    0.885198 0.531948 0.680041 0.219725
H6    H     H_    0.104362 0.451147 0.401284 0.249003
H7    H     H_    0.148795 0.578800 0.513463 0.210489
H8    H     H_    0.814571 0.388452 0.412461 0.234311
C41   C     C_R   0.103395 0.287476 0.343403 -0.188901
C42   C     C_R   0.903461 0.708359 0.668088 -0.218010
C43   C     C_R   0.828687 0.225550 0.481878 -0.179525
C44   C     C_R   0.162982 0.756849 0.499576 -0.185635
C45   C     C_R   0.603387 0.787470 0.343373 -0.188897
C46   C     C_R   0.403469 0.208351 0.668079 -0.218037
C47   C     C_R   0.328678 0.725536 0.481865 -0.179514
C48   C     C_R   0.662976 0.256842 0.499569 -0.185615
C49   C     C_R   0.078142 0.356125 0.331453 0.306345
C50   C     C_R   0.924527 0.636943 0.697951 0.324130
C51   C     C_R   0.833700 0.278368 0.448885 0.322705
C52   C     C_R   0.145472 0.694950 0.510674 0.295202
C53   C     C_R   0.578128 0.856119 0.331407 0.306460
C54   C     C_R   0.424536 0.136934 0.697934 0.324148
C55   C     C_R   0.333685 0.778348 0.448862 0.322724
C56   C     C_R   0.645463 0.194939 0.510659 0.295220
C57   C     C_R   0.625615 0.901949 0.405638 -0.290700
C58   C     C_R   0.369942 0.086311 0.654198 -0.310361
C59   C     C_R   0.307817 0.846867 0.434385 -0.278541
C60   C     C_R   0.666191 0.127664 0.511635 -0.109959
C61   C     C_R   0.125634 0.401944 0.405695 -0.290424
C62   C     C_R   0.869932 0.586322 0.654215 -0.310364
C63   C     C_R   0.807835 0.346887 0.434417 -0.278494
C64   C     C_R   0.166199 0.627673 0.511655 -0.109916
C65   C     C_R   0.699544 0.882939 0.488094 0.507204
C66   C     C_R   0.294918 0.104035 0.575294 0.451330
C67   C     C_R   0.277740 0.863561 0.453367 0.514400
C68   C     C_R   0.707357 0.122669 0.507048 0.551226
C69   C     C_R   0.199561 0.382927 0.488147 0.507238
C70   C     C_R   0.794909 0.604045 0.575303 0.451326
C71   C     C_R   0.777753 0.363574 0.453393 0.514417
C72   C     C_R   0.207363 0.622672 0.507064 0.551215
C73   C     C_R   0.728597 0.818366 0.494679 -0.086169
C74   C     C_R   0.273152 0.174153 0.537000 -0.035800
C75   C     C_R   0.258634 0.806011 0.469027 -0.003426
C76   C     C_R   0.735001 0.186378 0.511453 -0.035007
C77   C     C_R   0.228608 0.318358 0.494711 -0.086293
C78   C     C_R   0.773146 0.674159 0.537002 -0.035833
C79   C     C_R   0.758642 0.306019 0.469042 -0.003432
C80   C     C_R   0.235001 0.686377 0.511457 -0.034999
C81   C     C_R   0.177037 0.266073 0.428185 -0.049996
C82   C     C_R   0.827924 0.728431 0.589039 -0.027325
C83   C     C_R   0.794615 0.239381 0.496232 -0.029880
C84   C     C_R   0.201611 0.752242 0.490462 -0.000463
C85   C     C_R   0.677031 0.766074 0.428161 -0.050058
C86   C     C_R   0.327931 0.228425 0.589038 -0.027300
C87   C     C_R   0.294608 0.739372 0.496221 -0.029881
C88   C     C_R   0.701609 0.252241 0.490461 -0.000454
C89   C     C_R   0.805281 0.801605 0.564911 -0.079848
C90   C     C_R   0.198621 0.193192 0.450827 -0.061862
C91   C     C_R   0.206329 0.810324 0.459179 -0.092857
C92   C     C_R   0.792603 0.185698 0.532646 -0.128737
C93   C     C_R   0.305288 0.301599 0.564922 -0.080017
C94   C     C_R   0.698618 0.693194 0.450820 -0.061864
C95   C     C_R   0.706331 0.310327 0.459185 -0.092861
C96   C     C_R   0.292600 0.685694 0.532643 -0.128743
H9    H     H_    0.064728 0.250563 0.286842 0.184264
H10   H     H_    0.947106 0.747703 0.710007 0.191239
H11   H     H_    0.847738 0.172119 0.491137 0.217539
H12   H     H_    0.147632 0.808569 0.500066 0.228820
H13   H     H_    0.564724 0.750549 0.286821 0.184251
H14   H     H_    0.447113 0.247696 0.709999 0.191248
H15   H     H_    0.347731 0.672104 0.491129 0.217529
H16   H     H_    0.647625 0.308560 0.500060 0.228819
C97   C     C_R   0.896753 0.709082 0.152937 -0.256698
C98   C     C_R   0.099117 0.290648 0.843138 -0.218024
C99   C     C_R   0.137848 0.753367 0.964657 -0.286880
C100  C     C_R   0.858360 0.243446 0.028912 -0.258132
C101  C     C_R   0.396754 0.209083 0.152930 -0.256705
C102  C     C_R   0.599117 0.790648 0.843129 -0.218015
C103  C     C_R   0.637832 0.253355 0.964631 -0.286883
C104  C     C_R   0.358348 0.743437 0.028891 -0.258121
C105  C     C_R   0.919360 0.648026 0.202559 0.279322
C106  C     C_R   0.074722 0.348170 0.789235 0.283075
C107  C     C_R   0.124899 0.695687 0.984944 0.246479
C108  C     C_R   0.864481 0.296759 0.997157 0.204918
C109  C     C_R   0.419366 0.148025 0.202551 0.279329
C110  C     C_R   0.574724 0.848165 0.789221 0.283072
C111  C     C_R   0.624878 0.195672 0.984908 0.246475
C112  C     C_R   0.364468 0.796749 0.997134 0.204923
C113  C     C_R   0.366936 0.111640 0.181037 0.131473
C114  C     C_R   0.626321 0.887247 0.811612 0.147606
C115  C     C_R   0.669182 0.133763 0.025140 0.223535
C116  C     C_R   0.315675 0.855821 0.949311 0.180737
C117  C     C_R   0.866926 0.611646 0.181041 0.131465
C118  C     C_R   0.126316 0.387257 0.811622 0.147609
C119  C     C_R   0.169198 0.633775 0.025169 0.223546
C120  C     C_R   0.815688 0.355831 0.949334 0.180741
C121  C     C_R   0.290202 0.130873 0.101149 0.358052
C122  C     C_R   0.703921 0.874053 0.895250 0.391833
C123  C     C_R   0.729265 0.132096 0.049856 0.362602
C124  C     C_R   0.266095 0.863598 0.942025 0.392397
C125  C     C_R   0.790193 0.630883 0.101148 0.358056
C126  C     C_R   0.203917 0.374059 0.895255 0.391828
C127  C     C_R   0.229272 0.632102 0.049870 0.362606
C128  C     C_R   0.766106 0.363606 0.942043 0.392380
C129  C     C_R   0.268193 0.185852 0.043643 -0.037994
C130  C     C_R   0.728220 0.817073 0.953506 -0.027758
C131  C     C_R   0.742094 0.191530 0.028343 -0.046326
C132  C     C_R   0.255849 0.806203 0.968170 -0.068112
C133  C     C_R   0.768189 0.685856 0.043642 -0.037989
C134  C     C_R   0.228218 0.317075 0.953509 -0.027764
C135  C     C_R   0.242099 0.691534 0.028351 -0.046321
C136  C     C_R   0.755855 0.306208 0.968181 -0.068110
C137  C     C_R   0.822952 0.732423 0.079872 -0.065008
C138  C     C_R   0.173657 0.269455 0.917435 -0.067920
C139  C     C_R   0.193380 0.750999 0.981516 -0.002275
C140  C     C_R   0.804672 0.246996 0.015197 -0.003924
C141  C     C_R   0.322953 0.232423 0.079870 -0.065006
C142  C     C_R   0.673657 0.769455 0.917430 -0.067923
C143  C     C_R   0.693373 0.250994 0.981505 -0.002271
C144  C     C_R   0.304665 0.746991 0.015185 -0.003914
C145  C     C_R   0.193362 0.200442 0.954649 -0.022936
C146  C     C_R   0.803803 0.801769 0.043269 -0.037106
C147  C     C_R   0.800490 0.192752 0.049588 -0.027360
C148  C     C_R   0.199139 0.806591 0.949826 -0.043959
C149  C     C_R   0.693360 0.700444 0.954646 -0.022934
C150  C     C_R   0.303802 0.301770 0.043270 -0.037101
C151  C     C_R   0.300489 0.692751 0.049587 -0.027354
C152  C     C_R   0.699139 0.306591 0.949825 -0.043951
H17   H     H_    0.937402 0.739463 0.171945 0.205035
H18   H     H_    0.058355 0.259104 0.823090 0.216222
H19   H     H_    0.100949 0.799024 0.931061 0.164341
H20   H     H_    0.897685 0.199587 0.066471 0.171786
H21   H     H_    0.437401 0.239468 0.171935 0.205030
H22   H     H_    0.558354 0.759107 0.823081 0.216224
H23   H     H_    0.600930 0.299011 0.931030 0.164334
H24   H     H_    0.397672 0.699577 0.066450 0.171790
C153  C     C_R   0.880010 0.087004 0.930989 -0.177593
C154  C     C_R   0.120127 0.945169 0.077299 -0.210200
C155  C     C_R   0.380008 0.587000 0.930986 -0.177588
C156  C     C_R   0.620126 0.445167 0.077299 -0.210257
C157  C     C_R   0.825451 0.121403 0.847711 -0.265953
C158  C     C_R   0.188707 0.942325 0.170616 -0.306783
C159  C     C_R   0.325450 0.621400 0.847709 -0.265944
C160  C     C_R   0.688706 0.442321 0.170616 -0.306778
C161  C     C_R   0.836627 0.135877 0.806176 0.482790
C162  C     C_R   0.203131 0.987744 0.227480 0.458537
C163  C     C_R   0.336628 0.635876 0.806176 0.482806
C164  C     C_R   0.703130 0.487739 0.227481 0.458531
C165  C     C_R   0.899995 0.108046 0.844150 0.258036
C166  C     C_R   0.143793 0.025428 0.191447 0.279909
C167  C     C_R   0.399996 0.608045 0.844150 0.258052
C168  C     C_R   0.643793 0.525425 0.191447 0.279904
C169  C     C_R   0.947520 0.059468 0.919086 -0.101816
C170  C     C_R   0.071133 0.016784 0.097968 -0.084635
C171  C     C_R   0.447520 0.559467 0.919086 -0.101821
C172  C     C_R   0.571133 0.516783 0.097968 -0.084622
C173  C     C_R   0.942626 0.056897 0.968929 0.076295
C174  C     C_R   0.063750 0.990718 0.040253 0.029696
C175  C     C_R   0.442625 0.556895 0.968928 0.076292
C176  C     C_R   0.563750 0.490717 0.040253 0.029687
C177  C     C_R   0.001886 0.014500 0.949246 -0.078335
C178  C     C_R   0.004337 0.029906 0.058467 -0.055183
C179  C     C_R   0.501887 0.514499 0.949246 -0.078343
C180  C     C_R   0.504337 0.529906 0.058467 -0.055184
H25   H     H_    0.873527 0.088802 0.966087 0.180307
H26   H     H_    0.112541 0.912662 0.035222 0.199290
H27   H     H_    0.373524 0.588798 0.966083 0.180306
H28   H     H_    0.612540 0.412660 0.035221 0.199291
H29   H     H_    0.777112 0.142343 0.819195 0.186174
H30   H     H_    0.231858 0.908300 0.197901 0.206876
H31   H     H_    0.277110 0.642339 0.819192 0.186172
H32   H     H_    0.731855 0.408293 0.197901 0.206888
O53   O     O_3   0.117828 0.072434 0.659057 -0.546188
C181  C     C_3   0.173249 0.085854 0.677122 -0.043265
H33   H     H_    0.151297 0.094947 0.615208 0.110972
H34   H     H_    0.213751 0.040974 0.717108 0.211298
H35   H     H_    0.203587 0.135117 0.719062 0.190577
O54   O     O_3   0.882686 0.924738 0.340209 -0.588799
C182  C     C_3   0.821256 0.919036 0.312206 -0.059773
H36   H     H_    0.783639 0.965545 0.268728 0.200027
H37   H     H_    0.836514 0.914515 0.369255 0.174637
H38   H     H_    0.790059 0.869825 0.270478 0.203291
O55   O     O_3   0.617825 0.572438 0.659055 -0.546187
C183  C     C_3   0.673246 0.585860 0.677120 -0.043272
H39   H     H_    0.651295 0.594950 0.615206 0.110964
H40   H     H_    0.713750 0.540982 0.717109 0.211291
H41   H     H_    0.703581 0.635125 0.719056 0.190585
O56   O     O_3   0.382690 0.424733 0.340213 -0.588801
C184  C     C_3   0.321261 0.419027 0.312211 -0.059773
H42   H     H_    0.283641 0.465534 0.268731 0.200036
H43   H     H_    0.336519 0.414507 0.369260 0.174643
H44   H     H_    0.290066 0.369815 0.270486 0.203288
O57   O     O_3   0.240959 0.115571 0.092096 -0.571793
C185  C     C_3   0.240752 0.042505 0.106356 -0.077452
H45   H     H_    0.279259 0.032891 0.177554 0.153424
H46   H     H_    0.250962 0.005333 0.083431 0.149103
H47   H     H_    0.185877 0.030109 0.067304 0.205975
O58   O     O_3   0.753435 0.902922 0.909031 -0.582619
C186  C     C_3   0.748389 0.978972 0.901505 -0.055388
H48   H     H_    0.726319 0.004295 0.915618 0.163445
H49   H     H_    0.716096 0.995928 0.834708 0.183702
H50   H     H_    0.804200 0.000841 0.950875 0.202172
O59   O     O_3   0.769187 0.068797 0.084424 -0.619132
C187  C     C_3   0.817850 0.060611 0.175685 -0.131279
H51   H     H_    0.788724 0.040573 0.181531 0.211526
H52   H     H_    0.847720 0.111191 0.215091 0.192296
H53   H     H_    0.859586 0.019404 0.206818 0.152809
O60   O     O_3   0.229550 0.928408 0.911649 -0.600199
C188  C     C_3   0.274670 0.973577 0.987629 -0.141252
H54   H     H_    0.246223 0.025935 0.964252 0.158597
H55   H     H_    0.328915 0.984443 0.023032 0.206424
H56   H     H_    0.284376 0.950190 0.036517 0.163706
O61   O     O_3   0.740946 0.615593 0.092092 -0.571799
C189  C     C_3   0.740731 0.542532 0.106354 -0.077449
H57   H     H_    0.779241 0.532922 0.177553 0.153423
H58   H     H_    0.750933 0.505351 0.083425 0.149122
H59   H     H_    0.685857 0.530149 0.067308 0.205983
O62   O     O_3   0.253427 0.402925 0.909028 -0.582620
C190  C     C_3   0.248385 0.478976 0.901507 -0.055388
H60   H     H_    0.226323 0.504300 0.915630 0.163451
H61   H     H_    0.216087 0.495933 0.834708 0.183706
H62   H     H_    0.304197 0.500840 0.950873 0.202169
O63   O     O_3   0.269186 0.568799 0.084423 -0.619135
C191  C     C_3   0.317856 0.560604 0.175686 -0.131280
H63   H     H_    0.288735 0.540555 0.181538 0.211530
H64   H     H_    0.347726 0.611182 0.215098 0.192297
H65   H     H_    0.359591 0.519401 0.206811 0.152794
O64   O     O_3   0.729560 0.428416 0.911667 -0.600204
C192  C     C_3   0.774678 0.473582 0.987649 -0.141234
H66   H     H_    0.746234 0.525943 0.964271 0.158600
H67   H     H_    0.828928 0.484443 0.023064 0.206413
H68   H     H_    0.784372 0.450195 0.036527 0.163717
O65   O     O_3   0.273450 0.992314 0.318927 -0.613010
C193  C     C_3   0.322821 0.021374 0.331513 -0.108065
H69   H     H_    0.300665 0.071594 0.291554 0.169112
H70   H     H_    0.336970 0.981142 0.315245 0.179442
H71   H     H_    0.374999 0.035606 0.403950 0.230559
O66   O     O_3   0.785651 0.177054 0.728120 -0.615061
C194  C     C_3   0.787856 0.248640 0.748619 -0.024429
H72   H     H_    0.845451 0.269867 0.807635 0.190251
H73   H     H_    0.761047 0.253440 0.760536 0.185028
H74   H     H_    0.756140 0.283048 0.689612 0.207309
O67   O     O_3   0.773447 0.492301 0.318930 -0.613014
C195  C     C_3   0.822825 0.521362 0.331527 -0.108045
H75   H     H_    0.800679 0.571592 0.291585 0.169115
H76   H     H_    0.836970 0.481135 0.315250 0.179462
H77   H     H_    0.875004 0.535581 0.403969 0.230556
O68   O     O_3   0.285653 0.677055 0.728122 -0.615064
C196  C     C_3   0.287856 0.748639 0.748621 -0.024437
H78   H     H_    0.345451 0.769866 0.807643 0.190258
H79   H     H_    0.261040 0.753436 0.760529 0.185034
H80   H     H_    0.256145 0.783050 0.689618 0.207308
N1    N     N_R   0.923643 0.140584 0.819684 0.212899
O69   O     O_R   0.875838 0.170372 0.740805 -0.359635
O70   O     O_R   0.993497 0.154269 0.882262 -0.389130
N2    N     N_R   0.158527 0.079892 0.244925 0.235228
O71   O     O_R   0.216550 0.075930 0.332791 -0.320151
O72   O     O_R   0.115395 0.135801 0.205829 -0.363746
N3    N     N_R   0.423645 0.640584 0.819687 0.212903
O73   O     O_R   0.375840 0.670373 0.740808 -0.359632
O74   O     O_R   0.493499 0.654269 0.882266 -0.389126
N4    N     N_R   0.658528 0.579889 0.244926 0.235223
O75   O     O_R   0.716550 0.575926 0.332792 -0.320148
O76   O     O_R   0.615397 0.635800 0.205831 -0.363751
N5    N     N_R   0.128807 0.930307 0.596047 0.241183
O77   O     O_R   0.174916 0.905929 0.676745 -0.305586
O78   O     O_R   0.142906 0.920696 0.561102 -0.444077
N6    N     N_R   0.869147 0.066786 0.402961 0.251289
O79   O     O_R   0.826547 0.099130 0.326964 -0.316816
O80   O     O_R   0.846840 0.059187 0.428370 -0.443005
N7    N     N_R   0.999982 0.857403 0.535429 0.280912
O81   O     O_R   0.057394 0.816091 0.586533 -0.243976
O82   O     O_R   0.943118 0.833169 0.503972 -0.348361
N8    N     N_R   0.994927 0.142197 0.461039 0.281241
O83   O     O_R   0.043410 0.188470 0.526029 -0.302097
O84   O     O_R   0.940287 0.164263 0.377615 -0.307034
N9    N     N_R   0.628810 0.430310 0.596050 0.241172
O85   O     O_R   0.674921 0.405937 0.676751 -0.305598
O86   O     O_R   0.642905 0.420692 0.561101 -0.444059
N10   N     N_R   0.369144 0.566780 0.402958 0.251289
O87   O     O_R   0.326544 0.599122 0.326959 -0.316792
O88   O     O_R   0.346836 0.559177 0.428365 -0.443004
N11   N     N_R   0.499988 0.357403 0.535435 0.280910
O89   O     O_R   0.557402 0.316092 0.586537 -0.243981
O90   O     O_R   0.443126 0.333166 0.503982 -0.348355
N12   N     N_R   0.494922 0.642196 0.461034 0.281242
O91   O     O_R   0.543404 0.688471 0.526022 -0.302111
O92   O     O_R   0.440281 0.664261 0.377610 -0.307042
N13   N     N_R   0.002498 0.376440 0.247094 0.243402
O93   O     O_R   0.984129 0.443838 0.224416 -0.342281
O94   O     O_R   0.950948 0.327869 0.194253 -0.402248
N14   N     N_R   0.001297 0.616262 0.773422 0.232764
O95   O     O_R   0.022053 0.553130 0.810458 -0.313491
O96   O     O_R   0.049753 0.657270 0.799233 -0.387054
N15   N     N_R   0.869652 0.263794 0.436096 0.266247
O97   O     O_R   0.859313 0.305807 0.385977 -0.326047
O98   O     O_R   0.917837 0.211961 0.480648 -0.271738
N16   N     N_R   0.103260 0.700254 0.515722 0.246130
O99   O     O_R   0.094086 0.644289 0.536133 -0.298955
O100  O     O_R   0.071855 0.760646 0.497434 -0.285127
N17   N     N_R   0.502480 0.876424 0.247046 0.243398
O101  O     O_R   0.484102 0.943820 0.224357 -0.342279
O102  O     O_R   0.450936 0.827849 0.194220 -0.402282
N18   N     N_R   0.501305 0.116253 0.773398 0.232760
O103  O     O_R   0.522064 0.053119 0.810430 -0.313513
O104  O     O_R   0.549758 0.157266 0.799208 -0.387046
N19   N     N_R   0.369636 0.763769 0.436073 0.266254
O105  O     O_R   0.359286 0.805769 0.385937 -0.326050
O106  O     O_R   0.417836 0.711948 0.480646 -0.271742
N20   N     N_R   0.603250 0.200236 0.515704 0.246130
O107  O     O_R   0.594070 0.144265 0.536104 -0.298982
O108  O     O_R   0.571851 0.260628 0.497429 -0.285128
O109  O     O_3   0.737124 0.922587 0.562681 -0.534537
C197  C     C_3   0.740422 0.882989 0.612661 -0.181431
H81   H     H_    0.774963 0.833746 0.642707 0.145265
H82   H     H_    0.684040 0.868727 0.570359 0.172708
H83   H     H_    0.766814 0.916988 0.669291 0.195463
O110  O     O_3   0.243978 0.051423 0.536402 -0.602010
C198  C     C_3   0.226970 0.056734 0.572758 -0.267461
H84   H     H_    0.274782 0.039317 0.644772 0.201844
H85   H     H_    0.179919 0.020471 0.533949 0.203873
H86   H     H_    0.209159 0.112050 0.566142 0.141728
O111  O     O_3   0.267588 0.935243 0.456663 -0.570154
C199  C     C_3   0.334286 0.974385 0.520342 0.000338
H87   H     H_    0.361396 0.971836 0.508849 0.182832
H88   H     H_    0.373029 0.957090 0.590092 0.191097
H89   H     H_    0.321165 0.031896 0.513035 0.188415
O112  O     O_3   0.718657 0.055102 0.496878 -0.577134
C200  C     C_3   0.684729 0.050611 0.413463 -0.216919
H90   H     H_    0.623648 0.054019 0.355734 0.239301
H91   H     H_    0.698452 0.997641 0.409803 0.178425
H92   H     H_    0.704902 0.091599 0.405835 0.148651
O113  O     O_3   0.237135 0.422573 0.562735 -0.534547
C201  C     C_3   0.240673 0.382870 0.612899 -0.181229
H93   H     H_    0.275502 0.333842 0.643154 0.145330
H94   H     H_    0.184389 0.368249 0.570687 0.172442
H95   H     H_    0.266872 0.416931 0.669381 0.195438
O114  O     O_3   0.743966 0.551435 0.536410 -0.602020
C202  C     C_3   0.726949 0.556756 0.572755 -0.267447
H96   H     H_    0.709139 0.612074 0.566133 0.141739
H97   H     H_    0.774757 0.539341 0.644769 0.201834
H98   H     H_    0.679895 0.520496 0.533942 0.203867
O115  O     O_3   0.767597 0.435254 0.456688 -0.570162
C203  C     C_3   0.834292 0.474400 0.520370 0.000335
H99   H     H_    0.861409 0.471853 0.508887 0.182822
H100  H     H_    0.873031 0.457107 0.590119 0.191102
H101  H     H_    0.821166 0.531910 0.513058 0.188400
O116  O     O_3   0.218661 0.555100 0.496900 -0.577138
C204  C     C_3   0.184725 0.550598 0.413479 -0.216938
H102  H     H_    0.123644 0.553999 0.355758 0.239306
H103  H     H_    0.198452 0.497628 0.409826 0.178420
H104  H     H_    0.204887 0.591585 0.405836 0.148665
N21   N     N_R   0.599481 0.937076 0.746771 0.223779
O117  O     O_R   0.563880 0.994545 0.725830 -0.323410
O118  O     O_R   0.601945 0.920243 0.700133 -0.301081
N22   N     N_R   0.392790 0.061392 0.244863 0.223200
O119  O     O_R   0.396685 0.993284 0.237321 -0.348847
O120  O     O_R   0.422140 0.084718 0.317241 -0.315654
N23   N     N_R   0.314220 0.905859 0.904920 0.267504
O121  O     O_R   0.294527 0.972600 0.891701 -0.319673
O122  O     O_R   0.325181 0.882790 0.868700 -0.334156
N24   N     N_R   0.653171 0.072030 0.040588 0.241753
O123  O     O_R   0.648453 0.078343 0.086162 -0.309058
O124  O     O_R   0.647779 0.008628 0.014049 -0.284250
N25   N     N_R   0.099472 0.437092 0.746784 0.223770
O125  O     O_R   0.063878 0.494562 0.725858 -0.323419
O126  O     O_R   0.101922 0.420264 0.700130 -0.301053
N26   N     N_R   0.892773 0.561401 0.244863 0.223204
O127  O     O_R   0.896660 0.493291 0.237317 -0.348844
O128  O     O_R   0.922124 0.584728 0.317241 -0.315636
N27   N     N_R   0.814236 0.405871 0.904947 0.267507
O129  O     O_R   0.794558 0.472615 0.891746 -0.319675
O130  O     O_R   0.825186 0.382802 0.868715 -0.334133
N28   N     N_R   0.153190 0.572045 0.040621 0.241747
O131  O     O_R   0.148487 0.578360 0.086212 -0.309044
O132  O     O_R   0.147777 0.508644 0.014063 -0.284239
N29   N     N_R   0.996659 0.628099 0.278932 0.228973
O133  O     O_R   0.019705 0.568214 0.322371 -0.340973
O134  O     O_R   0.044464 0.668322 0.302668 -0.458500
N30   N     N_R   0.996450 0.359672 0.705490 0.227366
O135  O     O_R   0.952289 0.345785 0.699982 -0.390796
O136  O     O_R   0.968086 0.370228 0.631292 -0.367663
N31   N     N_R   0.062836 0.698978 0.957863 0.240041
O137  O     O_R   0.019523 0.643731 0.920127 -0.292963
O138  O     O_R   0.043347 0.760080 0.959061 -0.410555
N32   N     N_R   0.924658 0.293261 0.020740 0.242567
O139  O     O_R   0.951058 0.231360 0.032387 -0.383936
O140  O     O_R   0.961183 0.351216 0.045498 -0.278634
N33   N     N_R   0.496665 0.128101 0.278921 0.228965
O141  O     O_R   0.519710 0.068203 0.322340 -0.341037
O142  O     O_R   0.544470 0.168337 0.302667 -0.458504
N34   N     N_R   0.496453 0.859664 0.705472 0.227367
O143  O     O_R   0.452288 0.845779 0.699959 -0.390811
O144  O     O_R   0.468092 0.870213 0.631276 -0.367632
N35   N     N_R   0.562807 0.198956 0.957810 0.240034
O145  O     O_R   0.519495 0.143706 0.920069 -0.292998
O146  O     O_R   0.543308 0.260055 0.958998 -0.410582
N36   N     N_R   0.424647 0.793252 0.020720 0.242568
O147  O     O_R   0.451050 0.731352 0.032373 -0.383949
O148  O     O_R   0.461171 0.851208 0.045480 -0.278634

loop_
_geom_bond_atom_site_label_1
_geom_bond_atom_site_label_2
_geom_bond_distance
_ccdc_geom_bond_type
C189  H58   1.111444 S    
C198  H84   1.112362 S    
C157  C161  1.397511 A    
C196  H78   1.114468 S    
C4    C147  1.456159 S    
C114  C122  1.431179 A    
C204  H102  1.108662 S    
C105  N29   1.444249 S    
O55   C183  1.411146 S    
C168  C172  1.426846 A    
C16   C95   1.490837 S    
N26   O128  1.300969 A    
C192  H66   1.107419 S    
C28   N8    1.460250 S    
C200  H90   1.108664 S    
O112  C200  1.414778 S    
C171  C175  1.411466 A    
O26   C7    1.275541 A    
C142  C149  1.405940 A    
C32   N12   1.460250 S    
C165  C169  1.431221 A    
N15   O98   1.300544 A    
C78   C82   1.417283 A    
C167  C171  1.431219 A    
N13   O94   1.299481 A    
C120  N27   1.445671 S    
O30   C11   1.289047 A    
C189  H59   1.097156 S    
C78   C94   1.423342 A    
H6    C61   1.081633 S    
C50   N14   1.438847 S    
Zn12  O26   1.944384 S    
C109  N33   1.444245 S    
C138  C145  1.405944 A    
C167  N3    1.443867 S    
N22   O119  1.301530 A    
C21   C38   1.463935 S    
C182  H37   1.112734 S    
O62   C190  1.418627 S    
C71   C79   1.438810 A    
C106  N30   1.436626 S    
C27   C34   1.542081 S    
C122  C130  1.441958 A    
C67   C75   1.438817 A    
C116  C124  1.416444 A    
C53   N17   1.434678 S    
N31   O138  1.301587 A    
C54   C58   1.394053 A    
C107  C119  1.404385 A    
C31   C39   1.549338 S    
O11   C7    1.281862 A    
O34   C15   1.289038 A    
C185  H46   1.111445 S    
N35   O146  1.301587 A    
C133  C137  1.400973 A    
C97   C137  1.401376 A    
C154  H26   1.081323 S    
Zn1   O44   1.948794 S    
C133  C149  1.425562 A    
C102  H22   1.083647 S    
Zn2   O43   1.948794 S    
C128  C136  1.433465 A    
N36   O147  1.300939 A    
O57   C185  1.409598 S    
Zn5   O48   1.948794 S    
O60   C188  1.414300 S    
C17   C178  1.463761 S    
C188  H56   1.112001 S    
C173  C178  1.415986 A    
C202  H97   1.112361 S    
Zn7   O46   1.946925 S    
O16   C12   1.302525 A    
C47   C87   1.412486 A    
C175  C180  1.415989 A    
C35   O55   1.412695 S    
C70   C78   1.426623 A    
Zn16  O4    1.932520 S    
C45   C85   1.417125 A    
C195  H75   1.114375 S    
Zn12  O4    1.931901 S    
Zn1   O13   1.931123 S    
O58   C186  1.418629 S    
C181  H33   1.114486 S    
C26   C28   1.534887 S    
C87   C96   1.406723 A    
C5    C150  1.489579 S    
Zn4   O16   1.925865 S    
C53   C57   1.391534 A    
N14   O96   1.301162 A    
C199  H87   1.108193 S    
N23   O122  1.301304 A    
C196  H80   1.109040 S    
N28   O132  1.301370 A    
C204  H104  1.108608 S    
N16   O100  1.301040 A    
C42   C82   1.416890 A    
C155  H27   1.076304 S    
C192  H68   1.112006 S    
C129  C145  1.425573 A    
C139  C148  1.418433 A    
C190  H61   1.107657 S    
C200  H92   1.108608 S    
C41   H9    1.082563 S    
C10   C89   1.477115 S    
C153  C173  1.411521 A    
C22   C37   1.464064 S    
O64   C192  1.414299 S    
C193  H71   1.109252 S    
C71   O115  1.388328 S    
Zn10  O22   1.944384 S    
C125  C133  1.427662 A    
C183  H40   1.108700 S    
O53   C181  1.411146 S    
O25   C8    1.273197 A    
Zn13  O29   1.945882 S    
C86   C93   1.420618 A    
Zn10  O2    1.931901 S    
C75   C91   1.446461 A    
C164  O67   1.384282 S    
N30   O135  1.301745 A    
C157  H29   1.082769 S    
O29   C12   1.278169 A    
Zn15  O33   1.945882 S    
N12   O91   1.300032 A    
C125  O61   1.394465 S    
O56   C184  1.408634 S    
C26   C34   1.544239 S    
C43   C83   1.412489 A    
O61   C189  1.409583 S    
O5    C1    1.313043 A    
C44   C84   1.415053 A    
C35   C39   1.547266 S    
C98   C106  1.383864 A    
O48   C23   1.285286 A    
N17   O101  1.300759 A    
C100  H20   1.081281 S    
C156  C160  1.393477 A    
C82   C89   1.420616 A    
N9    O86   1.298858 A    
O109  C197  1.410852 S    
O67   C195  1.410073 S    
Zn16  O35   1.949220 S    
N4    O75   1.300940 A    
C31   N11   1.460934 S    
N21   O117  1.301315 A    
C198  H85   1.107300 S    
C132  C144  1.409849 A    
Zn7   O10   1.930142 S    
C141  C150  1.408649 A    
O33   C16   1.278177 A    
N18   O103  1.301546 A    
O9    C5    1.313042 A    
C127  O63   1.385728 S    
C19   C180  1.463761 S    
H3    C60   1.082860 S    
O40   C20   1.263649 A    
C74   C90   1.423349 A    
C195  H77   1.109254 S    
N2    O71   1.300938 A    
C48   C56   1.404327 A    
C121  O57   1.394472 S    
C122  O58   1.392280 S    
C199  H89   1.104844 S    
N23   O121  1.300762 A    
C117  N26   1.430415 S    
N34   O144  1.300159 A    
N10   O87   1.300357 A    
Zn5   O17   1.931123 S    
C137  C146  1.408650 A    
N19   O106  1.300538 A    
C169  C177  1.430499 A    
C155  C175  1.411522 A    
C171  C179  1.430498 A    
C14   C93   1.477117 S    
C101  C141  1.401376 A    
C25   C27   1.534948 S    
C184  H43   1.112731 S    
C119  C127  1.416910 A    
C166  C170  1.426846 A    
C117  C125  1.433229 A    
N6    O80   1.299983 A    
C111  C115  1.404382 A    
N32   O140  1.301519 A    
C29   C35   1.543856 S    
C32   C40   1.550864 S    
Zn8   O3    1.971598 S    
C79   C83   1.415747 A    
C135  C151  1.424040 A    
C80   C84   1.400337 A    
C73   C89   1.429059 A    
C191  H63   1.108015 S    
C47   H15   1.080131 S    
C140  C147  1.418465 A    
O38   C18   1.263652 A    
N24   O123  1.301347 A    
C106  C118  1.402861 A    
C45   H13   1.082561 S    
C80   C96   1.400416 A    
C119  N28   1.435952 S    
C51   N15   1.437157 S    
N33   O142  1.301754 A    
O32   C9    1.277782 A    
N29   O133  1.299445 A    
C162  O65   1.384285 S    
C25   C38   1.548636 S    
C115  N24   1.435957 S    
C103  C143  1.413739 A    
C20   C179  1.451238 S    
O111  C199  1.411702 S    
C56   C60   1.399650 A    
Zn15  O51   1.944254 S    
C124  O60   1.381759 S    
C49   N13   1.434679 S    
Zn11  O28   1.949928 S    
Zn12  O40   1.944649 S    
C110  N34   1.436629 S    
N28   O131  1.301349 A    
C197  H81   1.112784 S    
O8    C4    1.283326 A    
C97   H17   1.082717 S    
N11   O90   1.299996 A    
C153  C157  1.387213 A    
N16   O99   1.301515 A    
C102  C110  1.383859 A    
C18   C177  1.451241 S    
N14   O95   1.301545 A    
C104  C144  1.415185 A    
C174  C177  1.415838 A    
O50   C18   1.267376 A    
O37   C17   1.276829 A    
N35   O145  1.301336 A    
C155  C159  1.387215 A    
N25   O126  1.301184 A    
C127  C135  1.435639 A    
C181  H34   1.108698 S    
C46   C86   1.416887 A    
C187  H53   1.107582 S    
C33   O53   1.412694 S    
Zn2   O14   1.931122 S    
C186  H50   1.101011 S    
C34   O54   1.413246 S    
C52   C64   1.399645 A    
C2    C145  1.488552 S    
C68   C76   1.420078 A    
N13   O93   1.300760 A    
C194  H74   1.109040 S    
C110  C114  1.402859 A    
C62   C70   1.397763 A    
C164  C168  1.412466 A    
C123  O59   1.385724 S    
C189  H57   1.105514 S    
C131  C143  1.412490 A    
O39   C19   1.276827 A    
O36   C13   1.277779 A    
C159  H31   1.082766 S    
C129  C141  1.400978 A    
C121  C129  1.427678 A    
O115  C203  1.411696 S    
C161  C165  1.414855 A    
O13   C9    1.276987 A    
C42   H10   1.078093 S    
C197  H83   1.109552 S    
C99   C139  1.413737 A    
Zn2   O7    1.926433 S    
C72   O116  1.386230 S    
Zn3   O6    1.930142 S    
O18   C14   1.300220 A    
O31   C10   1.267080 A    
C201  H93   1.112651 S    
C154  C174  1.413097 A    
N31   O137  1.301337 A    
C107  N31   1.439139 S    
O6    C2    1.306869 A    
Zn4   O41   1.946925 S    
C43   C51   1.390289 A    
C158  C162  1.403531 A    
C26   C37   1.547372 S    
N8    O83   1.300034 A    
C113  C121  1.433232 A    
N27   O129  1.300760 A    
C191  H65   1.107585 S    
C9    C90   1.455631 S    
N7    O81   1.299353 A    
Zn14  O30   1.945879 S    
Zn15  O3    1.932519 S    
C143  C152  1.418431 A    
N1    O70   1.301840 A    
Zn11  O3    1.931901 S    
O41   C21   1.286559 A    
C109  C113  1.411974 A    
C158  H30   1.082394 S    
C52   N16   1.438348 S    
Zn16  O34   1.945879 S    
N5    O78   1.298861 A    
C193  H70   1.110902 S    
O110  C198  1.409821 S    
N36   O148  1.301518 A    
N19   O105  1.301645 A    
Zn8   O20   1.925865 S    
C188  H55   1.112718 S    
O10   C6    1.306863 A    
C144  C151  1.418469 A    
C43   H11   1.080131 S    
O22   C3    1.275539 A    
C97   C105  1.392603 A    
C44   H12   1.079484 S    
N15   O97   1.301651 A    
C195  H76   1.110914 S    
C100  C108  1.395965 A    
H8    C63   1.076906 S    
C161  O66   1.384771 S    
C199  H88   1.108434 S    
C31   C36   1.542079 S    
C29   N9    1.458431 S    
C172  C180  1.416922 A    
C28   C33   1.543160 S    
Zn8   O9    1.930145 S    
C204  H103  1.108557 S    
C203  H101  1.104844 S    
N26   O127  1.301526 A    
C192  H67   1.112719 S    
C200  H91   1.108560 S    
C74   C86   1.417291 A    
C98   C138  1.402318 A    
C202  H96   1.114446 S    
O7    C3    1.281863 A    
C103  H23   1.081482 S    
C115  C123  1.416911 A    
C194  H72   1.114468 S    
O19   C15   1.284057 A    
C70   O114  1.380802 S    
C113  N22   1.430418 S    
C54   N18   1.438847 S    
C49   C61   1.391547 A    
O65   C193  1.410064 S    
C32   C35   1.543161 S    
C30   C39   1.547373 S    
C186  H48   1.115566 S    
Zn10  O23   1.949925 S    
Zn13  O32   1.949220 S    
O63   C191  1.412562 S    
C169  C173  1.411472 A    
C58   C66   1.397764 A    
C61   C69   1.398145 A    
C159  C163  1.397513 A    
C182  H36   1.109155 S    
C67   O111  1.388326 S    
C15   C96   1.480818 S    
N30   O136  1.300157 A    
C187  H51   1.108014 S    
C182  H38   1.109105 S    
N3    O74   1.301840 A    
Zn15  O36   1.949220 S    
Zn9   O1    1.931901 S    
C6    C149  1.488555 S    
O15   C11   1.284050 A    
O42   C22   1.288447 A    
N12   O92   1.299743 A    
Zn4   O1    1.971598 S    
C118  N25   1.431738 S    
C30   C32   1.534887 S    
C104  H24   1.081281 S    
Zn9   O37   1.944652 S    
C76   C92   1.400407 A    
C25   C33   1.543856 S    
O12   C8    1.283330 A    
C36   C40   1.548766 S    
Zn11  O39   1.944652 S    
N9    O85   1.299908 A    
N1    O69   1.300058 A    
C46   H14   1.078093 S    
C47   C55   1.390284 A    
H1    C58   1.082599 S    
C193  H69   1.114362 S    
C26   N6    1.457983 S    
C23   C40   1.463932 S    
N20   O108  1.301044 A    
C45   C53   1.396661 A    
N4    O76   1.301843 A    
C44   C52   1.404323 A    
Zn5   O3    1.967907 S    
Zn13  O1    1.932519 S    
C36   O56   1.413246 S    
Zn6   O4    1.967908 S    
C57   C65   1.398153 A    
C66   O110  1.380801 S    
C66   C74   1.426620 A    
N18   O104  1.301161 A    
C160  H32   1.082390 S    
C202  H98   1.107302 S    
C190  H60   1.115568 S    
C60   C68   1.395236 A    
O54   C182  1.408633 S    
C25   N5    1.458430 S    
C166  N2    1.444566 S    
N2    O72   1.301843 A    
Zn9   O24   1.949928 S    
C77   C81   1.401557 A    
O28   C5    1.261130 A    
C116  N23   1.445680 S    
C135  C139  1.412491 A    
Zn3   O42   1.946925 S    
Zn6   O18   1.931122 S    
H7    C64   1.082859 S    
N10   O88   1.299984 A    
Zn7   O4    1.971597 S    
O21   C4    1.273201 A    
C77   C93   1.429050 A    
H5    C62   1.082600 S    
C72   C80   1.420087 A    
C1    C146  1.489583 S    
C111  N35   1.439142 S    
C203  H99   1.108185 S    
C165  N1    1.443865 S    
C48   C88   1.415057 A    
Zn6   O47   1.948794 S    
C33   C37   1.547266 S    
O59   C187  1.412560 S    
O114  C202  1.409821 S    
Zn2   O2    1.967908 S    
C184  H42   1.109155 S    
Zn14  O2    1.932520 S    
C108  N32   1.439682 S    
N3    O73   1.300058 A    
C112  C116  1.407041 A    
C64   C72   1.395231 A    
O66   C194  1.411779 S    
C65   C73   1.430391 A    
N11   O89   1.299354 A    
Zn13  O49   1.944254 S    
O44   C21   1.285286 A    
N34   O143  1.301742 A    
C55   N19   1.437155 S    
C185  H47   1.097162 S    
C63   C71   1.407838 A    
C131  C147  1.424046 A    
C168  N4    1.444566 S    
C183  H39   1.114485 S    
C191  H64   1.112550 S    
C156  H28   1.081323 S    
Zn12  O27   1.949925 S    
C55   C59   1.386997 A    
C163  O68   1.384770 S    
N24   O124  1.301369 A    
N7    O82   1.299993 A    
C170  C178  1.416918 A    
C162  C166  1.412466 A    
C83   C92   1.406724 A    
Zn3   O2    1.971597 S    
C153  H25   1.076302 S    
N33   O141  1.299444 A    
C84   C91   1.426865 A    
C27   N7    1.460934 S    
C128  O64   1.381759 S    
C27   C37   1.549339 S    
C99   H19   1.081484 S    
C29   C40   1.548635 S    
O46   C24   1.288447 A    
O47   C24   1.282942 A    
C3    C148  1.458921 S    
C34   C38   1.548764 S    
Zn16  O52   1.944256 S    
C11   C92   1.480820 S    
N17   O102  1.299468 A    
C12   C91   1.490838 S    
C65   O109  1.381865 S    
C187  H52   1.112550 S    
Zn8   O45   1.946925 S    
C160  C164  1.403533 A    
C69   C77   1.430426 A    
O27   C6    1.266552 A    
C124  C132  1.433465 A    
C197  H82   1.114203 S    
C120  C128  1.416442 A    
C51   C63   1.387002 A    
C118  C126  1.431180 A    
C130  C142  1.410261 A    
C123  C131  1.435639 A    
C29   C31   1.534948 S    
C134  C138  1.410261 A    
N21   O118  1.301179 A    
C56   N20   1.438345 S    
C108  C120  1.407039 A    
C198  H86   1.114446 S    
C163  C167  1.414853 A    
O24   C1    1.261131 A    
C41   C81   1.417115 A    
C185  H45   1.105521 S    
C7    C152  1.458920 S    
C134  C150  1.441099 A    
C203  H100  1.108429 S    
C112  N36   1.439686 S    
O116  C204  1.414773 S    
C105  C117  1.411984 A    
N25   O125  1.301314 A    
C13   C94   1.455615 S    
C186  H49   1.107656 S    
O43   C22   1.282945 A    
C196  H79   1.111108 S    
Zn3   O15   1.925864 S    
C194  H73   1.111107 S    
Zn5   O12   1.926435 S    
C24   C39   1.464069 S    
Zn6   O11   1.926433 S    
C102  C142  1.402315 A    
C176  C179  1.415837 A    
C172  C176  1.387806 A    
Zn9   O21   1.944384 S    
Zn14  O50   1.944256 S    
C30   N10   1.457981 S    
O35   C14   1.267089 A    
C76   C88   1.400332 A    
Zn1   O8    1.926435 S    
C85   C94   1.409768 A    
N22   O120  1.300971 A    
C126  O62   1.392282 S    
C75   C87   1.415748 A    
O52   C20   1.267377 A    
C184  H44   1.109104 S    
H4    C59   1.076909 S    
C201  H94   1.114122 S    
C136  C140  1.409850 A    
N6    O79   1.300359 A    
C98   H18   1.083648 S    
N20   O107  1.301518 A    
C154  C158  1.393476 A    
C100  C140  1.415182 A    
C28   C38   1.550864 S    
N32   O139  1.300938 A    
C50   C62   1.394054 A    
N8    O84   1.299743 A    
C103  C111  1.393271 A    
Zn7   O19   1.925864 S    
C136  C152  1.422877 A    
C183  H41   1.109110 S    
C68   O112  1.386227 S    
C101  C109  1.392600 A    
H2    C57   1.081628 S    
C99   C107  1.393275 A    
C81   C90   1.409770 A    
C170  C174  1.387810 A    
C190  H62   1.101013 S    
N27   O130  1.301309 A    
O49   C17   1.258794 A    
Zn14  O31   1.949220 S    
C156  C176  1.413099 A    
C181  H35   1.109111 S    
O51   C19   1.258795 A    
C126  C134  1.441955 A    
C201  H95   1.109527 S    
N29   O134  1.301750 A    
N5    O77   1.299908 A    
C114  N21   1.431737 S    
Zn4   O5    1.930145 S    
O113  C201  1.410824 S    
C41   C49   1.396656 A    
O20   C16   1.302517 A    
C30   C36   1.544236 S    
C59   C67   1.407839 A    
O68   C196  1.411777 S    
C132  C148  1.422878 A    
O23   C2    1.266545 A    
Zn11  O25   1.944384 S    
C8    C151  1.456162 S    
C188  H54   1.107419 S    
Zn10  O38   1.944649 S    
C48   H16   1.079487 S    
O14   C10   1.300232 A    
C79   C95   1.446458 A    
C73   C85   1.401562 A    
Zn1   O1    1.967907 S    
C104  C112  1.395964 A    
C88   C95   1.426864 A    
C42   C50   1.399500 A    
O17   C13   1.276982 A    
C46   C54   1.399501 A    
C101  H21   1.082718 S    
O45   C23   1.286559 A    
C69   O113  1.381907 S    
C130  C146  1.441107 A    
