data_mof_unit_20535.cif
_audit_creation_date              2012-12-10T17:13:15-0500
_audit_creation_method            fapswitch 2.2
_symmetry_space_group_name_H-M    P1
_symmetry_Int_Tables_number       1
_space_group_crystal_system       triclinic
_cell_length_a                    11.673968
_cell_length_b                    13.023301
_cell_length_c                    13.866595
_cell_angle_alpha                 89.13634
_cell_angle_beta                  91.728999
_cell_angle_gamma                 99.746435
_cell_volume                      2076.7077749

loop_
_atom_site_label
_atom_site_type_symbol
_atom_type_description
_atom_site_fract_x
_atom_site_fract_y
_atom_site_fract_z
_atom_type_partial_charge
C1    C     C_R   0.478957 0.299187 0.501881 0.891011
C2    C     C_R   0.520962 0.700802 0.497875 0.886893
C3    C     C_R   0.548170 0.030042 0.477306 -0.131657
C4    C     C_R   0.451151 0.969855 0.521465 -0.126038
C5    C     C_R   0.032928 0.401483 0.591411 0.413056
C6    C     C_R   0.967576 0.600419 0.411363 0.371717
C7    C     C_R   0.154143 0.410529 0.580278 -0.123587
C8    C     C_R   0.846046 0.588711 0.419058 -0.114604
C9    C     C_R   0.152799 0.542973 0.461622 0.833090
C10   C     C_R   0.847313 0.457788 0.539396 0.845322
C11   C     C_R   0.030527 0.536400 0.467908 -0.283932
C12   C     C_R   0.969735 0.464192 0.533390 -0.278910
C13   C     C_R   0.519215 0.501428 0.681983 0.824258
C14   C     C_R   0.480812 0.499202 0.318038 0.821572
C15   C     C_1   0.468749 0.501831 0.215533 -0.138537
C16   C     C_1   0.531571 0.504279 0.784520 -0.144033
C17   C     C_2   0.451409 0.510138 0.024787 0.370808
C18   C     C_2   0.549097 0.511395 0.975181 0.372957
C19   C     C_1   0.540433 0.507329 0.870943 -0.041616
C20   C     C_1   0.459884 0.505220 0.129137 -0.045332
C21   C     C_R   0.532086 0.813980 0.493164 -0.284933
C22   C     C_R   0.467511 0.185964 0.506069 -0.287299
C23   C     C_R   0.363101 0.018299 0.557029 -0.204014
C24   C     C_R   0.636502 0.981634 0.442139 -0.170110
C25   C     C_R   0.370832 0.125582 0.549354 0.510449
C26   C     C_R   0.628820 0.874347 0.449955 0.499538
C27   C     C_R   0.555578 0.137720 0.469324 0.565160
C28   C     C_R   0.443673 0.862185 0.529396 0.545900
Cu1   Cu    Cu3+1 0.615220 0.507680 0.492970 1.052968
Cu2   Cu    Cu3+1 0.384780 0.492320 0.507030 1.047096
H1    H     H_    0.288265 0.973496 0.591329 0.220071
H2    H     H_    0.711496 0.026451 0.408065 0.226676
H3    H     H_    0.797531 0.635858 0.374168 0.204733
H4    H     H_    0.202871 0.360893 0.621839 0.202728
N1    N     N_R   0.788370 0.519230 0.482390 -0.263292
N2    N     N_R   0.211630 0.480770 0.517610 -0.258407
O1    O     O_R   0.581500 0.354430 0.495010 -0.484418
O2    O     O_R   0.418500 0.645570 0.504990 -0.490461
O3    O     O_R   0.386890 0.341450 0.506880 -0.555556
O4    O     O_R   0.613110 0.658550 0.493120 -0.560113
O5    O     O_R   0.611060 0.507430 0.631070 -0.553060
O6    O     O_R   0.388940 0.492570 0.368930 -0.551412
O7    O     O_R   0.416450 0.494450 0.642940 -0.580711
O8    O     O_R   0.583550 0.505550 0.357060 -0.573451
O9    O     O_3   0.654233 0.508298 0.024970 -0.618887
C29   C     C_3   0.748406 0.575254 0.982800 0.068723
H5    H     H_    0.802903 0.615719 0.042465 0.171968
H6    H     H_    0.721324 0.638212 0.936344 0.126241
C30   C     C_3   0.823399 0.512029 0.926986 -0.334500
H7    H     H_    0.859113 0.457390 0.977367 0.226882
H8    H     H_    0.769686 0.465500 0.870329 0.238128
C31   C     C_3   0.923834 0.583228 0.879358 -0.911581
H9    H     H_    0.889833 0.634688 0.824883 0.266854
H10   H     H_    0.979378 0.535641 0.842626 0.247833
H11   H     H_    0.978162 0.631958 0.934217 0.249131
O10   O     O_3   0.345028 0.507168 0.974726 -0.631649
C32   C     C_3   0.266770 0.558597 0.024151 0.058646
H12   H     H_    0.217588 0.597857 0.969118 0.167956
H13   H     H_    0.311368 0.621891 0.072218 0.138006
C33   C     C_3   0.179156 0.479880 0.079380 -0.380065
H14   H     H_    0.122837 0.429187 0.027040 0.221162
H15   H     H_    0.225357 0.429551 0.126469 0.235952
C34   C     C_3   0.102896 0.534678 0.141777 -0.807546
H16   H     H_    0.157222 0.583575 0.196582 0.301942
H17   H     H_    0.039500 0.475750 0.179754 0.264520
H18   H     H_    0.054170 0.584588 0.096450 0.241562
F1    F     F_    0.351065 0.804820 0.573441 -0.655791
F2    F     F_    0.647872 0.195100 0.424899 -0.636317
F3    F     F_    0.714623 0.829731 0.412797 -0.680052
F4    F     F_    0.285151 0.170165 0.586757 -0.669114
F5    F     F_    0.786479 0.390637 0.602505 -0.608046
F6    F     F_    0.213671 0.611013 0.399266 -0.633957
O11   O     O_3   0.974604 0.325462 0.651809 -0.529663
C35   C     C_3   0.017598 0.337591 0.748407 0.065934
H19   H     H_    0.943664 0.346975 0.794223 0.181357
H20   H     H_    0.085881 0.407678 0.760873 0.111660
C36   C     C_3   0.063810 0.239356 0.781600 -0.319383
H21   H     H_    0.992518 0.171109 0.776390 0.240284
H22   H     H_    0.134364 0.225534 0.734004 0.258679
C37   C     C_3   0.111047 0.248992 0.885458 -0.903988
H23   H     H_    0.184549 0.315196 0.891712 0.283010
H24   H     H_    0.142960 0.176302 0.907564 0.268384
H25   H     H_    0.041468 0.261319 0.934764 0.249350
O12   O     O_3   0.023335 0.670623 0.345151 -0.571955
C38   C     C_3   0.033503 0.772249 0.382337 0.111323
H26   H     H_    0.069290 0.776144 0.458067 0.165906
H27   H     H_    0.947026 0.797591 0.380231 0.178764
C39   C     C_3   0.116623 0.846967 0.320274 -0.316748
H28   H     H_    0.203897 0.823437 0.323679 0.256653
H29   H     H_    0.084226 0.842714 0.243977 0.219400
C40   C     C_3   0.127610 0.959020 0.354805 -0.864162
H30   H     H_    0.042199 0.985676 0.348035 0.270998
H31   H     H_    0.191035 0.010849 0.310160 0.254975
H32   H     H_    0.158682 0.964903 0.431278 0.270703

loop_
_geom_bond_atom_site_label_1
_geom_bond_atom_site_label_2
_ccdc_geom_bond_type
C21   C26   A    
C34   H17   S    
C7    N2    A    
C9    F6    S    
C13   O5    A    
C36   H21   S    
C29   C30   S    
C35   H20   S    
C33   C34   S    
C24   C26   A    
C38   H26   S    
C38   C39   S    
C17   C20   S    
O10   C32   S    
Cu2   O2    S    
C33   H15   S    
C18   C19   S    
O11   C35   S    
C27   F2    S    
C30   H8    S    
C35   C36   S    
C9    N2    A    
C10   N1    A    
C40   H30   S    
C31   H11   S    
C1    O1    A    
C14   O6    A    
C10   F5    S    
C36   H22   S    
C34   H18   S    
C1    C22   S    
C3    C24   A    
C37   H25   S    
C4    C28   A    
C31   H10   S    
C38   H27   S    
C15   C20   T    
C29   H6    S    
C6    O12   S    
C35   H19   S    
C28   F1    S    
O12   C38   S    
C5    C12   A    
C37   H24   S    
C6    C11   A    
C5    C7    A    
C4    C23   A    
C32   C33   S    
C6    C8    A    
O9    C29   S    
C22   C25   A    
C33   H14   S    
C8    N1    A    
C23   H1    S    
C24   H2    S    
Cu1   Cu2   S    
C40   H31   S    
C2    O2    A    
C39   C40   S    
C30   C31   S    
C2    C21   S    
C17   C18   D    
C9    C11   A    
C17   O10   S    
C10   C12   A    
C21   C28   A    
C39   H29   S    
C22   C27   A    
Cu1   O8    S    
C7    H4    S    
Cu2   O7    S    
C3    C4    A    
C18   O9    S    
C13   O7    A    
C31   H9    S    
C14   O8    A    
C36   C37   S    
C29   H5    S    
Cu1   O5    S    
C37   H23   S    
C11   C12   A    
Cu1   N1    S    
Cu2   N2    S    
C3    C27   A    
C40   H32   S    
C32   H12   S    
C16   C19   T    
Cu1   O4    S    
Cu2   O3    S    
C8    H3    S    
C23   C25   A    
C5    O11   S    
C32   H13   S    
C1    O3    A    
C34   H16   S    
C2    O4    A    
C39   H28   S    
C30   H7    S    
C13   C16   S    
Cu1   O1    S    
C26   F3    S    
C14   C15   S    
Cu2   O6    S    
C25   F4    S    
