data_mof_unit_53745.cif
_audit_creation_date              2012-12-10T18:26:21-0500
_audit_creation_method            fapswitch 2.2
_symmetry_space_group_name_H-M    P1
_symmetry_Int_Tables_number       1
_space_group_crystal_system       triclinic
_cell_length_a                    15.015695
_cell_length_b                    13.986801
_cell_length_c                    23.438994
_cell_angle_alpha                 90.004695
_cell_angle_beta                  90.017883
_cell_angle_gamma                 89.905196
_cell_volume                      4922.68657047

loop_
_atom_site_label
_atom_site_type_symbol
_atom_type_description
_atom_site_fract_x
_atom_site_fract_y
_atom_site_fract_z
_atom_type_partial_charge
C1    C     C_R   0.326467 0.500037 0.500178 0.902139
C2    C     C_R   0.673533 0.499961 0.499813 0.902218
C3    C     C_R   0.508200 0.585404 0.237908 -0.123436
C4    C     C_R   0.492432 0.585509 0.762110 -0.124328
C5    C     C_R   0.508844 0.585808 0.297006 -0.175936
C6    C     C_R   0.491885 0.585934 0.703012 -0.176347
C7    C     C_R   0.499709 0.499788 0.327006 -0.101066
C8    C     C_R   0.500193 0.499788 0.672999 -0.100004
C9    C     C_R   0.490022 0.413408 0.297253 -0.287421
C10   C     C_R   0.508933 0.413259 0.702748 -0.287066
C11   C     C_R   0.489621 0.412225 0.237821 0.420072
C12   C     C_R   0.509206 0.412057 0.762180 0.420966
C13   C     C_R   0.498299 0.499410 0.208258 0.167892
C14   C     C_R   0.501394 0.499363 0.791751 0.168152
C15   C     C_R   0.814697 0.586536 0.493560 -0.146444
C16   C     C_R   0.185304 0.413442 0.506347 -0.145581
C17   C     C_R   0.769354 0.500076 0.499477 -0.102304
C18   C     C_R   0.230646 0.499912 0.500472 -0.102811
C19   C     C_R   0.815186 0.413985 0.505186 -0.183985
C20   C     C_R   0.184812 0.585998 0.494747 -0.185057
C21   C     C_R   0.907150 0.413560 0.505389 0.062445
C22   C     C_R   0.092849 0.586414 0.494502 0.062205
C23   C     C_R   0.499957 0.499977 0.389213 0.913640
C24   C     C_R   0.500030 0.499981 0.610789 0.913577
C25   C     C_R   0.953646 0.500589 0.499724 0.023069
C26   C     C_R   0.046354 0.499381 0.500151 0.023153
C27   C     C_R   0.907278 0.588559 0.493654 -0.022285
C28   C     C_R   0.092723 0.411412 0.506216 -0.022294
C29   C     C_R   0.952594 0.326969 0.511359 -0.257219
C30   C     C_R   0.047406 0.673000 0.488505 -0.258886
C31   C     C_R   0.045232 0.324511 0.511881 0.457121
C32   C     C_R   0.954769 0.675454 0.487959 0.457202
C33   C     C_R   0.566303 0.797942 0.472290 -0.013888
C34   C     C_R   0.433712 0.202061 0.527725 -0.007825
C35   C     C_R   0.433765 0.798192 0.527761 -0.042505
C36   C     C_R   0.566222 0.201811 0.472225 -0.036647
C37   C     C_R   0.432049 0.898897 0.528333 0.012031
C38   C     C_R   0.567944 0.101109 0.471660 0.012161
C39   C     C_R   0.568014 0.898636 0.471717 0.006322
C40   C     C_R   0.431996 0.101370 0.528293 0.006413
C41   C     C_R   0.500016 0.949372 0.500012 0.089358
C42   C     C_R   0.499985 0.050634 0.499989 0.086394
C43   C     C_R   0.364355 0.950055 0.556392 -0.175338
C44   C     C_R   0.635639 0.049953 0.443602 -0.164286
C45   C     C_R   0.635688 0.949535 0.443644 -0.128612
C46   C     C_R   0.364323 0.050473 0.556366 -0.117347
C47   C     C_R   0.580542 0.507704 0.880450 0.637145
C48   C     C_R   0.419221 0.508854 0.119561 0.637201
C49   C     C_R   0.421832 0.503027 0.880079 0.663528
C50   C     C_R   0.577877 0.501957 0.119930 0.663544
C51   C     C_R   0.418908 0.513104 0.939622 -0.160401
C52   C     C_R   0.580888 0.512001 0.060389 -0.160397
C53   C     C_R   0.500404 0.508676 0.970008 -0.080445
C54   C     C_R   0.499361 0.508690 0.030003 -0.080323
C55   C     C_R   0.582867 0.503990 0.940431 -0.171601
C56   C     C_R   0.416864 0.505144 0.059581 -0.171643
C57   C     C_R   0.337445 0.522494 0.969592 0.344509
C58   C     C_R   0.662428 0.520288 0.030423 0.343868
C59   C     C_R   0.335715 0.502624 0.028392 0.239670
C60   C     C_R   0.663991 0.500387 0.971622 0.239854
H1    H     H_    0.617756 0.757545 0.450648 0.152772
H2    H     H_    0.382269 0.242460 0.549375 0.156873
H3    H     H_    0.382357 0.757969 0.549430 0.137460
H4    H     H_    0.617619 0.242036 0.450548 0.142203
H5    H     H_    0.311476 0.912438 0.578342 0.163449
H6    H     H_    0.688511 0.087571 0.421645 0.166856
H7    H     H_    0.688577 0.911731 0.421712 0.196666
H8    H     H_    0.311443 0.088279 0.578307 0.199005
H9    H     H_    0.515313 0.652063 0.214851 0.178682
H10   H     H_    0.485989 0.652269 0.785175 0.178433
H11   H     H_    0.516640 0.653292 0.319106 0.179840
H12   H     H_    0.484842 0.653542 0.680921 0.180057
H13   H     H_    0.482094 0.346799 0.320261 0.199297
H14   H     H_    0.516189 0.346531 0.679737 0.197383
H15   H     H_    0.776852 0.651730 0.488825 0.219574
H16   H     H_    0.223148 0.348250 0.511090 0.219495
H17   H     H_    0.779340 0.347137 0.509790 0.162724
H18   H     H_    0.220658 0.652851 0.490167 0.163312
H19   H     H_    0.915322 0.261113 0.515676 0.209992
H20   H     H_    0.084678 0.738855 0.484187 0.210144
N1    N     N_R   0.501398 0.502241 0.852429 -0.359178
N2    N     N_R   0.498310 0.502294 0.147581 -0.359008
N3    N     N_R   0.500000 0.750030 0.500000 -0.112349
N4    N     N_R   0.500000 0.249970 0.500000 -0.115374
O1    O     O_R   0.367850 0.580280 0.500010 -0.631071
O2    O     O_R   0.632150 0.419720 0.499990 -0.631401
O3    O     O_R   0.632150 0.580280 0.499990 -0.625358
O4    O     O_R   0.367850 0.419720 0.500010 -0.625836
O5    O     O_R   0.499970 0.580290 0.416160 -0.622540
O6    O     O_R   0.500030 0.419710 0.583840 -0.619669
O7    O     O_R   0.500030 0.580290 0.583840 -0.618263
O8    O     O_R   0.499970 0.419710 0.416160 -0.615461
O9    O     O_2   0.655541 0.520201 0.849829 -0.440867
O10   O     O_2   0.344338 0.522407 0.150181 -0.441352
O11   O     O_2   0.346644 0.489582 0.849690 -0.442328
O12   O     O_2   0.652941 0.487448 0.150313 -0.443078
Zn1   Zn    Zn3+2 0.500000 0.607200 0.500000 0.975287
Zn2   Zn    Zn3+2 0.500000 0.392800 0.500000 0.978253
S1    S     S_3+6 0.243097 0.578604 0.937223 0.155234
O13   O     O_2   0.186949 0.504868 0.907553 -0.155519
O14   O     O_2   0.187650 0.628997 0.981356 -0.191387
O15   O     O_3   0.277712 0.660051 0.889301 -0.525730
H21   H     H_    0.222630 0.683273 0.870575 0.402602
S2    S     S_3+6 0.757242 0.575141 0.062803 0.155840
O16   O     O_2   0.812766 0.500661 0.092462 -0.156108
O17   O     O_2   0.813111 0.624802 0.018678 -0.190755
O18   O     O_3   0.723313 0.657033 0.110738 -0.524326
H22   H     H_    0.778583 0.679492 0.129485 0.403935
S3    S     S_3+6 0.098332 0.211745 0.519823 0.019765
O19   O     O_2   0.156857 0.193249 0.468964 -0.295709
O20   O     O_2   0.154525 0.212825 0.572910 -0.313907
O21   O     O_3   0.022681 0.123580 0.525013 -0.534790
H23   H     H_    0.058171 0.064274 0.529439 0.403808
S4    S     S_3+6 0.901671 0.788206 0.479936 0.018270
O22   O     O_2   0.845425 0.786992 0.426874 -0.320704
O23   O     O_2   0.843201 0.806842 0.530802 -0.293498
O24   O     O_3   0.977324 0.876351 0.474631 -0.535081
H24   H     H_    0.941837 0.935616 0.470015 0.404008
S5    S     S_3+6 0.235375 0.456713 0.058950 0.186173
O25   O     O_2   0.186867 0.535410 0.089690 -0.123980
O26   O     O_2   0.175167 0.416088 0.013873 -0.179267
O27   O     O_3   0.259120 0.368913 0.105551 -0.424817
H25   H     H_    0.294303 0.321848 0.083383 0.376760
S6    S     S_3+6 0.763948 0.453156 0.941066 0.185959
O28   O     O_2   0.813098 0.531204 0.910319 -0.123479
O29   O     O_2   0.823823 0.411768 0.986141 -0.179947
O30   O     O_3   0.739482 0.365649 0.894471 -0.425448
H26   H     H_    0.703972 0.319021 0.916655 0.376701
S7    S     S_3+6 0.475084 0.301259 0.202651 0.084971
O31   O     O_2   0.516486 0.301920 0.144320 -0.239198
O32   O     O_2   0.516792 0.222450 0.237188 -0.259466
O33   O     O_3   0.365550 0.279525 0.196129 -0.462471
H27   H     H_    0.342279 0.280275 0.235666 0.366059
S8    S     S_3+6 0.522508 0.300874 0.797350 0.085092
O34   O     O_2   0.480671 0.302085 0.855553 -0.237876
O35   O     O_2   0.480375 0.222651 0.762662 -0.257796
O36   O     O_3   0.631795 0.277644 0.804211 -0.464348
H28   H     H_    0.655404 0.278270 0.764756 0.363684

loop_
_geom_bond_atom_site_label_1
_geom_bond_atom_site_label_2
_ccdc_geom_bond_type
C16   C28   A    
C15   H15   S    
C10   H14   S    
C41   C42   A    
C44   H6    S    
S8    O36   S    
C4    H10   S    
S4    O22   D    
O8    Zn2   S    
C39   C41   A    
C53   C54   A    
C6    H12   S    
C1    C18   S    
C33   C39   A    
C48   O10   S    
C37   C41   A    
C34   C40   A    
C47   C55   A    
C3    H9    S    
C38   C42   A    
S3    O20   D    
C57   C59   A    
C58   C60   A    
C57   S1    S    
C34   H2    S    
C48   C56   A    
C49   N1    A    
C19   H17   S    
S2    O16   D    
C17   C19   A    
O33   H27   S    
C49   C51   A    
C45   H7    S    
C50   C52   A    
O18   H22   S    
C23   O5    A    
C51   C57   A    
C3    C13   A    
C39   C45   A    
S7    O33   S    
C30   H20   S    
C1    O4    A    
S5    O26   D    
C12   S8    S    
C55   C60   A    
C2    C17   S    
C1    O1    A    
C34   N4    A    
C29   C31   A    
C11   S7    S    
S2    O17   D    
O21   H23   S    
C52   C54   A    
C38   C44   A    
C53   C55   A    
C47   O9    S    
C52   C58   A    
C54   C56   A    
C4    C6    A    
S3    O21   S    
C5    C7    A    
C35   N3    A    
C6    C8    A    
C25   C26   A    
C21   C29   A    
C13   N2    S    
O7    Zn1   S    
O5    Zn1   S    
S4    O23   D    
C51   C53   A    
C37   C43   A    
C40   C46   A    
C46   H8    S    
C33   N3    A    
C15   C27   A    
S1    O13   D    
C29   H19   S    
C43   H5    S    
C31   S3    S    
C2    O3    A    
C49   O11   S    
C9    C11   A    
C10   C12   A    
S6    O30   S    
C16   C18   A    
S1    O14   D    
C12   C14   A    
N3    Zn1   S    
C58   S2    S    
O30   H26   S    
C24   O7    A    
C44   C45   A    
C50   N2    A    
S6    O29   D    
S7    O31   D    
S5    O27   S    
C35   C37   A    
C15   C17   A    
C21   C25   A    
C59   S5    S    
C22   C30   A    
C19   C21   A    
C27   C32   A    
C16   H16   S    
C9    H13   S    
C28   C31   A    
C20   C22   A    
C3    C5    A    
C24   O6    A    
S8    O35   D    
S5    O25   D    
C60   S6    S    
S8    O34   D    
C25   C27   A    
O36   H28   S    
C26   C28   A    
C56   C59   A    
C20   H18   S    
N4    Zn2   S    
C36   C38   A    
C5    H11   S    
C36   H4    S    
O24   H24   S    
C30   C32   A    
C11   C13   A    
C50   O12   S    
C36   N4    A    
C33   H1    S    
C7    C23   S    
C40   C42   A    
C8    C24   S    
C48   N2    A    
C2    O2    A    
C18   C20   A    
C47   N1    A    
C4    C14   A    
O15   H21   S    
O2    Zn2   S    
C43   C46   A    
S4    O24   S    
O1    Zn1   S    
C7    C9    A    
S7    O32   D    
S1    O15   S    
C8    C10   A    
C22   C26   A    
C23   O8    A    
C35   H3    S    
C14   N1    S    
C32   S4    S    
O27   H25   S    
S3    O19   D    
O6    Zn2   S    
S2    O18   S    
O4    Zn2   S    
S6    O28   D    
O3    Zn1   S    
