data_mof_unit_12576.cif
_audit_creation_date              2012-12-11T14:29:36-0500
_audit_creation_method            fapswitch 2.2
_symmetry_space_group_name_H-M    P1
_symmetry_Int_Tables_number       1
_space_group_crystal_system       triclinic
_cell_length_a                    6.939105
_cell_length_b                    14.724398
_cell_length_c                    16.242783
_cell_angle_alpha                 90.487286
_cell_angle_beta                  89.770171
_cell_angle_gamma                 89.817844
_cell_volume                      1659.51050668

loop_
_atom_site_label
_atom_site_type_symbol
_atom_type_description
_atom_site_fract_x
_atom_site_fract_y
_atom_site_fract_z
_atom_type_partial_charge
O1    O     O_R   0.494400 0.416610 0.413880 -0.538449
O2    O     O_R   0.823920 0.406790 0.585520 -0.539288
O3    O     O_R   0.994250 0.583390 0.586120 -0.535893
C1    C     C_R   0.654628 0.385125 0.613590 0.749409
O4    O     O_R   0.824110 0.405730 0.414490 -0.545709
O5    O     O_R   0.994440 0.582310 0.413870 -0.542820
C2    C     C_R   0.656518 0.385351 0.384698 0.733657
O6    O     O_R   0.494210 0.417690 0.586130 -0.545193
O7    O     O_3   0.660810 0.557940 0.500000 -0.369283
V1    V     V_3+5 0.935650 0.489250 0.500000 1.398028
O8    O     O_R   0.324160 0.593210 0.414480 -0.543999
C3    C     C_R   0.155522 0.614811 0.386207 0.733086
O9    O     O_R   0.323970 0.594270 0.585510 -0.538009
C4    C     C_R   0.154762 0.616119 0.613903 0.697711
V2    V     V_3+5 0.435660 0.510750 0.500000 1.406478
O10   O     O_3   0.160630 0.442060 0.500000 -0.374533
H1    H     H_    0.837413 0.895016 0.519926 0.113979
C5    C     C_R   0.307883 0.577276 0.775632 -0.141606
C6    C     C_R   0.382146 0.556146 0.852699 -0.123622
C7    C     C_R   0.370326 0.618856 0.916896 -0.119350
C8    C     C_R   0.284316 0.703227 0.904516 -0.131657
C9    C     C_R   0.209765 0.727261 0.826618 0.069441
C10   C     C_R   0.221660 0.662867 0.760737 0.070009
C11   C     C_R   0.120549 0.812920 0.814304 -0.185509
C12   C     C_R   0.042991 0.834002 0.735977 0.069536
C13   C     C_R   0.054802 0.769593 0.670101 0.068976
C14   C     C_R   0.144104 0.683941 0.682400 -0.186280
C15   C     C_R   0.956799 0.919609 0.721097 -0.141587
C16   C     C_R   0.882383 0.940723 0.644059 -0.125496
C17   C     C_R   0.894001 0.877976 0.579879 -0.121537
C18   C     C_R   0.980054 0.793605 0.592235 -0.131645
H2    H     H_    0.317613 0.525292 0.728374 0.110129
H3    H     H_    0.447817 0.490399 0.862805 0.116162
H4    H     H_    0.426748 0.601790 0.976872 0.113076
H5    H     H_    0.275566 0.748742 0.957003 0.106831
H6    H     H_    0.947192 0.971618 0.768343 0.110530
H7    H     H_    0.816746 0.006484 0.633972 0.119093
H8    H     H_    0.988666 0.748074 0.539753 0.108724
C19   C     C_2   0.985597 0.708875 0.282430 -0.135649
C20   C     C_2   0.150425 0.682379 0.319207 -0.312497
H9    H     H_    0.849801 0.680392 0.303167 0.135482
H10   H     H_    0.287879 0.710162 0.300506 0.128436
C21   C     C_2   0.973096 0.776396 0.214487 -0.133894
C22   C     C_2   0.126215 0.814318 0.176971 -0.311578
H11   H     H_    0.829093 0.794896 0.194578 0.134195
H12   H     H_    0.271346 0.796390 0.195025 0.128828
C23   C     C_2   0.779475 0.207757 0.781098 -0.138882
C24   C     C_2   0.614282 0.179595 0.816613 -0.311880
H13   H     H_    0.915598 0.179605 0.801825 0.135235
H14   H     H_    0.476230 0.206122 0.797290 0.127639
C25   C     C_2   0.791396 0.276176 0.714059 -0.134145
C26   C     C_2   0.638146 0.317733 0.680112 -0.314861
H15   H     H_    0.935011 0.292472 0.691959 0.134998
H16   H     H_    0.493277 0.302801 0.700734 0.126989
C27   C     C_2   0.778398 0.218322 0.205319 -0.124726
C28   C     C_2   0.612824 0.187652 0.172588 -0.362092
H17   H     H_    0.912443 0.186127 0.186440 0.150073
H18   H     H_    0.477157 0.220114 0.188680 0.134982
C29   C     C_2   0.790978 0.298353 0.262560 0.159601
C30   C     C_2   0.647981 0.315217 0.318531 -0.366589
H19   H     H_    0.518684 0.273954 0.317754 0.123907
O11   O     O_R   0.770210 0.079270 0.910680 -0.541487
O12   O     O_R   0.440150 0.091160 0.082270 -0.545157
O13   O     O_R   0.269970 0.914530 0.082860 -0.544357
C31   C     C_R   0.608261 0.114197 0.109829 0.756710
O14   O     O_R   0.440480 0.090100 0.911240 -0.545018
O15   O     O_R   0.270310 0.913460 0.910610 -0.536798
C32   C     C_R   0.609222 0.111733 0.883105 0.745717
O16   O     O_R   0.769870 0.080340 0.082930 -0.538956
O17   O     O_3   0.603660 0.938980 0.996790 -0.369959
V3    V     V_3+5 0.328750 0.007610 0.996740 1.401839
O18   O     O_R   0.940600 0.902510 0.911180 -0.538704
C33   C     C_R   0.109836 0.880719 0.882800 0.695028
O19   O     O_R   0.940270 0.903570 0.082200 -0.540355
C34   C     C_R   0.109490 0.881806 0.110301 0.735912
V4    V     V_3+5 0.828770 0.986010 0.996670 1.413974
O20   O     O_3   0.103730 0.054750 0.996710 -0.373960
C35   C     C_3   0.970852 0.357864 0.259356 -0.295474
C36   C     C_3   0.080900 0.354082 0.177512 -0.799710
H20   H     H_    0.154323 0.287623 0.169179 0.216257
H21   H     H_    0.981569 0.366298 0.125263 0.237885
H22   H     H_    0.193442 0.407559 0.177266 0.219054
H23   H     H_    0.928043 0.430096 0.268511 0.176958
H24   H     H_    0.070236 0.338314 0.309723 0.183643

loop_
_geom_bond_atom_site_label_1
_geom_bond_atom_site_label_2
_ccdc_geom_bond_type
O14   C32   A    
C27   C28   D    
O12   C31   A    
C27   C29   S    
C6    C7    A    
O18   V4    S    
C19   H9    S    
C12   C15   A    
C13   C14   A    
O19   V4    S    
C1    C26   S    
C15   C16   A    
O5    C3    A    
C17   C18   A    
C11   C33   S    
C28   C31   S    
O16   V4    S    
C5    C6    A    
O13   V3    S    
O8    V2    S    
C35   H23   S    
C23   C24   D    
C22   H12   S    
C11   C12   A    
O17   V3    S    
O15   C33   A    
C10   C14   A    
C4    C14   S    
O7    V1    S    
C1    O6    A    
C7    H4    S    
C20   H10   S    
C29   C30   D    
O9    C4    A    
H1    C17   S    
O11   V4    S    
C29   C35   S    
C26   H16   S    
O19   C34   A    
C5    C10   A    
V4    O20   S    
C23   H13   S    
C6    H3    S    
C19   C20   D    
C36   H21   S    
C35   C36   S    
C19   C21   S    
C12   C13   A    
C25   C26   D    
C30   H19   S    
C25   H15   S    
C3    C20   S    
C22   C34   S    
O2    C1    A    
C21   C22   D    
C16   C17   A    
O14   V3    S    
C24   C32   S    
C21   H11   S    
O3    C4    A    
O1    V2    S    
O12   V3    S    
O6    V2    S    
C27   H17   S    
O17   V4    S    
C9    C11   A    
C5    H2    S    
O2    V1    S    
C2    C30   S    
V3    O20   S    
O4    C2    A    
O1    C2    A    
O18   C33   A    
O5    V1    S    
C36   H22   S    
C23   C25   S    
O8    C3    A    
C8    H5    S    
C18   H8    S    
O11   C32   A    
O9    V2    S    
O7    V2    S    
O4    V1    S    
O3    V1    S    
V1    O10   S    
C31   O16   A    
C24   H14   S    
O13   C34   A    
C28   H18   S    
O15   V3    S    
C36   H20   S    
C35   H24   S    
C13   C18   A    
C7    C8    A    
C15   H6    S    
C16   H7    S    
C9    C10   A    
C8    C9    A    
V2    O10   S    
