data_mof_unit_64262.cif
_audit_creation_date              2012-12-11T16:15:03-0500
_audit_creation_method            fapswitch 2.2
_symmetry_space_group_name_H-M    P1
_symmetry_Int_Tables_number       1
_space_group_crystal_system       triclinic
_cell_length_a                    7.220827
_cell_length_b                    23.363818
_cell_length_c                    25.91878
_cell_angle_alpha                 90.0
_cell_angle_beta                  89.99995
_cell_angle_gamma                 89.999972
_cell_volume                      4372.65597532

loop_
_atom_site_label
_atom_site_type_symbol
_atom_type_description
_atom_site_fract_x
_atom_site_fract_y
_atom_site_fract_z
_atom_type_partial_charge
O1    O     O_R   0.694650 0.802620 0.195790 -0.549604
O2    O     O_R   0.305350 0.197380 0.804210 -0.546858
O3    O     O_R   0.305350 0.197380 0.695790 -0.549604
O4    O     O_R   0.694650 0.802620 0.304210 -0.546858
O5    O     O_R   0.194650 0.697380 0.304210 -0.549604
O6    O     O_R   0.805350 0.302620 0.695790 -0.546858
O7    O     O_R   0.805350 0.302620 0.804210 -0.549604
O8    O     O_R   0.194650 0.697380 0.195790 -0.546858
O9    O     O_R   0.364900 0.809540 0.303840 -0.513349
O10   O     O_R   0.635100 0.190460 0.696160 -0.512522
O11   O     O_R   0.635100 0.190460 0.803840 -0.513349
O12   O     O_R   0.364900 0.809540 0.196160 -0.512522
O13   O     O_R   0.864900 0.690460 0.196160 -0.513348
O14   O     O_R   0.135100 0.309540 0.803840 -0.512522
O15   O     O_R   0.135100 0.309540 0.696160 -0.513348
O16   O     O_R   0.864900 0.690460 0.303840 -0.512522
C1    C     C_R   0.532535 0.822317 0.321697 0.722521
C2    C     C_R   0.466902 0.176554 0.679215 0.717782
C3    C     C_R   0.467465 0.177683 0.821697 0.722520
C4    C     C_R   0.533098 0.823446 0.179214 0.717781
C5    C     C_R   0.032535 0.677683 0.178303 0.722522
C6    C     C_R   0.966902 0.323446 0.820786 0.717780
C7    C     C_R   0.967465 0.322317 0.678303 0.722523
C8    C     C_R   0.033098 0.676554 0.320786 0.717780
H1    H     H_    0.816906 0.518696 0.514313 0.170651
H2    H     H_    0.209589 0.481429 0.484190 0.164437
H3    H     H_    0.183094 0.481304 0.014313 0.170652
H4    H     H_    0.790411 0.518571 0.984190 0.164436
H5    H     H_    0.316906 0.981305 0.985687 0.170651
H6    H     H_    0.709589 0.018572 0.015811 0.164437
H7    H     H_    0.683093 0.018695 0.485687 0.170649
H8    H     H_    0.290411 0.981428 0.515811 0.164437
H9    H     H_    0.251321 0.444864 0.560966 0.197276
H10   H     H_    0.772075 0.539119 0.430148 0.182055
H11   H     H_    0.748680 0.555135 0.060966 0.197276
H12   H     H_    0.227925 0.460881 0.930148 0.182055
H13   H     H_    0.751321 0.055136 0.939034 0.197275
H14   H     H_    0.272074 0.960882 0.069852 0.182056
H15   H     H_    0.248679 0.944864 0.439035 0.197274
H16   H     H_    0.727927 0.039119 0.569852 0.182056
H17   H     H_    0.664539 0.369461 0.632003 0.212210
H18   H     H_    0.337298 0.641514 0.373530 0.198863
H19   H     H_    0.335461 0.630539 0.132003 0.212210
H20   H     H_    0.662702 0.358486 0.873530 0.198860
H21   H     H_    0.164539 0.130539 0.867997 0.212210
H22   H     H_    0.837298 0.858486 0.126470 0.198866
H23   H     H_    0.835460 0.869461 0.367997 0.212210
H24   H     H_    0.162702 0.141514 0.626470 0.198870
O17   O     O_3   0.528130 0.713200 0.250000 -0.373885
O18   O     O_3   0.471870 0.286800 0.750000 -0.373885
O19   O     O_3   0.028130 0.786800 0.250000 -0.373885
O20   O     O_3   0.971870 0.213200 0.750000 -0.373885
V1    V     V_3+5 0.253280 0.756820 0.250000 1.479855
V2    V     V_3+5 0.746720 0.243180 0.750000 1.479855
V3    V     V_3+5 0.753280 0.743180 0.250000 1.479855
V4    V     V_3+5 0.246720 0.256820 0.750000 1.479854
C9    C     C_R   0.041320 0.632703 0.362504 -0.216862
C10   C     C_R   0.963247 0.363872 0.634642 -0.235370
C11   C     C_R   0.958680 0.367297 0.862504 -0.216858
C12   C     C_R   0.036754 0.636128 0.134642 -0.235370
C13   C     C_R   0.541320 0.867298 0.137496 -0.216866
C14   C     C_R   0.463247 0.136128 0.865358 -0.235370
C15   C     C_R   0.458680 0.132702 0.637497 -0.216872
C16   C     C_R   0.536753 0.863872 0.365358 -0.235370
C17   C     C_R   0.881622 0.602424 0.378939 0.464232
C18   C     C_R   0.128597 0.383039 0.610611 0.476176
C19   C     C_R   0.118378 0.397576 0.878939 0.464229
C20   C     C_R   0.871403 0.616961 0.110611 0.476177
C21   C     C_R   0.381621 0.897576 0.121061 0.464236
C22   C     C_R   0.628597 0.116961 0.889389 0.476177
C23   C     C_R   0.618379 0.102424 0.621061 0.464241
C24   C     C_R   0.371402 0.883039 0.389389 0.476177
C25   C     C_R   0.895570 0.562044 0.418702 -0.299780
C26   C     C_R   0.122052 0.427182 0.574304 -0.278960
C27   C     C_R   0.104429 0.437956 0.918702 -0.299785
C28   C     C_R   0.877949 0.572818 0.074305 -0.278959
C29   C     C_R   0.395570 0.937956 0.081298 -0.299776
C30   C     C_R   0.622052 0.072819 0.925696 -0.278961
C31   C     C_R   0.604430 0.062043 0.581298 -0.299770
C32   C     C_R   0.377948 0.927181 0.425696 -0.278963
C33   C     C_R   0.066214 0.549958 0.442133 -0.011751
C34   C     C_R   0.952556 0.447576 0.555445 -0.027401
C35   C     C_R   0.933786 0.450041 0.942134 -0.011746
C36   C     C_R   0.047445 0.552423 0.055445 -0.027401
C37   C     C_R   0.566214 0.950042 0.057867 -0.011753
C38   C     C_R   0.452556 0.052424 0.944556 -0.027400
C39   C     C_R   0.433786 0.049957 0.557867 -0.011759
C40   C     C_R   0.547444 0.947576 0.444556 -0.027399
C41   C     C_R   0.225576 0.579318 0.425614 0.495621
C42   C     C_R   0.787232 0.423463 0.574636 0.503220
C43   C     C_R   0.774423 0.420682 0.925615 0.495622
C44   C     C_R   0.212768 0.576536 0.074636 0.503221
C45   C     C_R   0.725576 0.920683 0.074386 0.495618
C46   C     C_R   0.287232 0.076537 0.925364 0.503220
C47   C     C_R   0.274423 0.079316 0.574387 0.495616
C48   C     C_R   0.712767 0.923463 0.425364 0.503219
C49   C     C_R   0.212339 0.619926 0.385877 -0.340946
C50   C     C_R   0.793448 0.384477 0.615749 -0.315490
C51   C     C_R   0.787661 0.380074 0.885877 -0.340951
C52   C     C_R   0.206552 0.615523 0.115749 -0.315491
C53   C     C_R   0.712339 0.880075 0.114124 -0.340941
C54   C     C_R   0.293448 0.115523 0.884251 -0.315491
C55   C     C_R   0.287661 0.119925 0.614124 -0.340934
C56   C     C_R   0.706552 0.884477 0.384251 -0.315491
C57   C     C_2   0.081370 0.505330 0.482607 -0.153717
C58   C     C_2   0.943870 0.493957 0.516214 -0.169964
C59   C     C_2   0.918630 0.494670 0.982607 -0.153711
C60   C     C_2   0.056130 0.506043 0.016214 -0.169965
C61   C     C_2   0.581370 0.994671 0.017394 -0.153723
C62   C     C_2   0.443870 0.006044 0.983787 -0.169965
C63   C     C_2   0.418630 0.005329 0.517394 -0.153731
C64   C     C_2   0.556129 0.993956 0.483787 -0.169965
O21   O     O_3   0.396305 0.566170 0.446730 -0.553211
C65   C     C_3   0.449571 0.610860 0.480147 -0.231169
H25   H     H_    0.578576 0.598056 0.500278 0.158942
H26   H     H_    0.342586 0.618968 0.510244 0.127649
H27   H     H_    0.480004 0.650774 0.458355 0.139709
O22   O     O_3   0.617536 0.437658 0.553604 -0.547642
C66   C     C_3   0.593520 0.405239 0.508052 -0.251357
H28   H     H_    0.613999 0.358601 0.514965 0.119378
H29   H     H_    0.687986 0.420057 0.476949 0.142802
H30   H     H_    0.450145 0.411048 0.493860 0.148421
O23   O     O_3   0.603695 0.433829 0.946732 -0.553212
C67   C     C_3   0.550418 0.389136 0.980143 -0.231168
H31   H     H_    0.421421 0.401942 0.000277 0.158942
H32   H     H_    0.657404 0.381019 0.010238 0.127642
H33   H     H_    0.519966 0.349226 0.958346 0.139718
O24   O     O_3   0.382465 0.562341 0.053604 -0.547641
C68   C     C_3   0.406481 0.594760 0.008052 -0.251357
H34   H     H_    0.386003 0.641399 0.014965 0.119377
H35   H     H_    0.312015 0.579943 0.976949 0.142801
H36   H     H_    0.549855 0.588951 0.993860 0.148421
O25   O     O_3   0.896306 0.933830 0.053270 -0.553212
C69   C     C_3   0.949559 0.889145 0.019849 -0.231168
H37   H     H_    0.842577 0.881046 0.989750 0.127657
H38   H     H_    0.979971 0.849225 0.041635 0.139698
H39   H     H_    0.078573 0.901946 0.999721 0.158942
O26   O     O_3   0.117536 0.062342 0.946397 -0.547643
C70   C     C_3   0.093520 0.094761 0.991948 -0.251359
H40   H     H_    0.113997 0.141400 0.985035 0.119378
H41   H     H_    0.187985 0.079944 0.023051 0.142802
H42   H     H_    0.950145 0.088952 0.006140 0.148421
O27   O     O_3   0.103693 0.066169 0.553272 -0.553211
C71   C     C_3   0.050457 0.110850 0.519843 -0.231165
H43   H     H_    0.157436 0.118935 0.489740 0.127666
H44   H     H_    0.020077 0.150777 0.541622 0.139682
H45   H     H_    0.921430 0.098051 0.499721 0.158941
O28   O     O_3   0.882464 0.937658 0.446397 -0.547643
C72   C     C_3   0.906479 0.905239 0.491948 -0.251362
H46   H     H_    0.886001 0.858600 0.485035 0.119379
H47   H     H_    0.812014 0.920056 0.523051 0.142804
H48   H     H_    0.049854 0.911048 0.506140 0.148422
O29   O     O_3   0.709129 0.614035 0.358259 -0.543463
C73   C     C_3   0.662843 0.570310 0.323035 -0.172784
H49   H     H_    0.639962 0.528862 0.343154 0.128712
H50   H     H_    0.770343 0.565557 0.292500 0.111001
H51   H     H_    0.531271 0.582050 0.303631 0.156081
O30   O     O_3   0.299317 0.359939 0.622635 -0.535476
C74   C     C_3   0.326030 0.310927 0.591572 -0.195553
H52   H     H_    0.320885 0.321712 0.549783 0.108271
H53   H     H_    0.222183 0.277092 0.600305 0.113629
H54   H     H_    0.464739 0.292745 0.599877 0.137627
O31   O     O_3   0.290871 0.385965 0.858259 -0.543465
C75   C     C_3   0.337157 0.429691 0.823035 -0.172790
H55   H     H_    0.360039 0.471138 0.843155 0.128713
H56   H     H_    0.229656 0.434443 0.792500 0.111003
H57   H     H_    0.468729 0.417950 0.803631 0.156082
O32   O     O_3   0.700683 0.640062 0.122635 -0.535476
C76   C     C_3   0.673970 0.689073 0.091572 -0.195556
H58   H     H_    0.679116 0.678288 0.049783 0.108271
H59   H     H_    0.777817 0.722908 0.100305 0.113629
H60   H     H_    0.535261 0.707255 0.099877 0.137627
O33   O     O_3   0.209129 0.885964 0.141741 -0.543460
C77   C     C_3   0.162841 0.929690 0.176965 -0.172784
H61   H     H_    0.139959 0.971138 0.156846 0.128712
H62   H     H_    0.270341 0.934443 0.207500 0.111000
H63   H     H_    0.031270 0.917949 0.196369 0.156080
O34   O     O_3   0.799317 0.140062 0.877366 -0.535476
C78   C     C_3   0.826030 0.189073 0.908428 -0.195556
H64   H     H_    0.820884 0.178288 0.950217 0.108272
H65   H     H_    0.722182 0.222908 0.899695 0.113627
H66   H     H_    0.964739 0.207255 0.900123 0.137626
O35   O     O_3   0.790872 0.114036 0.641740 -0.543457
C79   C     C_3   0.837159 0.070310 0.676965 -0.172779
H67   H     H_    0.860039 0.028862 0.656846 0.128711
H68   H     H_    0.729659 0.065559 0.707500 0.110998
H69   H     H_    0.968731 0.082051 0.696368 0.156080
O36   O     O_3   0.200683 0.859938 0.377366 -0.535476
C80   C     C_3   0.173969 0.810927 0.408428 -0.195554
H70   H     H_    0.179115 0.821711 0.450217 0.108272
H71   H     H_    0.277817 0.777092 0.399695 0.113627
H72   H     H_    0.035261 0.792745 0.400123 0.137626

loop_
_geom_bond_atom_site_label_1
_geom_bond_atom_site_label_2
_ccdc_geom_bond_type
H4    C59   S    
C7    C10   S    
O14   V4    S    
C40   C48   A    
C47   O27   S    
H8    C63   S    
C14   C54   A    
C22   C30   A    
C11   C51   A    
C76   H58   S    
C21   C29   A    
C63   C64   D    
C10   C50   A    
O24   C68   S    
C28   C36   A    
C69   H39   S    
C23   C31   A    
O34   C78   S    
O23   C67   S    
O33   C77   S    
O11   C3    A    
C42   O22   S    
O5    V1    S    
C75   H55   S    
C38   C62   S    
C26   C34   A    
C68   H34   S    
C45   O25   S    
C72   H47   S    
C1    C16   S    
C70   H42   S    
C2    C15   S    
C39   C63   S    
C3    C14   S    
C13   C21   A    
O27   C71   S    
C18   C26   A    
C17   C25   A    
C79   H67   S    
C14   C22   A    
O3    C2    A    
C25   C33   A    
C4    C13   S    
C80   H71   S    
C77   H61   S    
C24   O36   S    
C17   O29   S    
C38   C46   A    
C11   C19   A    
O22   C66   S    
C37   C45   A    
C10   C18   A    
C78   H66   S    
O31   C75   S    
C34   C58   S    
C79   H68   S    
C8    C9    S    
C39   C47   A    
H7    C64   S    
C74   H53   S    
C73   H50   S    
O12   V1    S    
C68   H36   S    
C33   C41   A    
C30   C38   A    
O15   C7    A    
C29   C37   A    
O16   C8    A    
C43   O23   S    
C76   H59   S    
C21   O33   S    
O6    V2    S    
C71   H45   S    
C44   O24   S    
H2    C57   S    
C31   C39   A    
C47   C55   A    
H1    C58   S    
C65   H25   S    
C33   C57   S    
C66   H29   S    
C48   O28   S    
H22   C53   S    
C41   O21   S    
H11   C28   S    
C74   H54   S    
H6    C61   S    
C23   O35   S    
H5    C62   S    
O28   C72   S    
C5    C12   S    
C15   C55   A    
H21   C54   S    
C72   H48   S    
C45   C53   A    
C6    C11   S    
C22   O34   S    
C69   H38   S    
O17   V3    S    
H24   C55   S    
O18   V4    S    
C41   C49   A    
O36   C80   S    
O19   V1    S    
C80   H72   S    
C13   C53   A    
O35   C79   S    
H12   C27   S    
O3    V4    S    
C74   H52   S    
C59   C60   D    
C9    C49   A    
O12   C4    A    
O8    C5    A    
H16   C31   S    
O13   C5    A    
H19   C52   S    
C66   H28   S    
C77   H63   S    
C12   C20   A    
C73   H49   S    
O11   V2    S    
C73   H51   S    
C67   H33   S    
O4    C1    A    
C20   O32   S    
C71   H44   S    
O32   C76   S    
C15   C23   A    
C48   C56   A    
O4    V3    S    
O25   C69   S    
C46   O26   S    
C76   H60   S    
H18   C49   S    
C19   C27   A    
C18   O30   S    
C44   C52   A    
C67   H32   S    
O21   C65   S    
C57   C58   D    
C66   H30   S    
O9    C1    A    
C16   C56   A    
O1    C4    A    
H23   C56   S    
O2    C3    A    
C75   H57   S    
C9    C17   A    
C71   H43   S    
C12   C52   A    
O8    V1    S    
C65   H26   S    
C70   H40   S    
C69   H37   S    
H14   C29   S    
C20   C28   A    
O7    C6    A    
C35   C43   A    
H13   C30   S    
C37   C61   S    
C34   C42   A    
C79   H69   S    
C43   C51   A    
O15   V4    S    
O14   C6    A    
C75   H56   S    
O1    V3    S    
O16   V3    S    
C32   C40   A    
O2    V4    S    
C61   C62   D    
H15   C32   S    
C70   H41   S    
C27   C35   A    
O30   C74   S    
O5    C8    A    
H3    C60   S    
O10   C2    A    
O6    C7    A    
H20   C51   S    
C35   C59   S    
O20   V2    S    
C16   C24   A    
C80   H70   S    
O10   V2    S    
C77   H62   S    
C65   H27   S    
O26   C70   S    
H10   C25   S    
C78   H64   S    
C40   C64   S    
C19   O31   S    
H9    C26   S    
C36   C60   S    
O9    V1    S    
C46   C54   A    
C24   C32   A    
H17   C50   S    
C78   H65   S    
C36   C44   A    
O7    V2    S    
C68   H35   S    
O29   C73   S    
C72   H46   S    
C42   C50   A    
C67   H31   S    
O13   V3    S    
