data_mof_unit_25177.cif
_audit_creation_date              2012-12-11T18:42:28-0500
_audit_creation_method            fapswitch 2.2
_symmetry_space_group_name_H-M    P1
_symmetry_Int_Tables_number       1
_space_group_crystal_system       triclinic
_cell_length_a                    8.17662
_cell_length_b                    14.365889
_cell_length_c                    18.770579
_cell_angle_alpha                 96.812893
_cell_angle_beta                  91.098777
_cell_angle_gamma                 91.630946
_cell_volume                      2187.85419471

loop_
_atom_site_label
_atom_site_type_symbol
_atom_type_description
_atom_site_fract_x
_atom_site_fract_y
_atom_site_fract_z
_atom_type_partial_charge
Ba1   Ba    Ba6+2 0.843240 0.541620 0.463500 1.684919
Ba2   Ba    Ba6+2 0.346570 0.458460 0.536510 1.660673
C1    C     C_3   0.659580 0.793065 0.144743 0.278330
C2    C     C_R   0.920475 0.399918 0.099475 -0.087955
C3    C     C_R   0.784273 0.415315 0.955156 -0.098787
C4    C     C_3   0.112503 0.726066 0.262381 0.346190
C5    C     C_R   0.941394 0.451963 0.977677 0.023258
C6    C     C_R   0.727098 0.415829 0.885036 -0.095437
C7    C     C_R   0.822827 0.453650 0.833789 -0.035396
C8    C     C_R   0.976285 0.497171 0.855422 0.001668
C9    C     C_R   0.036168 0.496110 0.927583 0.026895
C10   C     C_R   0.769614 0.448997 0.761419 -0.006281
C11   C     C_R   0.870382 0.484983 0.711149 -0.294130
C12   C     C_3   0.594238 0.759112 0.214090 0.718924
C13   C     C_R   0.016129 0.534751 0.731618 0.041602
C14   C     C_R   0.069093 0.542299 0.805144 -0.039610
C15   C     C_R   0.158691 0.490919 0.069947 0.020447
C16   C     C_3   0.110316 0.745901 0.184745 -0.241809
C17   C     C_R   0.217152 0.493008 0.142552 -0.001187
C18   C     C_R   0.121940 0.452134 0.194045 -0.037783
C19   C     C_R   0.979504 0.400689 0.169702 -0.017191
C20   C     C_R   0.211218 0.593552 0.830392 -0.014333
C21   C     C_R   0.272144 0.590583 0.899970 -0.062660
C22   C     C_R   0.190760 0.538631 0.948853 0.011265
C23   C     C_3   0.504080 0.312002 0.321829 0.318823
C24   C     C_R   0.255780 0.531621 0.019057 0.023706
C25   C     C_R   0.418020 0.560718 0.039541 -0.028660
C26   C     C_R   0.372433 0.534629 0.163261 -0.046946
C27   C     C_R   0.475169 0.561148 0.109869 -0.078984
C28   C     C_3   0.182237 0.751181 0.614336 0.307956
C29   C     C_R   0.420383 0.547735 0.236636 -0.038304
C30   C     C_R   0.318238 0.514383 0.287636 -0.293434
C31   C     C_R   0.173615 0.463223 0.267720 0.037238
C32   C     C_R   0.691836 0.939007 0.539617 -0.053151
C33   C     C_R   0.505086 0.801245 0.500814 0.106789
C34   C     C_3   0.493582 0.283990 0.241099 -0.364545
C35   C     C_R   0.361308 0.766034 0.464311 -0.232376
C36   C     C_R   0.254082 0.826014 0.435464 -0.006812
C37   C     C_R   0.296014 0.920137 0.437064 -0.054638
C38   C     C_R   0.447577 0.955911 0.466849 0.005111
C39   C     C_R   0.548933 0.898340 0.503729 -0.032691
C40   C     C_3   0.187172 0.857603 0.630473 -0.377641
C41   C     C_R   0.638146 0.090259 0.497387 -0.045657
C42   C     C_R   0.737345 0.033653 0.536672 -0.055982
C43   C     C_R   0.685229 0.186395 0.497780 0.047739
C44   C     C_R   0.824465 0.223528 0.536316 -0.305217
C45   C     C_3   0.109470 0.271404 0.741241 0.368451
C46   C     C_R   0.929023 0.166412 0.569091 0.015512
C47   C     C_R   0.884709 0.071651 0.570540 -0.133429
C48   C     C_R   0.497843 0.048388 0.459066 0.396927
C49   C     C_3   0.012257 0.249876 0.387745 0.307624
C50   C     C_3   0.993171 0.143751 0.371281 -0.334587
C51   C     C_3   0.687269 0.675188 0.675157 0.294070
C52   C     C_3   0.694882 0.705404 0.755696 -0.360926
C53   C     C_3   0.122471 0.246660 0.817640 -0.309542
C54   C     C_3   0.599439 0.218377 0.701500 0.388441
C55   C     C_3   0.604543 0.123884 0.730906 0.238028
C56   C     C_R   0.004087 0.448193 0.048907 0.011763
H1    H     H_    0.281587 0.880374 0.672760 0.147204
H2    H     H_    0.601870 0.613491 0.664423 0.071587
H3    H     H_    0.784525 0.764909 0.768278 0.140673
H4    H     H_    0.732800 0.646639 0.784874 0.055211
H5    H     H_    0.572412 0.727558 0.774525 0.133886
H6    H     H_    0.473005 0.723941 0.201998 -0.134463
H7    H     H_    0.705398 0.732328 0.109486 -0.039317
H8    H     H_    0.380088 0.328845 0.341264 0.007561
H9    H     H_    0.586629 0.375020 0.332695 0.054075
H10   H     H_    0.408335 0.222416 0.228382 0.148049
H11   H     H_    0.448242 0.342813 0.213744 0.054205
H12   H     H_    0.217016 0.890501 0.581720 0.029114
H13   H     H_    0.616599 0.265808 0.220604 0.122736
H14   H     H_    0.765024 0.843057 0.157085 0.081669
H15   H     H_    0.183445 0.693637 0.152234 0.091285
H16   H     H_    0.184723 0.336103 0.737707 0.090726
H17   H     H_    0.979650 0.284976 0.729332 -0.083392
H18   H     H_    0.251886 0.234253 0.831783 0.176521
H19   H     H_    0.077900 0.304968 0.855645 0.054143
H20   H     H_    0.046951 0.182411 0.822782 0.120068
H21   H     H_    0.727042 0.239773 0.690632 -0.131001
H22   H     H_    0.527695 0.210015 0.650189 0.058837
H23   H     H_    0.065969 0.881964 0.649324 0.124214
H24   H     H_    0.674954 0.073722 0.694530 -0.034849
H25   H     H_    0.047497 0.657459 0.264572 0.053596
H26   H     H_    0.668796 0.133091 0.784067 0.089767
H27   H     H_    0.830250 0.478657 0.655498 0.071562
H28   H     H_    0.606196 0.385714 0.871820 0.109445
H29   H     H_    0.909687 0.361064 0.204654 0.106078
H30   H     H_    0.279225 0.635748 0.796574 0.100343
H31   H     H_    0.600753 0.583437 0.121975 0.065552
H32   H     H_    0.356863 0.523381 0.343533 0.070543
H33   H     H_    0.700369 0.386274 0.990778 0.074172
H34   H     H_    0.896628 0.278665 0.408341 -0.015675
H35   H     H_    0.809083 0.359205 0.086346 0.068051
H36   H     H_    0.382345 0.631998 0.914738 0.098876
H37   H     H_    0.242093 0.721697 0.280508 -0.022690
H38   H     H_    0.504975 0.582431 0.001798 0.080312
H39   H     H_    0.328347 0.692211 0.461738 0.046393
H40   H     H_    0.209760 0.964629 0.414007 0.090829
H41   H     H_    0.965228 0.027799 0.597488 0.072328
H42   H     H_    0.857661 0.297118 0.536950 0.059612
H43   H     H_    0.769645 0.898020 0.570106 0.098893
H44   H     H_    0.983685 0.740089 0.162697 0.090188
H45   H     H_    0.111034 0.266792 0.428763 0.081060
H46   H     H_    0.161863 0.817322 0.180686 0.217512
H47   H     H_    0.305107 0.727413 0.599170 -0.003577
H48   H     H_    0.093015 0.730422 0.569587 0.051430
H49   H     H_    0.687894 0.991292 0.314054 0.351061
H50   H     H_    0.525098 0.987681 0.148329 0.359343
H51   H     H_    0.406176 0.060480 0.690341 0.309279
H52   H     H_    0.394461 0.054208 0.366438 0.325982
H53   H     H_    0.884941 0.125433 0.335242 0.130391
H54   H     H_    0.977016 0.111006 0.421308 0.058714
H55   H     H_    0.103852 0.115019 0.344452 0.160567
H56   H     H_    0.810613 0.656211 0.656750 0.010008
O1    O     O_2   0.887710 0.436190 0.327560 -0.461233
O2    O     O_2   0.269046 0.171754 0.563496 -0.479687
O3    O     O_3   0.166893 0.196759 0.694102 -0.572257
O4    O     O_3   0.135370 0.443490 0.416520 -0.501575
O5    O     O_3   0.551980 0.615210 0.532020 -0.494607
O6    O     O_2   0.394410 0.269100 0.474240 -0.419091
O7    O     O_3   0.564822 0.236883 0.354550 -0.601682
O8    O     O_2   0.427184 0.456800 0.758357 -0.502142
O9    O     O_3   0.526816 0.284373 0.751666 -0.598060
O10   O     O_3   0.634420 0.609440 0.364670 -0.432062
O11   O     O_2   0.745574 0.524452 0.244825 -0.495394
O12   O     O_3   0.633443 0.750360 0.640906 -0.642387
O13   O     O_3   0.050022 0.286773 0.324384 -0.637105
O14   O     O_3   0.710846 0.699500 0.239481 -0.619342
O15   O     O_2   0.795290 0.730930 0.525800 -0.474282
O16   O     O_3   0.044470 0.660110 0.398750 -0.499710
O17   O     O_2   0.911092 0.825525 0.432930 -0.432531
O18   O     O_2   0.399642 0.889827 0.279637 -0.338707
O19   O     O_2   0.605156 0.822011 0.353156 -0.311917
O20   O     O_3   0.704122 0.944488 0.271821 -0.526466
O21   O     O_2   0.590400 0.876913 0.027983 -0.268666
O22   O     O_2   0.373932 0.777329 0.069068 -0.308517
O23   O     O_3   0.033283 0.797930 0.304587 -0.522643
O24   O     O_3   0.432809 0.941125 0.141005 -0.442257
O25   O     O_3   0.445830 0.087733 0.738913 -0.672348
O26   O     O_3   0.412291 0.096217 0.411940 -0.714798
O27   O     O_2   0.301980 0.563840 0.672490 -0.473058
O28   O     O_3   0.054330 0.556590 0.583490 -0.499488
O29   O     O_3   0.555270 0.390630 0.635330 -0.480959
O30   O     O_3   0.136577 0.713287 0.676326 -0.632768
O31   O     O_3   0.637720 0.384870 0.467990 -0.495269
O32   O     O_3   0.145220 0.339960 0.601250 -0.490515
P1    P     P_3+3 0.061800 0.409390 0.339760 0.971157
P2    P     P_3+3 0.622760 0.718740 0.547830 0.983932
P3    P     P_3+3 0.059347 0.779786 0.394550 1.050509
P4    P     P_3+3 0.127890 0.590690 0.660240 0.971139
P5    P     P_3+3 0.126708 0.218494 0.605796 0.955182
P6    P     P_3+3 0.621637 0.599042 0.270416 0.993092
P7    P     P_3+3 0.574928 0.267923 0.447673 1.013245
P8    P     P_3+3 0.569324 0.396783 0.728072 0.937511
S1    S     S_3+6 0.571327 0.855769 0.282029 -0.079736
S2    S     S_3+6 0.510207 0.846757 0.093238 -0.049460

loop_
_geom_bond_atom_site_label_1
_geom_bond_atom_site_label_2
_ccdc_geom_bond_type
C42   C47   A    
Ba2   P4    S    
C19   H29   S    
C2    C19   A    
C12   S1    S    
C25   C27   A    
Ba1   O31   S    
C17   C18   A    
C23   H9    S    
C27   H31   S    
Ba2   O4    S    
C28   O30   S    
C43   C44   A    
C51   H56   S    
Ba2   O31   S    
C5    C9    A    
C40   H23   S    
C26   C27   A    
C24   C25   A    
C54   H21   S    
O7    P7    S    
C15   C24   A    
O4    P1    S    
C33   C35   A    
C22   C24   A    
H49   O20   S    
Ba1   O15   S    
Ba1   O5    S    
C36   C37   A    
C53   H19   S    
C48   O26   S    
C52   H5    S    
C50   H54   S    
C49   H45   S    
C13   C14   A    
C55   H24   S    
O1    P1    D    
C9    C22   A    
C40   H12   S    
O18   S1    D    
C12   O14   S    
C54   C55   S    
C55   O25   S    
Ba1   Ba2   S    
C16   H44   S    
C1    S2    S    
O15   P2    D    
O30   P4    S    
Ba1   O28   S    
C31   P1    S    
O14   P6    S    
C30   H32   S    
C29   C30   A    
C6    C7    A    
O12   P2    S    
C21   C22   A    
C20   H30   S    
C7    C8    A    
C5    C56   A    
C34   H13   S    
C15   C56   A    
Ba1   O4    S    
O31   P7    S    
O10   P6    S    
C28   H48   S    
Ba2   O29   S    
O8    P8    D    
O23   P3    S    
C25   H38   S    
C1    H7    S    
C32   C39   A    
C35   H39   S    
C51   H2    S    
O27   P4    D    
C4    C16   S    
C44   C46   A    
C32   H43   S    
C49   C50   S    
C54   O9    S    
C32   C42   A    
Ba1   O16   S    
C51   O12   S    
C37   C38   A    
C3    C5    A    
C53   H20   S    
Ba2   O6    S    
C37   H40   S    
C52   H4    S    
C50   H53   S    
O5    P2    S    
C50   H55   S    
O21   S2    D    
O32   P5    S    
C41   C42   A    
C35   C36   A    
O11   P6    D    
C49   H34   S    
C47   H41   S    
O20   S1    S    
C12   H6    S    
O16   P3    S    
C55   H26   S    
O3    P5    S    
C16   H46   S    
C10   C11   A    
C17   C26   A    
C41   C43   A    
C3    H33   S    
C1    C12   S    
C18   C31   A    
C38   C39   A    
C16   H15   S    
C11   C13   A    
C28   H47   S    
Ba2   O28   S    
O17   P3    D    
C43   P7    S    
C53   H18   S    
C11   H27   S    
C34   H11   S    
C45   C53   S    
O24   S2    S    
C44   H42   S    
C46   C47   A    
C14   C20   A    
C4    H25   S    
C36   P3    S    
O19   S1    D    
C26   C29   A    
C23   H8    S    
C45   H16   S    
C10   P8    S    
O29   P8    S    
C40   H1    S    
C3    C6    A    
Ba2   O5    S    
C34   H10   S    
C41   C48   A    
C51   C52   S    
C52   H3    S    
Ba2   O32   S    
C54   H22   S    
C21   H36   S    
H51   O25   S    
C49   O13   S    
C30   C31   A    
O28   P4    S    
C4    O23   S    
H52   O26   S    
C1    H14   S    
Ba1   O10   S    
C45   H17   S    
C8    C14   A    
H50   O24   S    
C29   P6    S    
C38   C48   A    
O6    P7    D    
C15   C17   A    
C6    H28   S    
C33   P2    S    
C13   P4    S    
O22   S2    D    
C33   C39   A    
C7    C10   A    
Ba1   P1    S    
C8    C9    A    
C23   C34   S    
C2    H35   S    
C45   O3    S    
C18   C19   A    
C4    H37   S    
C46   P5    S    
C2    C56   A    
Ba2   O27   S    
C20   C21   A    
C28   C40   S    
Ba1   P2    S    
Ba1   O1    S    
C23   O7    S    
O2    P5    D    
O13   P1    S    
O9    P8    S    
