data_mof_unit_25829.cif
_audit_creation_date              2012-10-26T20:00:57-0400
_audit_creation_method            fapswitch 2.2
_symmetry_space_group_name_H-M    P1
_symmetry_Int_Tables_number       1
_space_group_crystal_system       triclinic
_cell_length_a                    11.779301
_cell_length_b                    13.075984
_cell_length_c                    13.439603
_cell_angle_alpha                 95.928922
_cell_angle_beta                  75.954768
_cell_angle_gamma                 99.806463
_cell_volume                      1974.65948094

loop_
_atom_site_label
_atom_site_type_symbol
_atom_type_description
_atom_site_fract_x
_atom_site_fract_y
_atom_site_fract_z
_atom_type_partial_charge
C1    C     C_R   0.523626 0.699904 0.492758 0.566885
C2    C     C_R   0.396868 0.490418 0.810929 -0.007650
C3    C     C_R   0.464573 0.185525 0.513437 0.034942
C4    C     C_R   0.435358 0.491622 0.696376 0.519348
C5    C     C_R   0.540540 0.812315 0.476490 0.043805
C6    C     C_R   0.661797 0.982135 0.475224 -0.131531
C7    C     C_R   0.651695 0.874037 0.475283 0.200347
C8    C     C_R   0.446086 0.860190 0.462240 -0.024286
C9    C     C_R   0.451427 0.968092 0.485166 -0.008329
C10   C     C_R   0.560892 0.029982 0.487936 -0.002280
C11   C     C_R   0.567923 0.138818 0.501021 0.215395
C12   C     C_R   0.464292 0.509787 0.971030 -0.003040
C13   C     C_R   0.352815 0.121073 0.535476 -0.031455
C14   C     C_R   0.348110 0.013860 0.514253 -0.133198
C15   C     C_R   0.948803 0.608315 0.589007 -0.162571
C16   C     C_R   0.476857 0.299531 0.505827 0.549794
C17   C     C_R   0.829022 0.595246 0.585264 0.157445
C18   C     C_R   0.859462 0.455868 0.457991 0.362382
C19   C     C_R   0.982591 0.472036 0.457403 0.014347
C20   C     C_R   0.025643 0.542722 0.530851 -0.068658
C21   C     C_R   0.145752 0.548229 0.539813 0.359130
C22   C     C_R   0.176510 0.416824 0.403138 0.131949
C23   C     C_R   0.476328 0.470229 0.868231 -0.028501
C24   C     C_R   0.065375 0.422780 0.382265 0.026200
C25   C     C_R   0.564541 0.506222 0.303813 0.517417
C26   C     C_R   0.736141 0.444324 0.035526 0.037867
C27   C     C_R   0.603684 0.504929 0.190289 -0.006258
C28   C     C_R   0.290671 0.527500 0.865339 0.019868
C29   C     C_R   0.289772 0.584008 0.960867 0.025682
C30   C     C_R   0.377212 0.574382 0.012512 -0.115141
C31   C     C_3   0.826461 0.547682 0.178252 -0.270360
C32   C     C_3   0.822263 0.663614 0.206998 -0.406782
C33   C     C_3   0.239967 0.157711 0.598730 -0.283251
C34   C     C_R   0.544383 0.489773 0.027721 -0.031445
C35   C     C_3   0.218521 0.131016 0.710497 -0.455038
C36   C     C_3   0.347486 0.801364 0.412738 -0.255283
C37   C     C_3   0.396365 0.748074 0.307725 -0.414757
C38   C     C_3   0.245686 0.334241 0.339190 -0.229528
C39   C     C_3   0.184239 0.224775 0.367264 -0.443950
C40   C     C_3   0.048241 0.397100 0.272269 -0.262423
C41   C     C_3   0.124121 0.478454 0.200620 -0.473394
C42   C     C_3   0.756813 0.670396 0.657816 -0.219938
C43   C     C_3   0.759487 0.663684 0.770349 -0.467491
C44   C     C_3   0.838827 0.382021 0.998459 -0.231224
C45   C     C_R   0.647383 0.444586 0.978412 0.078713
C46   C     C_3   0.795347 0.264916 0.001394 -0.395763
C47   C     C_3   0.177032 0.500186 0.827246 -0.270978
C48   C     C_3   0.142797 0.382757 0.811779 -0.439376
C49   C     C_3   0.197688 0.656097 0.003969 -0.277628
C50   C     C_3   0.232024 0.744622 0.079800 -0.452282
C51   C     C_R   0.656140 0.402717 0.875225 0.210054
C52   C     C_R   0.566459 0.410106 0.825125 -0.121163
C53   C     C_R   0.518929 0.506838 0.134700 -0.171628
C54   C     C_R   0.720478 0.495215 0.135649 0.006748
Cu1   Cu    Cu3+1 0.386470 0.492430 0.492410 0.941297
Cu2   Cu    Cu3+1 0.613530 0.507570 0.507590 0.966462
H1    H     H_    0.748413 0.028018 0.469654 0.121329
H2    H     H_    0.833094 0.508204 0.244938 0.164174
H3    H     H_    0.910742 0.545680 0.120355 0.116757
H4    H     H_    0.212128 0.045924 0.715737 0.156968
H5    H     H_    0.291817 0.172186 0.745013 0.150135
H6    H     H_    0.133993 0.155381 0.755268 0.135033
H7    H     H_    0.239793 0.241872 0.598780 0.182994
H8    H     H_    0.163571 0.117686 0.567727 0.132503
H9    H     H_    0.819959 0.881910 0.471120 0.308042
H10   H     H_    0.467278 0.703008 0.309331 0.167577
H11   H     H_    0.323842 0.693542 0.283004 0.125212
H12   H     H_    0.262342 0.965313 0.530237 0.114804
H13   H     H_    0.432982 0.807174 0.249954 0.136219
H14   H     H_    0.286651 0.745534 0.464666 0.214082
H15   H     H_    0.290426 0.854201 0.397176 0.121270
H16   H     H_    0.136229 0.646659 0.660859 0.281964
H17   H     H_    0.146212 0.223935 0.450984 0.155121
H18   H     H_    0.111131 0.198090 0.327721 0.143073
H19   H     H_    0.248571 0.168767 0.344566 0.137661
H20   H     H_    0.257382 0.340747 0.255721 0.110434
H21   H     H_    0.336377 0.340641 0.345854 0.215817
H22   H     H_    0.218370 0.488814 0.204012 0.151787
H23   H     H_    0.979836 0.672688 0.637190 0.095395
H24   H     H_    0.117520 0.453691 0.120423 0.141980
H25   H     H_    0.091642 0.554405 0.222499 0.146141
H26   H     H_    0.068044 0.318562 0.242221 0.145428
H27   H     H_    0.957858 0.396998 0.263911 0.178701
H28   H     H_    0.748181 0.581588 0.788655 0.191043
H29   H     H_    0.844389 0.704498 0.786470 0.128390
H30   H     H_    0.686790 0.700977 0.821814 0.140602
H31   H     H_    0.793518 0.751038 0.635693 0.152335
H32   H     H_    0.663839 0.659577 0.656135 0.221065
H33   H     H_    0.746309 0.336389 0.750550 0.330668
H34   H     H_    0.431178 0.519382 0.176162 0.121599
H35   H     H_    0.751775 0.385006 0.378103 0.364430
H36   H     H_    0.760699 0.244133 0.082456 0.137583
H37   H     H_    0.723792 0.239271 0.959889 0.199763
H38   H     H_    0.870334 0.221838 0.966099 0.128749
H39   H     H_    0.891848 0.404193 0.921771 0.198182
H40   H     H_    0.903021 0.396707 0.048044 0.105231
H41   H     H_    0.214970 0.348446 0.756985 0.165877
H42   H     H_    0.124176 0.346332 0.886304 0.139617
H43   H     H_    0.062345 0.365375 0.780132 0.152426
H44   H     H_    0.100419 0.528632 0.881747 0.113274
H45   H     H_    0.377139 0.617709 0.085181 0.110310
H46   H     H_    0.186196 0.537017 0.755868 0.211378
H47   H     H_    0.228029 0.714226 0.154680 0.136663
H48   H     H_    0.322036 0.786471 0.048497 0.155433
H49   H     H_    0.168061 0.800763 0.093586 0.137780
H50   H     H_    0.182079 0.693654 0.938909 0.144194
H51   H     H_    0.112763 0.610044 0.041160 0.129729
H52   H     H_    0.707362 0.173204 0.555675 0.309988
H53   H     H_    0.569501 0.369591 0.750374 0.140355
H54   H     H_    0.818452 0.703403 0.138985 0.137447
H55   H     H_    0.744682 0.676596 0.270033 0.194678
H56   H     H_    0.903500 0.699378 0.233102 0.141740
N1    N     N_R   0.215880 0.481050 0.481000 -0.204225
N2    N     N_R   0.784100 0.518950 0.519000 -0.226466
O1    O     O_R   0.419710 0.645650 0.494620 -0.458626
O2    O     O_3   0.196838 0.620520 0.604494 -0.694608
O3    O     O_3   0.753001 0.357504 0.822185 -0.750370
O4    O     O_3   0.815254 0.367954 0.406213 -0.672649
O5    O     O_3   0.674694 0.200082 0.503876 -0.643674
O6    O     O_R   0.611450 0.658430 0.507430 -0.469824
O7    O     O_R   0.357340 0.490460 0.641450 -0.465780
O8    O     O_R   0.549080 0.503250 0.654260 -0.529991
O9    O     O_R   0.388550 0.341570 0.492570 -0.549401
O10   O     O_R   0.580290 0.354350 0.505380 -0.433029
O11   O     O_R   0.450920 0.496750 0.345740 -0.538413
O12   O     O_R   0.642660 0.509540 0.358550 -0.532196
O13   O     O_3   0.749998 0.827664 0.471062 -0.711372

loop_
_geom_bond_atom_site_label_1
_geom_bond_atom_site_label_2
_ccdc_geom_bond_type
Cu1   Cu2   S    
Cu1   O7    S    
C28   C47   S    
C50   H48   S    
C32   H55   S    
C37   H13   S    
C19   C20   A    
C40   H27   S    
C25   O12   A    
C11   O5    S    
C18   N2    A    
C41   H24   S    
C27   C54   A    
C26   C44   S    
C49   H51   S    
C38   H20   S    
C48   H41   S    
C12   C23   A    
C32   H54   S    
C1    C5    S    
H9    O13   S    
C31   H2    S    
C36   C37   S    
C16   O9    A    
C38   C39   S    
C46   H36   S    
C45   C51   A    
C22   C38   S    
C18   C19   A    
C8    C36   S    
C39   H18   S    
C31   H3    S    
C25   O11   A    
C17   C42   S    
C26   C45   A    
C51   O3    S    
C22   N1    A    
C15   H23   S    
Cu1   O11   S    
C44   C46   S    
C8    C9    A    
C50   H49   S    
Cu2   O12   S    
C9    C10   A    
C18   O4    S    
C3    C13   A    
C36   H15   S    
C50   H47   S    
C47   H46   S    
C13   C14   A    
C43   H28   S    
Cu2   O6    S    
C6    H1    S    
C21   O2    S    
C26   C54   A    
C36   H14   S    
C17   N2    A    
C15   C20   A    
Cu1   O9    S    
H52   O5    S    
C51   C52   A    
C43   H29   S    
C40   H26   S    
C21   N1    A    
C41   H22   S    
C5    C7    A    
C29   C49   S    
Cu1   N1    S    
C47   H44   S    
C35   H4    S    
C1    O6    A    
Cu2   O8    S    
C2    C4    S    
C9    C14   A    
C13   C33   S    
C29   C30   A    
C44   H40   S    
C47   C48   S    
C46   H38   S    
C33   H7    S    
C41   H25   S    
C37   H10   S    
H35   O4    S    
C4    O8    A    
C35   H5    S    
C34   C45   A    
C6    C7    A    
C40   C41   S    
H33   O3    S    
C39   H19   S    
C22   C24   A    
C42   H32   S    
C42   C43   S    
C12   C34   A    
Cu2   O10   S    
C53   H34   S    
C15   C17   A    
C48   H43   S    
C28   C29   A    
Cu2   N2    S    
C32   H56   S    
C12   C30   A    
C43   H30   S    
C31   C32   S    
C6    C10   A    
C5    C8    A    
C27   C53   A    
C49   H50   S    
C38   H21   S    
C25   C27   S    
C48   H42   S    
H16   O2    S    
C19   C24   A    
C16   O10   A    
C44   H39   S    
C23   C52   A    
C46   H37   S    
Cu1   O1    S    
C52   H53   S    
C33   H8    S    
C37   H11   S    
C30   H45   S    
C33   C35   S    
C4    O7    A    
C35   H6    S    
C39   H17   S    
C31   C54   S    
C24   C40   S    
C3    C11   A    
C10   C11   A    
C20   C21   A    
C34   C53   A    
C49   C50   S    
C2    C23   A    
C14   H12   S    
C2    C28   A    
C42   H31   S    
C1    O1    A    
C7    O13   S    
C3    C16   S    
