data_mof_unit_23523.cif
_audit_creation_date              2012-12-10T16:49:25-0500
_audit_creation_method            fapswitch 2.2
_symmetry_space_group_name_H-M    P1
_symmetry_Int_Tables_number       1
_space_group_crystal_system       triclinic
_cell_length_a                    7.742962
_cell_length_b                    8.632487
_cell_length_c                    12.876729
_cell_angle_alpha                 89.970874
_cell_angle_beta                  88.025257
_cell_angle_gamma                 93.508113
_cell_volume                      858.567719017

loop_
_atom_site_label
_atom_site_type_symbol
_atom_type_description
_atom_site_fract_x
_atom_site_fract_y
_atom_site_fract_z
_atom_type_partial_charge
C1    C     C_R   0.455059 0.205604 0.497313 0.883016
C2    C     C_R   0.711682 0.461893 0.140224 -0.193669
C3    C     C_R   0.589372 0.473327 0.868853 -0.259873
C4    C     C_R   0.410628 0.526673 0.131146 -0.259873
C5    C     C_R   0.578832 0.481591 0.975297 0.181243
C6    C     C_R   0.421168 0.518409 0.024703 0.181242
C7    C     C_2   0.430956 0.043270 0.495851 0.269489
C8    C     C_2   0.569044 0.956730 0.504149 0.269489
C9    C     C_R   0.544941 0.794396 0.502687 0.883016
C10   C     C_R   0.465789 0.501924 0.699851 0.869787
C11   C     C_R   0.534211 0.498076 0.300149 0.869788
C12   C     C_R   0.554443 0.496672 0.188989 -0.043979
C13   C     C_R   0.445557 0.503328 0.811011 -0.043979
C14   C     C_R   0.276155 0.545711 0.967091 -0.216216
C15   C     C_R   0.723845 0.454289 0.032909 -0.216216
C16   C     C_R   0.288318 0.538107 0.859776 -0.193669
F1    F     F_    0.265186 0.983148 0.485938 -0.624754
F2    F     F_    0.734814 0.016851 0.514062 -0.624754
H1    H     H_    0.289044 0.555230 0.168639 0.166333
H2    H     H_    0.710955 0.444770 0.831361 0.166333
H3    H     H_    0.823544 0.438784 0.184724 0.168345
H4    H     H_    0.176456 0.561216 0.815276 0.168345
H5    H     H_    0.154723 0.573691 0.004846 0.141645
H6    H     H_    0.845277 0.426309 0.995154 0.141645
H7    H     H_    0.998166 0.615430 0.421997 0.213342
H8    H     H_    0.001834 0.384569 0.578003 0.213342
N1    N     N_2   0.054030 0.541640 0.471970 -0.151326
N2    N     N_2   0.945970 0.458360 0.528030 -0.151326
O1    O     O_R   0.609680 0.261530 0.506880 -0.571515
O2    O     O_R   0.390320 0.738470 0.493120 -0.571516
O3    O     O_R   0.323330 0.288220 0.488910 -0.583122
O4    O     O_R   0.676670 0.711780 0.511090 -0.583122
O5    O     O_R   0.619510 0.488830 0.661140 -0.627217
O6    O     O_R   0.380490 0.511170 0.338860 -0.627217
O7    O     O_R   0.333160 0.515520 0.643180 -0.636834
O8    O     O_R   0.666840 0.484480 0.356820 -0.636834
Zn1   Zn    Zn3+2 0.691200 0.482180 0.511990 1.015307
Zn2   Zn    Zn3+2 0.308800 0.517820 0.488010 1.015307

loop_
_geom_bond_atom_site_label_1
_geom_bond_atom_site_label_2
_ccdc_geom_bond_type
C14   H5    S    
C11   C12   S    
C10   O7    A    
C4    C12   A    
H8    N2    S    
C3    C13   A    
O3    Zn2   S    
C1    O3    A    
C2    C12   A    
C2    H3    S    
C1    O1    A    
C3    H2    S    
C15   H6    S    
O4    Zn1   S    
C2    C15   A    
N2    Zn1   S    
C9    O2    A    
C11   O8    A    
O5    Zn1   S    
C10   O5    A    
C5    C6    A    
C14   C16   A    
C5    C15   A    
C6    C14   A    
N1    Zn2   S    
C7    C8    D    
O7    Zn2   S    
O2    Zn2   S    
C4    C6    A    
C13   C16   A    
O1    Zn1   S    
N1    N2    D    
O8    Zn1   S    
C16   H4    S    
C9    O4    A    
C3    C5    A    
C1    C7    S    
C4    H1    S    
C10   C13   S    
C11   O6    A    
C8    F2    S    
C8    C9    S    
C7    F1    S    
H7    N1    S    
O6    Zn2   S    
