data_mof_unit_28157.cif
_audit_creation_date              2012-12-11T14:41:15-0500
_audit_creation_method            fapswitch 2.2
_symmetry_space_group_name_H-M    P1
_symmetry_Int_Tables_number       1
_space_group_crystal_system       orthorhombic
_cell_length_a                    7.106186
_cell_length_b                    18.155321
_cell_length_c                    18.42968
_cell_angle_alpha                 90.0
_cell_angle_beta                  90.0
_cell_angle_gamma                 90.0
_cell_volume                      2377.70678546

loop_
_atom_site_label
_atom_site_type_symbol
_atom_type_description
_atom_site_fract_x
_atom_site_fract_y
_atom_site_fract_z
_atom_type_partial_charge
O1    O     O_R   0.377350 0.828520 0.186660 -0.525657
O2    O     O_R   0.622650 0.171480 0.813340 -0.554329
O3    O     O_R   0.122650 0.171480 0.686660 -0.525657
O4    O     O_R   0.877350 0.828520 0.313340 -0.554329
O5    O     O_R   0.877350 0.671480 0.313340 -0.525657
O6    O     O_R   0.122650 0.328520 0.686660 -0.554329
O7    O     O_R   0.622650 0.328520 0.813340 -0.525657
O8    O     O_R   0.377350 0.671480 0.186660 -0.554329
O9    O     O_R   0.707090 0.671930 0.178410 -0.518301
O10   O     O_R   0.292910 0.328070 0.821590 -0.554022
O11   O     O_R   0.792910 0.328070 0.678410 -0.518301
O12   O     O_R   0.207090 0.671930 0.321590 -0.554022
O13   O     O_R   0.207090 0.828070 0.321590 -0.518301
O14   O     O_R   0.792910 0.171930 0.678410 -0.554022
O15   O     O_R   0.292910 0.171930 0.821590 -0.518301
O16   O     O_R   0.707090 0.828070 0.178410 -0.554022
C1    C     C_R   0.538039 0.647241 0.161127 0.768377
C2    C     C_R   0.461812 0.355474 0.836316 0.771249
C3    C     C_R   0.961961 0.352759 0.661127 0.768377
C4    C     C_R   0.038188 0.644526 0.336316 0.771249
C5    C     C_R   0.038039 0.852759 0.338873 0.768377
C6    C     C_R   0.961812 0.144526 0.663684 0.771249
C7    C     C_R   0.461961 0.147241 0.838873 0.768377
C8    C     C_R   0.538188 0.855474 0.163684 0.771249
O17   O     O_3   0.543850 0.750000 0.294270 -0.380362
O18   O     O_3   0.456150 0.250000 0.705730 -0.380362
O19   O     O_3   0.956150 0.250000 0.794270 -0.380363
O20   O     O_3   0.043850 0.750000 0.205730 -0.380362
V1    V     V_3+5 0.818700 0.750000 0.241790 1.471987
V2    V     V_3+5 0.181300 0.250000 0.758210 1.471987
V3    V     V_3+5 0.681300 0.250000 0.741790 1.471987
V4    V     V_3+5 0.318700 0.750000 0.258210 1.471987
C9    C     C_R   0.974872 0.415893 0.610688 -0.198445
C10   C     C_R   0.024359 0.579727 0.386178 -0.216123
C11   C     C_R   0.525127 0.584107 0.110688 -0.198444
C12   C     C_R   0.475640 0.420273 0.886178 -0.216123
C13   C     C_R   0.474872 0.084107 0.889312 -0.198444
C14   C     C_R   0.524359 0.920273 0.113822 -0.216123
C15   C     C_R   0.025128 0.915893 0.389312 -0.198444
C16   C     C_R   0.975640 0.079727 0.613822 -0.216123
C17   C     C_R   0.942600 0.450284 0.410799 0.256061
C18   C     C_R   0.998828 0.548151 0.588022 0.322735
C19   C     C_R   0.557401 0.549716 0.910799 0.256063
C20   C     C_R   0.501172 0.451849 0.088022 0.322732
C21   C     C_R   0.442599 0.049716 0.089201 0.256063
C22   C     C_R   0.498828 0.951849 0.911978 0.322734
C23   C     C_R   0.057401 0.950284 0.589201 0.256064
C24   C     C_R   0.001172 0.048151 0.411978 0.322735
C25   C     C_R   0.967810 0.509710 0.360117 0.261937
C26   C     C_R   0.973704 0.488450 0.637193 0.273867
C27   C     C_R   0.532190 0.490289 0.860117 0.261936
C28   C     C_R   0.526296 0.511549 0.137193 0.273867
C29   C     C_R   0.467810 0.990289 0.139883 0.261936
C30   C     C_R   0.473704 0.011550 0.862807 0.273866
C31   C     C_R   0.032190 0.009711 0.639883 0.261937
C32   C     C_R   0.026295 0.988451 0.362806 0.273866
C33   C     C_R   0.043884 0.591257 0.460887 -0.170367
C34   C     C_R   0.989230 0.403220 0.536126 -0.167369
C35   C     C_R   0.456116 0.408742 0.960887 -0.170368
C36   C     C_R   0.510770 0.596780 0.036126 -0.167370
C37   C     C_R   0.543884 0.908743 0.039113 -0.170367
C38   C     C_R   0.489230 0.096780 0.963874 -0.167370
C39   C     C_R   0.956116 0.091258 0.539113 -0.170367
C40   C     C_R   0.010770 0.903220 0.463874 -0.167370
C41   C     C_R   0.012513 0.534237 0.511831 -0.053153
C42   C     C_R   0.984538 0.461805 0.485696 -0.051749
C43   C     C_R   0.487487 0.465763 0.011831 -0.053153
C44   C     C_R   0.515462 0.538194 0.985696 -0.051749
C45   C     C_R   0.512513 0.965763 0.988169 -0.053152
C46   C     C_R   0.484538 0.038194 0.014304 -0.051749
C47   C     C_R   0.987487 0.034237 0.488169 -0.053153
C48   C     C_R   0.015462 0.961806 0.514304 -0.051750
H1    H     H_    0.002889 0.346835 0.518151 0.198576
H2    H     H_    0.077472 0.646507 0.478233 0.221296
H3    H     H_    0.497111 0.653165 0.018152 0.198574
H4    H     H_    0.422528 0.353493 0.978234 0.221296
H5    H     H_    0.502889 0.153165 0.981848 0.198574
H6    H     H_    0.577472 0.853493 0.021766 0.221296
H7    H     H_    0.997111 0.846835 0.481848 0.198574
H8    H     H_    0.922527 0.146507 0.521766 0.221297
O21   O     O_3   0.915992 0.500733 0.708177 -0.509935
C49   C     C_3   0.064552 0.490080 0.758090 0.173701
H9    H     H_    0.111684 0.544814 0.776044 0.189944
H10   H     H_    0.184497 0.458291 0.736109 0.067209
C50   C     C_3   0.997063 0.449884 0.825750 -0.537837
H11   H     H_    0.116172 0.439972 0.862779 0.142516
H12   H     H_    0.898255 0.483608 0.857333 0.247621
H13   H     H_    0.931977 0.396658 0.811155 0.228706
O22   O     O_3   0.898847 0.507425 0.289218 -0.536511
C51   C     C_3   0.980478 0.452184 0.245179 0.272749
H14   H     H_    0.879600 0.406700 0.236770 0.270278
H15   H     H_    0.106988 0.426936 0.269054 0.051201
C52   C     C_3   0.020470 0.483462 0.169691 -0.694211
H16   H     H_    0.048075 0.543610 0.171859 0.218525
H17   H     H_    0.142908 0.455195 0.145420 0.173669
H18   H     H_    0.899045 0.474376 0.133080 0.241499
O23   O     O_3   0.584008 0.499267 0.208177 -0.509935
C53   C     C_3   0.435449 0.509920 0.258090 0.173701
H19   H     H_    0.388316 0.455186 0.276044 0.189944
H20   H     H_    0.315503 0.541709 0.236109 0.067209
C54   C     C_3   0.502937 0.550115 0.325750 -0.537837
H21   H     H_    0.383827 0.560028 0.362779 0.142516
H22   H     H_    0.601744 0.516392 0.357334 0.247620
H23   H     H_    0.568024 0.603342 0.311155 0.228706
O24   O     O_3   0.601153 0.492575 0.789217 -0.536512
C55   C     C_3   0.519522 0.547816 0.745179 0.272749
H24   H     H_    0.620401 0.593300 0.736770 0.270278
H25   H     H_    0.393012 0.573064 0.769054 0.051206
C56   C     C_3   0.479530 0.516539 0.669691 -0.694211
H26   H     H_    0.451924 0.456391 0.671859 0.218525
H27   H     H_    0.357092 0.544806 0.645420 0.173674
H28   H     H_    0.600955 0.525625 0.633080 0.241499
O25   O     O_3   0.415993 0.999267 0.791823 -0.509935
C57   C     C_3   0.564552 0.009920 0.741910 0.173702
H29   H     H_    0.611685 0.955186 0.723956 0.189943
H30   H     H_    0.684497 0.041709 0.763891 0.067209
C58   C     C_3   0.497063 0.050116 0.674250 -0.537837
H31   H     H_    0.616173 0.060028 0.637221 0.142516
H32   H     H_    0.398256 0.016392 0.642667 0.247620
H33   H     H_    0.431976 0.103342 0.688845 0.228706
O26   O     O_3   0.398846 0.992575 0.210782 -0.536512
C59   C     C_3   0.480477 0.047816 0.254821 0.272749
H34   H     H_    0.379599 0.093300 0.263230 0.270278
H35   H     H_    0.606987 0.073064 0.230946 0.051206
C60   C     C_3   0.520469 0.016538 0.330309 -0.694212
H36   H     H_    0.548075 0.956390 0.328141 0.218525
H37   H     H_    0.642908 0.044806 0.354580 0.173674
H38   H     H_    0.399045 0.025624 0.366920 0.241499
O27   O     O_3   0.084007 0.000733 0.291822 -0.509935
C61   C     C_3   0.935448 0.990080 0.241910 0.173701
H39   H     H_    0.888315 0.044814 0.223956 0.189943
H40   H     H_    0.815503 0.958291 0.263891 0.067209
C62   C     C_3   0.002937 0.949884 0.174250 -0.537838
H41   H     H_    0.883827 0.939972 0.137221 0.142517
H42   H     H_    0.101744 0.983608 0.142667 0.247621
H43   H     H_    0.068024 0.896658 0.188845 0.228706
O28   O     O_3   0.101153 0.007425 0.710782 -0.536512
C63   C     C_3   0.019523 0.952184 0.754821 0.272749
H44   H     H_    0.120401 0.906700 0.763230 0.270278
H45   H     H_    0.893013 0.926936 0.730946 0.051206
C64   C     C_3   0.979530 0.983462 0.830309 -0.694212
H46   H     H_    0.951924 0.043610 0.828141 0.218525
H47   H     H_    0.857092 0.955194 0.854580 0.173672
H48   H     H_    0.100955 0.974376 0.866919 0.241499
S1    S     S_3+6 0.823551 0.367451 0.384111 0.061513
O29   O     O_2   0.664683 0.385220 0.333839 -0.282809
O30   O     O_2   0.739069 0.326577 0.447077 -0.291975
O31   O     O_3   0.976592 0.312282 0.340840 -0.424429
H49   H     H_    0.098368 0.320068 0.365823 0.362071
S2    S     S_3+6 0.999654 0.640393 0.620295 0.052938
O32   O     O_2   0.852235 0.683561 0.580137 -0.306217
O33   O     O_2   0.959546 0.646010 0.699934 -0.264903
O34   O     O_3   0.212214 0.677449 0.603287 -0.452857
H50   H     H_    0.279517 0.677290 0.650356 0.391331
S3    S     S_3+6 0.676450 0.632549 0.884111 0.061512
O35   O     O_2   0.835317 0.614779 0.833840 -0.282809
O36   O     O_2   0.760931 0.673423 0.947077 -0.291976
O37   O     O_3   0.523409 0.687718 0.840840 -0.424431
H51   H     H_    0.401634 0.679935 0.865826 0.362075
S4    S     S_3+6 0.500347 0.359607 0.120295 0.052939
O38   O     O_2   0.647766 0.316439 0.080136 -0.306217
O39   O     O_2   0.540455 0.353990 0.199934 -0.264902
O40   O     O_3   0.287787 0.322551 0.103287 -0.452853
H52   H     H_    0.220480 0.322713 0.150355 0.391325
S5    S     S_3+6 0.323550 0.132549 0.115889 0.061514
O41   O     O_2   0.164683 0.114779 0.166160 -0.282809
O42   O     O_2   0.239068 0.173423 0.052923 -0.291975
O43   O     O_3   0.476591 0.187718 0.159160 -0.424430
H53   H     H_    0.598365 0.179935 0.134174 0.362075
S6    S     S_3+6 0.499654 0.859607 0.879705 0.052939
O44   O     O_2   0.352235 0.816439 0.919863 -0.306217
O45   O     O_2   0.459546 0.853990 0.800066 -0.264902
O46   O     O_3   0.712214 0.822551 0.896713 -0.452855
H54   H     H_    0.779519 0.822712 0.849645 0.391328
S7    S     S_3+6 0.176450 0.867451 0.615889 0.061511
O47   O     O_2   0.335317 0.885221 0.666161 -0.282809
O48   O     O_2   0.260932 0.826577 0.552923 -0.291976
O49   O     O_3   0.023409 0.812282 0.659160 -0.424432
H55   H     H_    0.901634 0.820066 0.634174 0.362075
S8    S     S_3+6 0.000344 0.140393 0.379705 0.052942
O50   O     O_2   0.147761 0.183562 0.419864 -0.306215
O51   O     O_2   0.040454 0.146010 0.300066 -0.264902
O52   O     O_3   0.787783 0.177448 0.396712 -0.452857
H56   H     H_    0.720481 0.177290 0.349643 0.391331

loop_
_geom_bond_atom_site_label_1
_geom_bond_atom_site_label_2
_ccdc_geom_bond_type
C2    C12   S    
S5    O41   D    
S3    O36   D    
C58   H31   S    
C38   H5    S    
O40   H52   S    
C9    C34   A    
O14   V3    S    
C12   C35   A    
C57   H29   S    
S7    O48   D    
O5    C4    A    
O46   H54   S    
O6    C3    A    
O11   C3    A    
C54   H21   S    
C16   C39   A    
S6    O45   D    
C51   C52   S    
O20   V1    S    
O27   C61   S    
C56   H27   S    
S6    O44   D    
C9    C26   A    
C30   O25   S    
O23   C53   S    
C28   O23   S    
C38   C46   A    
C52   H17   S    
C22   C45   A    
O13   V4    S    
C35   C43   A    
C34   C42   A    
S7    O47   D    
C19   C44   A    
S2    O34   S    
C60   H38   S    
C8    C14   S    
O4    V1    S    
S8    O52   S    
O9    V1    S    
C14   C37   A    
C4    C10   S    
C20   C28   A    
O17   V4    S    
O15   C7    A    
O28   C63   S    
O11   V3    S    
O18   V3    S    
O16   C8    A    
O12   V4    S    
O19   V2    S    
C62   H42   S    
O12   C4    A    
C19   S3    S    
C17   C25   A    
S1    O30   D    
S8    O51   D    
S1    O29   D    
S7    O49   S    
O5    V1    S    
C39   H8    S    
C50   H12   S    
O17   V1    S    
O7    V3    S    
O19   V3    S    
C43   C44   A    
O8    V4    S    
S4    O40   S    
O49   H55   S    
O20   V4    S    
O31   H49   S    
C3    C9    S    
C64   H48   S    
C33   C41   A    
O16   V1    S    
C50   H11   S    
C34   H1    S    
O1    V4    S    
O21   C49   S    
C22   S6    S    
C11   C36   A    
C64   H47   S    
S4    O39   D    
C33   H2    S    
O3    V2    S    
C61   H40   S    
O52   H56   S    
C15   C40   A    
C18   C41   A    
C62   H41   S    
O10   V2    S    
C51   H15   S    
C15   C32   A    
C5    C15   S    
C37   H6    S    
C27   O24   S    
O7    C2    A    
C6    C16   S    
C22   C30   A    
O13   C5    A    
C52   H16   S    
O26   C59   S    
C12   C27   A    
C63   H45   S    
C18   C26   A    
C62   H43   S    
C13   C30   A    
O9    C1    A    
O43   H53   S    
O6    V2    S    
C39   C47   A    
C53   H19   S    
C52   H18   S    
C49   H10   S    
O37   H51   S    
C20   S4    S    
C40   H7    S    
S2    O33   D    
C56   H28   S    
C61   C62   S    
C24   C47   A    
C59   H35   S    
C49   C50   S    
C24   S8    S    
S1    O31   S    
S8    O50   D    
O15   V2    S    
C23   C31   A    
O25   C57   S    
C54   H22   S    
C50   H13   S    
C37   C45   A    
C24   C32   A    
C10   C25   A    
C21   C46   A    
C32   O27   S    
C25   O22   S    
C20   C43   A    
C63   C64   S    
C16   C31   A    
C57   H30   S    
O18   V2    S    
C17   C42   A    
S5    O43   S    
C53   C54   S    
O24   C55   S    
C36   H3    S    
C53   H20   S    
O8    C1    A    
C31   O28   S    
S4    O38   D    
O14   C6    A    
C59   C60   S    
C58   H32   S    
C61   H39   S    
C59   H34   S    
C47   C48   A    
C41   C42   A    
C7    C13   S    
C64   H46   S    
O4    C5    A    
C11   C28   A    
C19   C27   A    
C51   H14   S    
C60   H36   S    
C14   C29   A    
C55   H25   S    
O10   C2    A    
C10   C33   A    
S3    O37   S    
C58   H33   S    
O2    C7    A    
C40   C48   A    
C45   C46   A    
C18   S2    S    
C23   C48   A    
C57   C58   S    
C63   H44   S    
C21   C29   A    
C17   S1    S    
C36   C44   A    
O1    C8    A    
S5    O42   D    
C49   H9    S    
C55   H24   S    
S3    O35   D    
C60   H37   S    
C13   C38   A    
S2    O32   D    
O2    V3    S    
O3    C6    A    
C29   O26   S    
C54   H23   S    
C1    C11   S    
O22   C51   S    
C56   H26   S    
C21   S5    S    
C35   H4    S    
C55   C56   S    
C23   S7    S    
C26   O21   S    
O34   H50   S    
S6    O46   S    
