data_mof_unit_59686.cif
_audit_creation_date              2012-12-10T18:35:24-0500
_audit_creation_method            fapswitch 2.2
_symmetry_space_group_name_H-M    P1
_symmetry_Int_Tables_number       1
_space_group_crystal_system       triclinic
_cell_length_a                    15.126848
_cell_length_b                    13.823034
_cell_length_c                    10.793696
_cell_angle_alpha                 89.658646
_cell_angle_beta                  90.029221
_cell_angle_gamma                 90.096062
_cell_volume                      2256.90682077

loop_
_atom_site_label
_atom_site_type_symbol
_atom_type_description
_atom_site_fract_x
_atom_site_fract_y
_atom_site_fract_z
_atom_type_partial_charge
C1    C     C_R   0.329821 0.499957 0.500317 0.764374
C2    C     C_R   0.670174 0.500067 0.500239 0.764975
C3    C     C_R   0.048534 0.500176 0.502446 0.101726
C4    C     C_R   0.951448 0.500342 0.502476 0.101875
C5    C     C_R   0.560843 0.106436 0.570644 0.336553
C6    C     C_R   0.429033 0.892532 0.552080 0.327116
C7    C     C_R   0.438459 0.108170 0.426053 0.349320
C8    C     C_R   0.569269 0.893823 0.443557 0.320163
C9    C     C_R   0.560412 0.208539 0.568831 -0.052299
C10   C     C_R   0.430988 0.790241 0.550903 -0.056435
C11   C     C_R   0.439202 0.210147 0.430613 -0.046190
C12   C     C_R   0.568542 0.791140 0.447863 -0.084119
C13   C     C_R   0.499139 0.054587 0.498406 -0.005411
C14   C     C_R   0.498909 0.945430 0.497590 -0.003063
C15   C     C_R   0.499784 0.500259 0.262676 0.797339
C16   C     C_R   0.499879 0.499804 0.737276 0.803404
C17   C     C_R   0.347181 0.564551 0.127984 -0.154203
C18   C     C_R   0.652887 0.437131 0.871698 -0.158952
C19   C     C_R   0.347236 0.564097 0.870088 -0.154067
C20   C     C_R   0.653425 0.439196 0.129572 -0.151094
C21   C     C_R   0.272873 0.595909 0.062916 -0.139850
C22   C     C_R   0.727818 0.407565 0.936640 -0.143989
C23   C     C_R   0.272913 0.595696 0.934216 -0.147475
C24   C     C_R   0.728115 0.408679 0.065332 -0.137435
C25   C     C_R   0.423971 0.532765 0.934257 0.072452
C26   C     C_R   0.576083 0.468726 0.065523 0.067975
C27   C     C_R   0.424008 0.533170 0.064732 0.066382
C28   C     C_R   0.575877 0.467860 0.935068 0.071542
C29   C     C_R   0.499739 0.499618 0.870921 -0.185400
C30   C     C_R   0.499969 0.500830 0.128943 -0.190158
C31   C     C_R   0.095473 0.582311 0.541073 -0.169249
C32   C     C_R   0.904621 0.417993 0.541841 -0.169201
C33   C     C_R   0.905045 0.582685 0.462637 -0.168762
C34   C     C_R   0.094816 0.417898 0.463431 -0.167898
C35   C     C_R   0.187348 0.582387 0.539848 -0.194760
C36   C     C_R   0.812753 0.417726 0.540478 -0.195508
C37   C     C_R   0.813173 0.582756 0.462593 -0.178727
C38   C     C_R   0.186685 0.417609 0.463487 -0.178760
C39   C     C_R   0.233390 0.499973 0.501209 -0.030291
C40   C     C_R   0.766598 0.500175 0.501043 -0.030488
Cu1   Cu    Cu3+1 0.500000 0.596430 0.500000 0.934002
Cu2   Cu    Cu3+1 0.500000 0.403570 0.500000 0.937508
H1    H     H_    0.786620 0.386374 0.115681 0.139170
H2    H     H_    0.215000 0.619672 0.883751 0.139375
H3    H     H_    0.786070 0.384360 0.886800 0.136623
H4    H     H_    0.214871 0.619969 0.112634 0.140162
H5    H     H_    0.343335 0.564818 0.228000 0.137477
H6    H     H_    0.656518 0.436309 0.771677 0.129053
H7    H     H_    0.343403 0.564039 0.770071 0.129390
H8    H     H_    0.657491 0.440111 0.229565 0.136780
H9    H     H_    0.061178 0.646028 0.573506 0.128253
H10   H     H_    0.939009 0.354223 0.574927 0.131391
H11   H     H_    0.939748 0.646500 0.429979 0.128297
H12   H     H_    0.059998 0.354269 0.431355 0.131025
H13   H     H_    0.222297 0.646367 0.570605 0.136207
H14   H     H_    0.777879 0.353579 0.571792 0.148397
H15   H     H_    0.778607 0.646799 0.430888 0.137023
H16   H     H_    0.221117 0.353527 0.432408 0.150009
H17   H     H_    0.608555 0.247736 0.623236 0.149213
H18   H     H_    0.376964 0.749915 0.591325 0.145055
H19   H     H_    0.391506 0.250738 0.376801 0.147944
H20   H     H_    0.622990 0.751089 0.409098 0.149820
N1    N     N_R   0.500000 0.258690 0.500000 -0.215645
N2    N     N_R   0.500000 0.741310 0.500000 -0.207186
O1    O     O_R   0.371460 0.581430 0.500010 -0.596256
O2    O     O_R   0.628540 0.418570 0.499990 -0.590115
O3    O     O_R   0.628540 0.581430 0.499990 -0.584408
O4    O     O_R   0.371460 0.418570 0.500010 -0.579938
O5    O     O_R   0.499990 0.581440 0.319660 -0.573210
O6    O     O_R   0.500010 0.418560 0.680340 -0.576750
O7    O     O_R   0.500010 0.581440 0.680340 -0.573031
O8    O     O_R   0.499990 0.418560 0.319660 -0.578384
O9    O     O_3   0.625065 0.057904 0.637384 -0.578165
C41   C     C_3   0.591861 0.033084 0.755872 0.035599
H21   H     H_    0.518435 0.025275 0.758699 0.125098
H22   H     H_    0.611214 0.090405 0.822496 0.152527
C42   C     C_3   0.632553 0.936743 0.796265 -0.286846
H23   H     H_    0.614528 0.879965 0.728191 0.221986
H24   H     H_    0.705769 0.943603 0.798061 0.227466
C43   C     C_3   0.600265 0.905555 0.924300 -0.970051
H25   H     H_    0.619117 0.960288 0.994340 0.250450
H26   H     H_    0.630873 0.835323 0.949939 0.267801
H27   H     H_    0.527394 0.896287 0.924467 0.254492
O10   O     O_3   0.357055 0.941077 0.600747 -0.579331
C44   C     C_3   0.351339 0.925892 0.730469 0.028421
H28   H     H_    0.352333 0.998042 0.775095 0.164426
H29   H     H_    0.407343 0.883718 0.771196 0.120122
C45   C     C_3   0.263908 0.876001 0.762756 -0.323250
H30   H     H_    0.207960 0.920886 0.728651 0.232909
H31   H     H_    0.260335 0.804454 0.716808 0.199419
C46   C     C_3   0.254686 0.861265 0.902450 -0.928430
H32   H     H_    0.309840 0.816160 0.938485 0.265318
H33   H     H_    0.191312 0.823832 0.922939 0.255452
H34   H     H_    0.254985 0.932128 0.950457 0.260456
O11   O     O_3   0.376905 0.061742 0.352534 -0.583684
C47   C     C_3   0.415713 0.038087 0.237186 0.054027
H35   H     H_    0.388680 0.966889 0.208372 0.169282
H36   H     H_    0.489096 0.029312 0.240901 0.127148
C48   C     C_3   0.390917 0.113759 0.138970 -0.337285
H37   H     H_    0.317777 0.116970 0.129984 0.227447
H38   H     H_    0.415269 0.186147 0.167349 0.214415
C49   C     C_3   0.431112 0.089240 0.013536 -0.956531
H39   H     H_    0.504360 0.092071 0.019016 0.259008
H40   H     H_    0.408688 0.142476 0.942831 0.261351
H41   H     H_    0.410166 0.015812 0.984546 0.249738
O12   O     O_3   0.640692 0.945326 0.396139 -0.578136
C50   C     C_3   0.663177 0.915522 0.274833 0.032666
H42   H     H_    0.662860 0.980838 0.214400 0.156394
H43   H     H_    0.615509 0.863646 0.232222 0.123721
C51   C     C_3   0.756687 0.873411 0.275111 -0.318990
H44   H     H_    0.804424 0.930367 0.303460 0.230436
H45   H     H_    0.761014 0.813164 0.343234 0.203917
C52   C     C_3   0.782428 0.835820 0.147555 -0.929673
H46   H     H_    0.737330 0.776346 0.119470 0.259008
H47   H     H_    0.850969 0.807291 0.150756 0.257582
H48   H     H_    0.779444 0.895075 0.077714 0.263622

loop_
_geom_bond_atom_site_label_1
_geom_bond_atom_site_label_2
_ccdc_geom_bond_type
Cu1   Cu2   S    
C10   H18   S    
O11   C47   S    
Cu1   O3    S    
C42   H23   S    
C7    C11   A    
C15   O8    A    
C41   H22   S    
C49   H41   S    
C32   C36   A    
C28   C29   A    
C52   H46   S    
C37   C40   A    
C11   N1    A    
C38   C39   A    
C12   N2    A    
C42   C43   S    
C6    C14   A    
O12   C50   S    
C47   C48   S    
Cu2   O6    S    
C1    O4    A    
C25   C29   A    
O9    C41   S    
C51   H44   S    
C32   H10   S    
C20   H8    S    
C38   H16   S    
C20   C24   A    
C41   C42   S    
C47   H36   S    
C1    O1    A    
C50   H42   S    
C5    C13   A    
Cu1   O7    S    
C52   H48   S    
C42   H24   S    
C9    N1    A    
C13   C14   S    
C27   C30   A    
Cu2   O4    S    
C50   H43   S    
C16   O7    A    
C43   H27   S    
C44   H29   S    
C33   H11   S    
C15   O5    A    
C6    O10   S    
C41   H21   S    
C35   H13   S    
C17   C27   A    
C36   C40   A    
C18   C28   A    
O10   C44   S    
C43   H26   S    
C2    O3    A    
C46   H32   S    
Cu1   O1    S    
C3    C34   A    
C11   H19   S    
C16   C29   S    
C44   H28   S    
C33   C37   A    
C23   H2    S    
C8    O12   S    
C9    H17   S    
C19   C23   A    
C5    C9    A    
C36   H14   S    
C46   H33   S    
C12   H20   S    
C19   H7    S    
C48   H37   S    
C45   C46   S    
C8    C12   A    
C47   H35   S    
C48   C49   S    
Cu2   O8    S    
C16   O6    A    
C49   H40   S    
C51   C52   S    
C4    C32   A    
C48   H38   S    
C45   H31   S    
C26   C30   A    
C21   C23   A    
C50   C51   S    
C31   C35   A    
C3    C4    S    
C15   C30   S    
Cu1   O5    S    
C21   H4    S    
C44   C45   S    
C4    C33   A    
C8    C14   A    
C34   C38   A    
C10   N2    A    
C17   H5    S    
C31   H9    S    
C43   H25   S    
C2    O2    A    
C18   H6    S    
C6    C10   A    
C34   H12   S    
C25   C27   A    
C7    O11   S    
C26   C28   A    
C18   C22   A    
C3    C31   A    
C20   C26   A    
C35   C39   A    
C22   C24   A    
C5    O9    S    
C49   H39   S    
C19   C25   A    
C51   H45   S    
C1    C39   S    
C2    C40   S    
C7    C13   A    
C22   H3    S    
C45   H30   S    
Cu2   O2    S    
C24   H1    S    
Cu1   N2    S    
C52   H47   S    
Cu2   N1    S    
C37   H15   S    
C46   H34   S    
C17   C21   A    
