data_mof_unit_46004.cif
_audit_creation_date              2012-12-10T19:04:44-0500
_audit_creation_method            fapswitch 2.2
_symmetry_space_group_name_H-M    P1
_symmetry_Int_Tables_number       1
_space_group_crystal_system       triclinic
_cell_length_a                    15.834217
_cell_length_b                    10.921654
_cell_length_c                    9.626123
_cell_angle_alpha                 92.013326
_cell_angle_beta                  91.001716
_cell_angle_gamma                 94.485047
_cell_volume                      1658.23754813

loop_
_atom_site_label
_atom_site_type_symbol
_atom_type_description
_atom_site_fract_x
_atom_site_fract_y
_atom_site_fract_z
_atom_type_partial_charge
C1    C     C_R   0.500719 0.262695 0.497194 0.900993
C2    C     C_3   0.082909 0.495886 0.498408 -0.119810
C3    C     C_3   0.977190 0.609102 0.492147 0.406485
C4    C     C_3   0.916087 0.493648 0.501930 -0.161004
C5    C     C_3   0.028214 0.543153 0.380361 -0.270870
C6    C     C_3   0.966708 0.427048 0.392313 0.214714
C7    C     C_1   0.174606 0.497153 0.497024 0.140063
C8    C     C_1   0.824520 0.493752 0.503141 0.202673
C9    C     C_R   0.515791 0.068446 0.610420 -0.005142
C10   C     C_R   0.497073 0.129094 0.491529 -0.197194
C11   C     C_R   0.468073 0.054625 0.373136 0.333716
C12   C     C_R   0.340001 0.499306 0.498949 0.875411
C13   C     C_R   0.451023 0.926032 0.384992 0.323418
C14   C     C_R   0.483026 0.867921 0.503173 -0.220062
C15   C     C_R   0.510518 0.944774 0.615849 -0.007395
C16   C     C_3   0.545013 0.949608 0.761271 -0.440382
C17   C     C_3   0.551272 0.090101 0.754135 0.232691
C18   C     C_R   0.566682 0.556997 0.077874 0.086136
C19   C     C_R   0.439536 0.431719 0.071267 0.420886
C20   C     C_R   0.440126 0.426501 0.922321 0.361300
C21   C     C_R   0.566752 0.556008 0.930836 0.115416
C22   C     C_3   0.600302 0.687150 0.927278 0.131081
C23   C     C_R   0.493840 0.736275 0.501698 0.919050
C24   C     C_3   0.597104 0.691251 0.087009 0.130096
C25   C     C_R   0.659664 0.496908 0.500898 0.886524
C26   C     C_3   0.971625 0.447137 0.618187 0.311447
C27   C     C_3   0.022353 0.379713 0.508225 0.335172
C28   C     C_1   0.250236 0.498163 0.497041 -0.012282
C29   C     C_1   0.749093 0.494716 0.502834 0.022712
C30   C     C_3   0.033334 0.563809 0.610037 -0.243551
Cu1   Cu    Cu3+1 0.500000 0.499980 0.640670 1.100399
Cu2   Cu    Cu3+1 0.500000 0.500020 0.359330 1.128879
H1    H     H_    0.607294 0.910753 0.768519 0.256208
H2    H     H_    0.508356 0.136054 0.825684 0.177216
H3    H     H_    0.552140 0.740865 0.880233 0.077292
H4    H     H_    0.547178 0.748030 0.125478 0.152410
H5    H     H_    0.052058 0.582670 0.282459 0.220258
H6    H     H_    0.061553 0.620517 0.699607 0.222807
H7    H     H_    0.496573 0.915976 0.836016 0.210844
N1    N     N_R   0.500530 0.500930 0.147930 -0.270298
N2    N     N_R   0.500530 0.500890 0.852020 -0.293181
O1    O     O_R   0.500000 0.319640 0.618810 -0.545914
O2    O     O_R   0.500010 0.319680 0.381230 -0.530563
O3    O     O_R   0.379070 0.499970 0.618770 -0.549802
O4    O     O_R   0.379080 0.500010 0.381190 -0.518978
O5    O     O_R   0.499990 0.680320 0.618770 -0.583762
O6    O     O_R   0.500000 0.680360 0.381190 -0.543379
O7    O     O_R   0.620920 0.499990 0.618810 -0.507180
O8    O     O_R   0.620930 0.500030 0.381230 -0.542224
Cl1   Cl    Cl    0.053723 0.227067 0.519081 -0.357053
S1    S     S_3+6 0.658514 0.156867 0.759129 0.094042
O9    O     O_2   0.658574 0.293676 0.780754 -0.211225
O10   O     O_2   0.706332 0.106931 0.878075 -0.155180
O11   O     O_3   0.706903 0.125444 0.609258 -0.469565
H8    H     H_    0.710686 0.035288 0.606560 0.374190
Cl2   Cl    Cl    0.356184 0.351772 0.158961 -0.388697
S2    S     S_3+6 0.355743 0.322403 0.843258 0.085108
O12   O     O_2   0.355398 0.289108 0.691419 -0.278839
O13   O     O_2   0.354775 0.202483 0.915652 -0.207899
O14   O     O_3   0.264204 0.385514 0.876032 -0.496905
H9    H     H_    0.219310 0.317937 0.859349 0.407006
S3    S     S_3+6 0.701417 0.704243 0.841864 0.106922
O15   O     O_2   0.756301 0.812334 0.901078 -0.158405
O16   O     O_2   0.747439 0.589642 0.853974 -0.172707
O17   O     O_3   0.684341 0.730386 0.673147 -0.564424
H10   H     H_    0.741243 0.751940 0.635695 0.387686
S4    S     S_3+6 0.693582 0.729716 0.186862 0.115186
O18   O     O_2   0.675057 0.727775 0.338984 -0.312887
O19   O     O_2   0.758838 0.640844 0.153619 -0.173059
O20   O     O_3   0.731430 0.873991 0.155361 -0.416169
H11   H     H_    0.784028 0.887964 0.212873 0.413924
Cl3   Cl    Cl    0.933081 0.384004 0.775307 -0.342566
S5    S     S_3+6 0.921816 0.336755 0.247557 0.154428
O21   O     O_2   0.863852 0.233427 0.299278 -0.160249
O22   O     O_2   0.872079 0.415196 0.156429 -0.173905
O23   O     O_3   0.999395 0.278195 0.155441 -0.391042
H12   H     H_    0.036540 0.350550 0.129104 0.358924
Cl4   Cl    Cl    0.945758 0.761575 0.481453 -0.425508
Cl5   Cl    Cl    0.458055 0.114673 0.206371 -0.407299
S6    S     S_3+6 0.371208 0.850813 0.272036 0.076865
O24   O     O_2   0.335292 0.732680 0.330221 -0.323382
O25   O     O_2   0.300504 0.933880 0.256813 -0.156280
O26   O     O_3   0.410030 0.823633 0.113658 -0.540142
H13   H     H_    0.365774 0.768586 0.064242 0.375785

loop_
_geom_bond_atom_site_label_1
_geom_bond_atom_site_label_2
_ccdc_geom_bond_type
C19   Cl2   S    
Cu1   O1    S    
C5    H5    S    
C18   C21   A    
C26   Cl3   S    
Cu2   O4    S    
C2    C7    S    
C4    C8    S    
C17   S1    S    
C20   N2    A    
C22   H3    S    
C26   C27   S    
C24   H4    S    
C12   C28   S    
C18   C24   S    
C8    C29   T    
C5    C6    S    
S2    O13   D    
C15   C16   S    
C30   H6    S    
S5    O21   D    
C18   N1    A    
S3    O16   D    
C24   S4    S    
C1    O2    A    
C6    C27   S    
C16   C17   S    
Cu1   O5    S    
O20   H11   S    
C9    C10   A    
C27   Cl1   S    
C13   S6    S    
C23   O5    A    
C13   C14   A    
S5    O22   D    
S6    O26   S    
C25   C29   S    
C23   O6    A    
Cu1   O3    S    
S4    O18   D    
O23   H12   S    
C4    C6    S    
C19   N1    A    
S6    O24   D    
S2    O14   S    
C7    C28   T    
S1    O9    D    
O14   H9    S    
S4    O19   D    
C14   C23   S    
C3    C30   S    
S3    O15   D    
C16   H1    S    
C22   S3    S    
O26   H13   S    
C25   O7    A    
C2    C27   S    
C11   Cl5   S    
C21   N2    A    
S6    O25   D    
C26   C30   S    
Cu1   O7    S    
S5    O23   S    
C22   C24   S    
C2    C5    S    
C17   H2    S    
C3    C4    S    
C6    S5    S    
C9    C17   S    
O11   H8    S    
Cu1   N2    S    
S3    O17   S    
Cu1   Cu2   S    
C1    C10   S    
C12   O4    A    
C3    C5    S    
C4    C26   S    
C2    C30   S    
S4    O20   S    
S1    O11   S    
C19   C20   A    
C9    C15   A    
C12   O3    A    
C11   C13   A    
S2    O12   D    
Cu2   O6    S    
Cu2   O2    S    
Cu2   N1    S    
C25   O8    A    
Cu2   O8    S    
C10   C11   A    
C16   H7    S    
C1    O1    A    
O17   H10   S    
C14   C15   A    
S1    O10   D    
C20   S2    S    
C21   C22   S    
C3    Cl4   S    
