data_mof_unit_37201.cif
_audit_creation_date              2012-10-26T18:40:19-0400
_audit_creation_method            fapswitch 2.2
_symmetry_space_group_name_H-M    P1
_symmetry_Int_Tables_number       1
_space_group_crystal_system       triclinic
_cell_length_a                    8.721416
_cell_length_b                    15.157352
_cell_length_c                    13.958039
_cell_angle_alpha                 88.57399
_cell_angle_beta                  97.226224
_cell_angle_gamma                 91.968974
_cell_volume                      1829.03302263

loop_
_atom_site_label
_atom_site_type_symbol
_atom_type_description
_atom_site_fract_x
_atom_site_fract_y
_atom_site_fract_z
_atom_type_partial_charge
C1    C     C_R   0.503351 0.329645 0.501708 0.535280
C2    C     C_R   0.615050 0.547336 0.897802 -0.104546
C3    C     C_R   0.493256 0.505279 0.054201 0.023737
C4    C     C_R   0.507045 0.496143 0.945579 -0.006654
C5    C     C_R   0.204127 0.499619 0.475499 0.542668
C6    C     C_R   0.795874 0.500534 0.524489 0.544415
C7    C     C_2   0.038595 0.498291 0.461939 -0.154609
C8    C     C_2   0.961405 0.502114 0.538006 -0.155081
C9    C     C_R   0.532652 0.088661 0.585890 -0.099974
C10   C     C_R   0.399754 0.904548 0.427930 -0.103008
C11   C     C_R   0.536157 0.180760 0.591790 -0.010205
C12   C     C_R   0.497480 0.669494 0.498570 0.533587
C13   C     C_R   0.393003 0.812199 0.427544 -0.013198
C14   C     C_R   0.508734 0.232236 0.504511 0.018860
C15   C     C_R   0.496369 0.765394 0.495235 0.027329
C16   C     C_R   0.485098 0.188977 0.415517 -0.137772
C17   C     C_R   0.604284 0.810915 0.560095 -0.133956
C18   C     C_R   0.486442 0.097680 0.411634 -0.127064
C19   C     C_R   0.611358 0.902367 0.558526 -0.121250
C20   C     C_R   0.509188 0.046887 0.496754 0.019879
C21   C     C_R   0.507813 0.949948 0.493524 0.019463
C22   C     C_3   0.572812 0.218713 0.692168 -0.240038
C23   C     C_R   0.583279 0.567631 0.113255 0.028278
C24   C     C_3   0.738470 0.257824 0.709089 -0.274446
C25   C     C_3   0.772544 0.297274 0.809366 -0.410616
C26   C     C_3   0.271177 0.766332 0.357200 -0.243657
C27   C     C_3   0.327821 0.758436 0.258107 -0.287368
C28   C     C_3   0.217245 0.700333 0.191417 -0.403157
C29   C     C_2   0.624018 0.656708 0.074770 0.177437
C30   C     C_2   0.391563 0.342094 0.929437 0.185487
C31   C     C_2   0.729228 0.604219 0.272937 0.208910
C32   C     C_2   0.268192 0.398751 0.727959 0.312349
C33   C     C_R   0.419680 0.432084 0.887532 0.010824
C34   C     C_R   0.600847 0.555412 0.215175 0.140043
C35   C     C_R   0.400070 0.444522 0.785357 0.166500
C36   C     C_R   0.389329 0.452854 0.202548 0.019269
C37   C     C_R   0.610090 0.547965 0.796840 0.035620
C38   C     C_R   0.384178 0.454449 0.101455 -0.175896
Cu1   Cu    Cu3+1 0.500000 0.499990 0.596430 0.930677
Cu2   Cu    Cu3+1 0.500000 0.500010 0.403570 0.923934
H1    H     H_    0.979961 0.493511 0.388745 0.174860
H2    H     H_    0.694209 0.587765 0.762848 0.139653
H3    H     H_    0.290323 0.417597 0.061564 0.126227
H4    H     H_    0.708614 0.584836 0.936882 0.133899
H5    H     H_    0.696018 0.353169 0.815904 0.155703
H6    H     H_    0.754655 0.246497 0.865988 0.149955
H7    H     H_    0.894368 0.322090 0.821398 0.219521
H8    H     H_    0.821461 0.204817 0.702849 0.167740
H9    H     H_    0.757396 0.309916 0.654139 0.201996
H10   H     H_    0.486310 0.266862 0.705985 0.173306
H11   H     H_    0.562439 0.166073 0.748191 0.142755
H12   H     H_    0.020033 0.506988 0.611176 0.170313
H13   H     H_    0.209297 0.632483 0.222791 0.196276
H14   H     H_    0.260740 0.696363 0.120276 0.180509
H15   H     H_    0.100349 0.728594 0.180332 0.177028
H16   H     H_    0.337355 0.825206 0.224165 0.161242
H17   H     H_    0.444125 0.729449 0.266210 0.179875
H18   H     H_    0.238751 0.700164 0.385735 0.176450
H19   H     H_    0.163273 0.804339 0.348900 0.136030
H20   H     H_    0.727891 0.692695 0.104619 0.146154
H21   H     H_    0.456315 0.322417 0.997672 0.104263
H22   H     H_    0.713717 0.637674 0.337850 0.158081
H23   H     H_    0.548398 0.048841 0.651718 0.108843
H24   H     H_    0.280224 0.366289 0.661737 0.136090
H25   H     H_    0.317795 0.940889 0.378516 0.105823
H26   H     H_    0.465021 0.225737 0.347807 0.134889
H27   H     H_    0.685203 0.775420 0.611111 0.120940
H28   H     H_    0.470406 0.066860 0.341760 0.111016
H29   H     H_    0.698289 0.935875 0.608219 0.113975
H30   H     H_    0.304538 0.413188 0.236091 0.138127
N1    N     N_R   0.500000 0.500020 0.258690 -0.253719
N2    N     N_R   0.500000 0.499980 0.741310 -0.273029
O1    O     O_R   0.500010 0.371450 0.581430 -0.542226
O2    O     O_2   0.302032 0.287717 0.888009 -0.494787
O3    O     O_2   0.858085 0.607395 0.247197 -0.588035
O4    O     O_2   0.140492 0.397372 0.755209 -0.527801
O5    O     O_R   0.499990 0.628550 0.418570 -0.540929
O6    O     O_R   0.500010 0.371460 0.418560 -0.499555
O7    O     O_R   0.499990 0.628540 0.581440 -0.489157
O8    O     O_R   0.274840 0.499990 0.562640 -0.511810
O9    O     O_R   0.725160 0.500010 0.437360 -0.502992
O10   O     O_R   0.274840 0.500000 0.399770 -0.501856
O11   O     O_R   0.725160 0.500000 0.600230 -0.502062
O12   O     O_2   0.536344 0.693003 0.011962 -0.515633

loop_
_geom_bond_atom_site_label_1
_geom_bond_atom_site_label_2
_ccdc_geom_bond_type
Cu2   N1    S    
C3    C23   A    
C7    C8    D    
C26   C27   S    
C23   C29   S    
C19   C21   A    
C30   O2    D    
C11   C14   A    
C18   H28   S    
C12   O7    A    
C37   H2    S    
C17   C19   A    
C3    C38   A    
C2    H4    S    
Cu1   N2    S    
C29   H20   S    
C14   C16   A    
C26   H19   S    
C25   H7    S    
C36   N1    A    
C22   H10   S    
C7    H1    S    
C6    O9    A    
C1    O6    A    
C31   H22   S    
C28   H15   S    
C36   H30   S    
C10   C21   A    
C17   H27   S    
C30   H21   S    
C24   H8    S    
C32   C35   S    
Cu2   O10   S    
C24   C25   S    
C32   H24   S    
C29   O12   D    
C27   H17   S    
Cu1   Cu2   S    
C5    C7    S    
C28   H14   S    
C27   H16   S    
C6    C8    S    
Cu1   O7    S    
C2    C4    A    
C9    C11   A    
C9    C20   A    
C31   O3    D    
C12   C15   S    
C23   C34   A    
C12   O5    A    
C31   C34   S    
C5    O8    A    
C26   H18   S    
Cu2   O6    S    
C35   N2    A    
C13   C15   A    
C22   C24   S    
C13   C26   S    
C19   H29   S    
C16   H26   S    
C3    C4    S    
C25   H5    S    
C10   H25   S    
C24   H9    S    
C15   C17   A    
C8    H12   S    
C4    C33   A    
C6    O11   A    
C30   C33   S    
C9    H23   S    
Cu2   O9    S    
C10   C13   A    
C32   O4    D    
C28   H13   S    
C11   C22   S    
C1    O1    A    
Cu1   O8    S    
C36   C38   A    
Cu1   O11   S    
C38   H3    S    
C5    O10   A    
C2    C37   A    
C34   N1    A    
C33   C35   A    
C18   C20   A    
Cu1   O1    S    
C20   C21   S    
C16   C18   A    
C37   N2    A    
C27   C28   S    
Cu2   O5    S    
C1    C14   S    
C25   H6    S    
C22   H11   S    
