data_mof_unit_25037.cif
_audit_creation_date              2013-03-05T15:59:05-0500
_audit_creation_method            fapswitch 2.2
_symmetry_space_group_name_H-M    P1
_symmetry_Int_Tables_number       1
_space_group_crystal_system       triclinic
_cell_length_a                    18.379443
_cell_length_b                    18.339799
_cell_length_c                    25.785717
_cell_angle_alpha                 90.034697
_cell_angle_beta                  89.979628
_cell_angle_gamma                 89.960133
_cell_volume                      8691.7237962

loop_
_atom_site_label
_atom_site_type_symbol
_atom_site_description
_atom_site_fract_x
_atom_site_fract_y
_atom_site_fract_z
_atom_type_partial_charge
Zn1   Zn    Zn3+2 1.000000 0.913250 0.293350 0.982749
Zn2   Zn    Zn3+2 1.000000 0.913250 0.706650 0.996291
Zn3   Zn    Zn3+2 0.500000 0.413250 0.793350 1.013571
Zn4   Zn    Zn3+2 0.500000 0.413250 0.206650 0.993435
Zn5   Zn    Zn3+2 0.913230 0.999990 0.206580 1.003588
Zn6   Zn    Zn3+2 0.086770 0.999990 0.793420 0.978933
Zn7   Zn    Zn3+2 0.086770 0.999990 0.206580 0.963569
Zn8   Zn    Zn3+2 0.913230 0.999990 0.793420 1.004164
Zn9   Zn    Zn3+2 0.413230 0.499990 0.706580 0.985208
Zn10  Zn    Zn3+2 0.586770 0.499990 0.293420 1.007569
Zn11  Zn    Zn3+2 0.586770 0.499990 0.706580 0.998873
Zn12  Zn    Zn3+2 0.413230 0.499990 0.293420 0.966233
Zn13  Zn    Zn3+2 0.000000 0.086780 0.293330 1.016948
Zn14  Zn    Zn3+2 0.000000 0.086780 0.706670 1.011564
Zn15  Zn    Zn3+2 0.500000 0.586780 0.793330 1.010359
Zn16  Zn    Zn3+2 0.500000 0.586780 0.206670 1.012049
O1    O     O_3   0.000000 0.000000 0.249960 -0.511442
O2    O     O_3   0.000000 0.000000 0.750040 -0.511956
O3    O     O_3   0.500000 0.500000 0.749960 -0.512732
O4    O     O_3   0.500000 0.500000 0.250040 -0.510621
O5    O     O_R   0.914520 0.146190 0.280310 -0.618439
O6    O     O_R   0.085480 0.146190 0.719690 -0.612887
O7    O     O_R   0.085480 0.146190 0.280310 -0.595947
O8    O     O_R   0.914520 0.146190 0.719690 -0.624845
O9    O     O_R   0.414520 0.646190 0.780310 -0.595257
O10   O     O_R   0.585480 0.646190 0.219690 -0.593820
O11   O     O_R   0.585480 0.646190 0.780310 -0.624406
O12   O     O_R   0.414520 0.646190 0.219690 -0.615695
O13   O     O_R   0.085470 0.853840 0.280350 -0.644036
O14   O     O_R   0.914530 0.853840 0.719650 -0.633645
O15   O     O_R   0.914530 0.853840 0.280350 -0.636492
O16   O     O_R   0.085470 0.853840 0.719650 -0.638531
O17   O     O_R   0.585470 0.353840 0.780350 -0.637031
O18   O     O_R   0.414530 0.353840 0.219650 -0.634768
O19   O     O_R   0.414530 0.353840 0.780350 -0.631728
O20   O     O_R   0.585470 0.353840 0.219650 -0.646824
O21   O     O_R   0.853820 0.914550 0.219610 -0.636605
O22   O     O_R   0.146180 0.914550 0.780390 -0.652700
O23   O     O_R   0.146180 0.914550 0.219610 -0.655798
O24   O     O_R   0.853820 0.914550 0.780390 -0.640102
O25   O     O_R   0.353820 0.414550 0.719610 -0.652251
O26   O     O_R   0.646180 0.414550 0.280390 -0.638263
O27   O     O_R   0.646180 0.414550 0.719610 -0.643488
O28   O     O_R   0.353820 0.414550 0.280390 -0.643550
O29   O     O_R   0.146180 0.085440 0.219600 -0.612642
O30   O     O_R   0.853820 0.085440 0.780400 -0.619123
O31   O     O_R   0.853820 0.085440 0.219600 -0.619116
O32   O     O_R   0.146180 0.085440 0.780400 -0.606058
O33   O     O_R   0.646180 0.585440 0.719600 -0.620572
O34   O     O_R   0.353820 0.585440 0.280400 -0.627135
O35   O     O_R   0.353820 0.585440 0.719600 -0.601118
O36   O     O_R   0.646180 0.585440 0.280400 -0.599051
O37   O     O_R   0.939280 0.999970 0.134160 -0.619301
O38   O     O_R   0.060720 0.999970 0.865840 -0.653721
O39   O     O_R   0.060720 0.999970 0.134160 -0.649303
O40   O     O_R   0.939280 0.999970 0.865840 -0.613475
O41   O     O_R   0.439280 0.499970 0.634160 -0.661479
O42   O     O_R   0.560720 0.499970 0.365840 -0.609740
O43   O     O_R   0.560720 0.499970 0.634160 -0.615224
O44   O     O_R   0.439280 0.499970 0.365840 -0.674318
O45   O     O_R   0.000000 0.060760 0.365770 -0.616833
O46   O     O_R   0.000000 0.060760 0.634230 -0.617107
O47   O     O_R   0.500000 0.560760 0.865770 -0.650119
O48   O     O_R   0.500000 0.560760 0.134230 -0.636689
O49   O     O_R   1.000000 0.939310 0.365780 -0.652421
O50   O     O_R   1.000000 0.939310 0.634220 -0.650845
O51   O     O_R   0.500000 0.439310 0.865780 -0.624151
O52   O     O_R   0.500000 0.439310 0.134220 -0.644749
C1    C     C_R   0.859778 0.140106 0.249950 0.906961
C2    C     C_R   0.140031 0.140221 0.750034 0.887641
C3    C     C_R   0.139963 0.140255 0.249886 0.857729
C4    C     C_R   0.859752 0.140075 0.750026 0.905771
C5    C     C_R   0.359949 0.640149 0.750003 0.881261
C6    C     C_R   0.640097 0.640185 0.250087 0.843602
C7    C     C_R   0.640239 0.640124 0.749946 0.897481
C8    C     C_R   0.359735 0.640073 0.250016 0.904930
C9    C     C_R   0.139382 0.859310 0.249411 0.840529
C10   C     C_R   0.860558 0.859336 0.750521 0.874370
C11   C     C_R   0.859570 0.860281 0.250649 0.875503
C12   C     C_R   0.140501 0.860304 0.749336 0.849194
C13   C     C_R   0.639435 0.359354 0.749462 0.857606
C14   C     C_R   0.359311 0.360482 0.249259 0.875965
C15   C     C_R   0.359443 0.360379 0.750648 0.868527
C16   C     C_R   0.639438 0.359352 0.250508 0.844464
C17   C     C_R   0.000222 0.999351 0.109989 0.945761
C18   C     C_R   0.000157 0.999087 0.890003 0.949717
C19   C     C_R   0.499891 0.498741 0.610032 0.956388
C20   C     C_R   0.499760 0.499329 0.390020 0.957492
C21   C     C_R   0.999101 0.000100 0.389927 0.882571
C22   C     C_R   0.999382 0.000077 0.610056 0.894535
C23   C     C_R   0.499265 0.500112 0.889948 0.916094
C24   C     C_R   0.499171 0.499979 0.110058 0.907036
C25   C     C_R   0.857439 0.981612 0.445454 -0.158063
C26   C     C_R   0.857324 0.982621 0.554664 -0.159123
C27   C     C_R   0.355723 0.499073 0.945363 -0.155664
C28   C     C_R   0.355715 0.502656 0.054614 -0.158958
C29   C     C_R   0.792787 0.970137 0.473108 0.419102
C30   C     C_R   0.792228 0.973937 0.527044 0.418266
C31   C     C_R   0.290039 0.499960 0.973015 0.409683
C32   C     C_R   0.290153 0.505482 0.026919 0.421095
C33   C     C_R   0.925503 0.990191 0.527791 -0.089882
C34   C     C_R   0.925529 0.990143 0.472246 -0.089270
C35   C     C_R   0.424234 0.500711 0.027781 -0.093043
C36   C     C_R   0.424249 0.499951 0.972212 -0.087643
C37   C     C_R   0.993499 0.000170 0.445952 -0.209783
C38   C     C_R   0.993440 0.000200 0.554011 -0.220000
C39   C     C_R   0.492960 0.500483 0.945984 -0.204780
C40   C     C_R   0.492909 0.499681 0.054024 -0.202098
C41   C     C_R   0.058671 0.011813 0.473156 0.426406
C42   C     C_R   0.058497 0.011937 0.526873 0.418051
C43   C     C_R   0.558822 0.502735 0.973154 0.396679
C44   C     C_R   0.558820 0.498105 0.026874 0.391302
C45   C     C_R   0.266348 0.821320 0.239559 -0.314091
C46   C     C_R   0.733313 0.821678 0.759399 -0.281183
C47   C     C_R   0.757105 0.797637 0.209407 -0.289251
C48   C     C_R   0.237057 0.791781 0.793067 -0.288806
C49   C     C_R   0.766730 0.321703 0.741180 -0.290815
C50   C     C_R   0.265016 0.289500 0.293528 -0.291530
C51   C     C_R   0.265901 0.288784 0.706218 -0.296682
C52   C     C_R   0.766626 0.321592 0.259493 -0.295723
H1    H     H_    0.280925 0.878093 0.234342 0.183519
H2    H     H_    0.718692 0.878575 0.764021 0.190629
H3    H     H_    0.762854 0.833290 0.176149 0.192473
H4    H     H_    0.226398 0.823030 0.827942 0.177584
H5    H     H_    0.781359 0.378661 0.737166 0.188651
H6    H     H_    0.277987 0.318091 0.329098 0.169678
H7    H     H_    0.281680 0.315219 0.670387 0.169341
H8    H     H_    0.781229 0.378459 0.264150 0.185376
C53   C     C_R   0.821207 0.268843 0.740066 0.462052
C54   C     C_R   0.212864 0.234709 0.294839 0.475847
C55   C     C_R   0.211530 0.235853 0.705215 0.473868
C56   C     C_R   0.821078 0.268733 0.260576 0.456291
C57   C     C_R   0.320762 0.768460 0.238462 0.458981
C58   C     C_R   0.678879 0.768828 0.760512 0.461395
C59   C     C_R   0.704820 0.743139 0.207766 0.478818
C60   C     C_R   0.289123 0.736754 0.794618 0.476453
C61   C     C_R   0.802795 0.195558 0.749638 -0.243244
C62   C     C_R   0.194735 0.197666 0.248797 -0.242776
C63   C     C_R   0.194590 0.197932 0.751115 -0.243464
C64   C     C_R   0.802839 0.195605 0.250258 -0.239646
C65   C     C_R   0.302713 0.695502 0.249551 -0.248191
C66   C     C_R   0.697165 0.695650 0.750229 -0.240942
C67   C     C_R   0.695653 0.696952 0.250971 -0.249290
C68   C     C_R   0.304851 0.697240 0.749128 -0.249752
C69   C     C_R   0.729653 0.175109 0.758090 0.410208
C70   C     C_R   0.228956 0.216050 0.201571 0.434639
C71   C     C_R   0.228634 0.216494 0.798356 0.434762
C72   C     C_R   0.729863 0.175353 0.240844 0.414596
C73   C     C_R   0.229825 0.675361 0.259448 0.413403
C74   C     C_R   0.770185 0.675349 0.740873 0.411788
C75   C     C_R   0.740266 0.705229 0.295190 0.416094
C76   C     C_R   0.267337 0.712218 0.702624 0.435217
C77   C     C_R   0.174946 0.728234 0.256331 -0.129215
C78   C     C_R   0.824990 0.728264 0.743921 -0.126192
C79   C     C_R   0.794933 0.757921 0.295459 -0.125517
C80   C     C_R   0.211745 0.764175 0.702383 -0.125594
C81   C     C_R   0.674868 0.228130 0.755082 -0.126605
C82   C     C_R   0.283869 0.268909 0.201151 -0.126290
C83   C     C_R   0.283668 0.269178 0.798785 -0.125084
C84   C     C_R   0.675020 0.228268 0.243936 -0.127706
C85   C     C_R   0.193962 0.801801 0.248314 -0.175075
C86   C     C_R   0.805863 0.801953 0.751396 -0.181048
C87   C     C_R   0.803082 0.804655 0.252282 -0.186447
C88   C     C_R   0.197187 0.804735 0.747841 -0.179597
C89   C     C_R   0.694100 0.301911 0.748460 -0.174753
C90   C     C_R   0.302019 0.305537 0.247575 -0.178499
C91   C     C_R   0.302184 0.305427 0.752329 -0.175201
C92   C     C_R   0.694108 0.301921 0.251441 -0.174435
C93   C     C_R   0.045925 0.951005 0.027108 0.374885
C94   C     C_R   0.959550 0.052823 0.972881 0.385524
C95   C     C_R   0.960057 0.053551 0.026991 0.390017
C96   C     C_R   0.045913 0.950795 0.972902 0.380781
C97   C     C_R   0.532204 0.557630 0.527301 0.385647
C98   C     C_R   0.462673 0.443932 0.472861 0.376507
C99   C     C_R   0.462262 0.443939 0.527088 0.380772
C100  C     C_R   0.530264 0.558941 0.473211 0.402593
C101  C     C_R   0.001448 0.000661 0.946125 -0.384469
C102  C     C_R   0.001790 0.001338 0.053880 -0.385780
C103  C     C_R   0.498093 0.500594 0.446170 -0.379834
C104  C     C_R   0.498783 0.499756 0.553964 -0.383318
O53   O     O_3   0.122678 0.029962 0.447655 -0.586603
C105  C     C_3   0.154495 0.967337 0.424924 -0.327028
H9    H     H_    0.134179 0.914450 0.440692 0.140019
H10   H     H_    0.214058 0.969212 0.431724 0.186710
H11   H     H_    0.145912 0.968491 0.382330 0.166970
O54   O     O_3   0.121542 0.030964 0.553107 -0.562270
C106  C     C_3   0.161293 0.967213 0.564694 -0.271861
H12   H     H_    0.180214 0.939320 0.528946 0.163927
H13   H     H_    0.129322 0.928837 0.588952 0.156367
H14   H     H_    0.210256 0.982833 0.587239 0.191293
O55   O     O_3   0.624304 0.504188 0.946518 -0.606631
C107  C     C_3   0.649813 0.576705 0.945197 -0.269993
H15   H     H_    0.663754 0.596678 0.984697 0.189993
H16   H     H_    0.609670 0.613972 0.926682 0.155182
H17   H     H_    0.700203 0.578388 0.921542 0.188076
O56   O     O_3   0.624272 0.497788 0.053540 -0.623053
C108  C     C_3   0.650974 0.425696 0.055081 -0.262753
H18   H     H_    0.665296 0.405730 0.015641 0.203265
H19   H     H_    0.611424 0.387938 0.073701 0.164247
H20   H     H_    0.701357 0.424933 0.078746 0.179297
C109  C     C_1   0.849142 0.986811 0.389667 0.244052
N1    N     N_1   0.841485 0.991038 0.345200 -0.201480
C110  C     C_1   0.849483 0.985948 0.610566 0.239369
N2    N     N_1   0.842139 0.988782 0.655123 -0.200845
C111  C     C_1   0.348559 0.497363 0.889398 0.222557
N3    N     N_1   0.341857 0.495970 0.844761 -0.228356
C112  C     C_1   0.348381 0.501708 0.110589 0.236122
N4    N     N_1   0.341507 0.500941 0.155224 -0.201637
O57   O     O_3   0.727530 0.961485 0.446991 -0.590139
C113  C     C_3   0.714685 0.886267 0.440581 -0.247697
H21   H     H_    0.708350 0.858353 0.478627 0.190568
H22   H     H_    0.758813 0.860057 0.417638 0.143574
H23   H     H_    0.663146 0.879109 0.418799 0.182581
O58   O     O_3   0.726985 0.965287 0.553272 -0.592606
C114  C     C_3   0.692600 0.033882 0.557090 -0.222004
H24   H     H_    0.678209 0.055755 0.518186 0.188963
H25   H     H_    0.726960 0.073797 0.578490 0.140637
H26   H     H_    0.641266 0.027219 0.579213 0.195336
O59   O     O_3   0.224258 0.500893 0.946799 -0.602124
C115  C     C_3   0.197825 0.428850 0.943621 -0.255992
H27   H     H_    0.186971 0.405717 0.982750 0.188620
H28   H     H_    0.236030 0.393081 0.921859 0.150369
H29   H     H_    0.145568 0.429441 0.922122 0.181779
O60   O     O_3   0.224382 0.508694 0.053064 -0.593996
C116  C     C_3   0.203446 0.582466 0.057295 -0.234759
H30   H     H_    0.194471 0.607385 0.018470 0.180058
H31   H     H_    0.244202 0.614673 0.079553 0.137574
H32   H     H_    0.151213 0.585266 0.078770 0.198041
O61   O     O_3   0.893462 0.289310 0.735408 -0.595158
C117  C     C_3   0.906055 0.315447 0.684733 -0.244220
H33   H     H_    0.879699 0.369309 0.678567 0.147557
H34   H     H_    0.887675 0.275711 0.654779 0.160018
H35   H     H_    0.965440 0.323140 0.679533 0.175328
O62   O     O_3   0.177843 0.219319 0.341034 -0.583381
C118  C     C_3   0.221482 0.170711 0.369786 -0.237999
H36   H     H_    0.274541 0.195897 0.380346 0.147452
H37   H     H_    0.230349 0.118697 0.348380 0.139652
H38   H     H_    0.192767 0.157312 0.406396 0.237877
O63   O     O_3   0.180448 0.215091 0.658523 -0.570817
C119  C     C_3   0.137866 0.272929 0.638975 -0.221545
H39   H     H_    0.172720 0.316947 0.622908 0.135119
H40   H     H_    0.100201 0.295279 0.668899 0.143235
H41   H     H_    0.103921 0.251748 0.606756 0.197256
O64   O     O_3   0.893242 0.289185 0.265853 -0.599542
C120  C     C_3   0.905331 0.313694 0.317009 -0.207974
H42   H     H_    0.886523 0.273098 0.346215 0.160582
H43   H     H_    0.878957 0.367384 0.323906 0.150193
H44   H     H_    0.964711 0.321056 0.322642 0.198465
O65   O     O_3   0.392785 0.788903 0.232294 -0.593413
C121  C     C_3   0.403985 0.811774 0.180663 -0.216270
H45   H     H_    0.377118 0.865029 0.173101 0.141026
H46   H     H_    0.385040 0.770079 0.152269 0.151537
H47   H     H_    0.463229 0.819345 0.174447 0.205599
O66   O     O_3   0.606693 0.789292 0.765871 -0.590059
C122  C     C_3   0.594741 0.814369 0.816920 -0.221184
H48   H     H_    0.620777 0.868295 0.823381 0.141121
H49   H     H_    0.613982 0.774237 0.846319 0.149105
H50   H     H_    0.535347 0.821482 0.822714 0.201387
O67   O     O_3   0.661076 0.737129 0.164337 -0.579258
C123  C     C_3   0.697609 0.694075 0.127203 -0.245929
H51   H     H_    0.710068 0.638722 0.142585 0.153888
H52   H     H_    0.748300 0.721157 0.113582 0.147034
H53   H     H_    0.661500 0.687040 0.093093 0.196631
O68   O     O_3   0.326760 0.723479 0.840140 -0.584592
C124  C     C_3   0.281150 0.684697 0.874405 -0.260382
H54   H     H_    0.259278 0.634217 0.856122 0.172685
H55   H     H_    0.235839 0.719600 0.888641 0.155548
H56   H     H_    0.313676 0.667840 0.908604 0.189634
O69   O     O_3   0.711496 0.102167 0.763717 -0.592826
C125  C     C_3   0.697737 0.087760 0.816639 -0.200176
H57   H     H_    0.742520 0.107402 0.842173 0.173049
H58   H     H_    0.693548 0.027871 0.821905 0.179932
H59   H     H_    0.645292 0.112058 0.829282 0.147942
O70   O     O_3   0.210869 0.180327 0.155996 -0.576081
C126  C     C_3   0.151996 0.217224 0.132653 -0.289258
H60   H     H_    0.102804 0.216389 0.157815 0.138386
H61   H     H_    0.137927 0.188801 0.096024 0.178031
H62   H     H_    0.166610 0.274407 0.122674 0.164189
O71   O     O_3   0.210357 0.180938 0.843931 -0.568623
C127  C     C_3   0.152058 0.218586 0.867460 -0.310894
H63   H     H_    0.137975 0.190563 0.904229 0.183066
H64   H     H_    0.102705 0.218090 0.842472 0.137690
H65   H     H_    0.167291 0.275686 0.877252 0.143310
O72   O     O_3   0.711793 0.102615 0.233889 -0.584959
C128  C     C_3   0.699460 0.089790 0.180574 -0.193290
H66   H     H_    0.695191 0.030095 0.174317 0.192904
H67   H     H_    0.745039 0.109959 0.155972 0.168336
H68   H     H_    0.647480 0.114690 0.167588 0.142616
O73   O     O_3   0.211819 0.602711 0.266885 -0.580514
C129  C     C_3   0.199962 0.590529 0.320327 -0.215348
H69   H     H_    0.245738 0.611030 0.344594 0.146885
H70   H     H_    0.195807 0.530908 0.326927 0.189438
H71   H     H_    0.148075 0.615544 0.333435 0.147157
O74   O     O_3   0.788346 0.602544 0.734224 -0.597423
C130  C     C_3   0.801001 0.589270 0.680997 -0.203401
H72   H     H_    0.755487 0.609154 0.656219 0.175615
H73   H     H_    0.805494 0.529520 0.675024 0.178605
H74   H     H_    0.852971 0.614132 0.668002 0.148417
O75   O     O_3   0.733290 0.659309 0.337511 -0.579300
C131  C     C_3   0.684220 0.691138 0.372911 -0.180487
H75   H     H_    0.683590 0.657382 0.408512 0.247186
H76   H     H_    0.628249 0.692554 0.356624 0.149226
H77   H     H_    0.701184 0.746939 0.384555 0.101209
O76   O     O_3   0.282879 0.673902 0.657624 -0.569957
C132  C     C_3   0.337866 0.711411 0.630354 -0.302724
H78   H     H_    0.350016 0.680927 0.594205 0.180103
H79   H     H_    0.389009 0.714569 0.653338 0.138944
H80   H     H_    0.319861 0.767104 0.618988 0.151025
C133  C     C_1   0.099483 0.705606 0.258602 0.265256
N5    N     N_1   0.039208 0.687528 0.260384 -0.190810
C134  C     C_1   0.900499 0.705593 0.742225 0.261617
N6    N     N_1   0.960813 0.687480 0.740904 -0.190171
C135  C     C_1   0.840359 0.763638 0.341273 0.291954
N7    N     N_1   0.876491 0.768071 0.377905 -0.194544
C136  C     C_1   0.172028 0.775779 0.654572 0.279236
N8    N     N_1   0.140372 0.784582 0.616292 -0.218419
C137  C     C_1   0.599335 0.205578 0.755911 0.261169
N9    N     N_1   0.538997 0.187563 0.756534 -0.187095
C138  C     C_1   0.318421 0.286872 0.152295 0.296743
N10   N     N_1   0.345891 0.301258 0.113220 -0.187906
C139  C     C_1   0.319169 0.286100 0.847475 0.279418
N11   N     N_1   0.347586 0.299479 0.886384 -0.197963
C140  C     C_1   0.599535 0.205630 0.242202 0.269954
N12   N     N_1   0.539243 0.187540 0.240854 -0.191485
O77   O     O_3   0.080595 0.895315 0.053751 -0.571921
C141  C     C_3   0.153416 0.914946 0.064793 -0.201125
H81   H     H_    0.164504 0.903304 0.106264 0.199175
H82   H     H_    0.166971 0.973459 0.057715 0.132174
H83   H     H_    0.190797 0.880178 0.041856 0.149501
O78   O     O_3   0.913684 0.099875 0.946500 -0.541301
C142  C     C_3   0.953774 0.161357 0.930283 -0.271149
H84   H     H_    0.917051 0.197762 0.908038 0.189420
H85   H     H_    0.999510 0.146177 0.904179 0.112431
H86   H     H_    0.974534 0.192892 0.963931 0.153311
O79   O     O_3   0.916038 0.103113 0.052800 -0.543049
C143  C     C_3   0.959302 0.158884 0.074776 -0.280341
H87   H     H_    0.008165 0.172862 0.051169 0.106168
H88   H     H_    0.976417 0.143829 0.114620 0.143099
H89   H     H_    0.925760 0.208991 0.077931 0.190879
O80   O     O_3   0.080450 0.894811 0.946405 -0.572755
C144  C     C_3   0.154213 0.912736 0.937154 -0.205958
H90   H     H_    0.173316 0.964229 0.955816 0.121298
H91   H     H_    0.163451 0.917140 0.894780 0.201427
H92   H     H_    0.188919 0.867286 0.951033 0.157116
O81   O     O_3   0.571550 0.610365 0.553594 -0.546617
C145  C     C_3   0.523710 0.665616 0.570532 -0.276423
H93   H     H_    0.556047 0.708526 0.590208 0.195231
H94   H     H_    0.483808 0.644537 0.599171 0.119830
H95   H     H_    0.494914 0.691760 0.537542 0.154733
O82   O     O_3   0.435982 0.384178 0.446106 -0.567996
C146  C     C_3   0.361464 0.394429 0.434471 -0.216415
H96   H     H_    0.353034 0.383059 0.392683 0.185161
H97   H     H_    0.339941 0.450313 0.442399 0.118325
H98   H     H_    0.328654 0.354307 0.456512 0.166044
O83   O     O_3   0.434672 0.384319 0.553523 -0.568413
C147  C     C_3   0.359564 0.394196 0.563412 -0.218927
H99   H     H_    0.334237 0.442272 0.543914 0.114789
H100  H     H_    0.350850 0.399432 0.605796 0.194468
H101  H     H_    0.329976 0.344645 0.550662 0.172302
O84   O     O_3   0.562242 0.616801 0.447472 -0.574573
C148  C     C_3   0.507607 0.663075 0.427200 -0.353037
H102  H     H_    0.456772 0.664445 0.450839 0.134698
H103  H     H_    0.494349 0.647102 0.386776 0.156071
H104  H     H_    0.529173 0.719527 0.426038 0.184763

loop_
_geom_bond_atom_site_label_1
_geom_bond_atom_site_label_2
_geom_bond_distance
_ccdc_geom_bond_type
C96   C101  1.407528 A    
C122  H49   1.114456 S    
C43   O55   1.385772 S    
Zn5   O21   1.939920 S    
C129  H71   1.110485 S    
Zn7   O39   1.927968 S    
Zn8   O40   1.927968 S    
Zn4   O20   1.940532 S    
O49   C21   1.276723 A    
O72   C128  1.413017 S    
C27   C31   1.401944 A    
C121  H46   1.114417 S    
C116  H32   1.109231 S    
O64   C120  1.411060 S    
O70   C126  1.411008 S    
C72   C84   1.400941 A    
C108  H19   1.113237 S    
C73   C77   1.401025 A    
C105  H9    1.116421 S    
O84   C148  1.414761 S    
Zn9   O3    1.948294 S    
C100  C103  1.407529 A    
C76   C80   1.396654 A    
Zn10  O4    1.948292 S    
C95   C102  1.409328 A    
Zn3   O3    1.945551 S    
C141  H81   1.109503 S    
C75   C79   1.394553 A    
C25   C109  1.449811 S    
O30   C4    1.276858 A    
C121  H47   1.109386 S    
C67   C75   1.412837 A    
C30   O58   1.385739 S    
C45   C57   1.392616 A    
C120  H42   1.114370 S    
Zn6   O38   1.927639 S    
O11   C7    1.279647 A    
C77   C133  1.449168 S    
C148  H104  1.109273 S    
C47   H3    1.083918 S    
O78   C142  1.410923 S    
C140  N12   1.157489 T    
C74   O74   1.386616 S    
C107  H17   1.109246 S    
C23   C39   1.449549 S    
C75   O75   1.384815 S    
O80   C144  1.415426 S    
O56   C108  1.410577 S    
C147  H101  1.109108 S    
C77   C85   1.409311 A    
C105  H11   1.109838 S    
C114  H24   1.112542 S    
O61   C117  1.411194 S    
C16   C92   1.455398 S    
O34   C8    1.276942 A    
O16   C12   1.274216 A    
C69   C81   1.401516 A    
Zn15  O11   1.941803 S    
O83   C147  1.415204 S    
Zn16  O4    1.945704 S    
Zn12  O4    1.947643 S    
C141  H83   1.107733 S    
Zn1   O13   1.940111 S    
Zn13  O5    1.940771 S    
C117  H34   1.114296 S    
C125  H58   1.109511 S    
C54   C62   1.407727 A    
C51   C91   1.397127 A    
C131  H75   1.107603 S    
C52   C92   1.396598 A    
C20   C103  1.448353 S    
Zn4   O52   1.928125 S    
C111  N3    1.157873 T    
O32   C2    1.279114 A    
C143  H87   1.114866 S    
C70   O70   1.385806 S    
O42   C20   1.282081 A    
C56   O64   1.385335 S    
Zn9   O25   1.939920 S    
C98   O82   1.384789 S    
C128  H67   1.114174 S    
O52   C24   1.275633 A    
C83   C91   1.412004 A    
C84   C92   1.409094 A    
C47   C87   1.397698 A    
O82   C146  1.414628 S    
O43   C19   1.279864 A    
C45   C85   1.396317 A    
O79   C143  1.414342 S    
Zn4   O4    1.944442 S    
C53   C61   1.408143 A    
C93   O77   1.386159 S    
C139  N11   1.157524 T    
C120  H44   1.109366 S    
O47   C23   1.275478 A    
C83   C139  1.448700 S    
C26   C30   1.401696 A    
O37   C17   1.281659 A    
Zn8   O24   1.939725 S    
O54   C106  1.410475 S    
C36   C39   1.432394 A    
C5    C68   1.456321 S    
C6    C67   1.458934 S    
O29   C3    1.277644 A    
C146  H96   1.108371 S    
C29   C30   1.392526 A    
O44   C20   1.274754 A    
C146  H98   1.108598 S    
C130  H73   1.109495 S    
O65   C121  1.411167 S    
C29   O57   1.384893 S    
O14   C10   1.275543 A    
Zn10  O42   1.927639 S    
O36   C6    1.277638 A    
Zn15  O9    1.940771 S    
C94   C95   1.395358 A    
Zn14  O46   1.927627 S    
Zn1   O15   1.941532 S    
Zn13  O7    1.941803 S    
Zn2   O16   1.940532 S    
Zn14  O8    1.940349 S    
C98   C99   1.398307 A    
O31   C1    1.276262 A    
C24   C40   1.449507 S    
C44   O56   1.385835 S    
O68   C124  1.410781 S    
Zn7   O1    1.947641 S    
C51   C55   1.393904 A    
Zn6   O22   1.938363 S    
C49   C53   1.393461 A    
C131  H77   1.111220 S    
C132  H80   1.112937 S    
C59   C67   1.410058 A    
O77   C141  1.415228 S    
C143  H89   1.109167 S    
C119  H40   1.114211 S    
C115  H27   1.112787 S    
O57   C113  1.409344 S    
C144  H91   1.108682 S    
C126  H62   1.113041 S    
C99   O83   1.385195 S    
C127  H63   1.109341 S    
C114  H26   1.109221 S    
C81   C89   1.409237 A    
O38   C18   1.275559 A    
C79   C87   1.413439 A    
C15   C91   1.458277 S    
O41   C19   1.275940 A    
O5    C1    1.279930 A    
C107  H16   1.113275 S    
C97   O81   1.385095 S    
C145  H94   1.110399 S    
Zn3   O19   1.941532 S    
O71   C127  1.411038 S    
C147  H100  1.108608 S    
O73   C129  1.413016 S    
C46   C58   1.393766 A    
C124  H55   1.112121 S    
C113  H22   1.112476 S    
O27   C13   1.278144 A    
C118  H38   1.109126 S    
C28   C35   1.437083 A    
C76   O76   1.385752 S    
C25   C29   1.401682 A    
O8    C4    1.279619 A    
C145  H95   1.110902 S    
C41   O53   1.388297 S    
C33   C38   1.432025 A    
C37   C41   1.404723 A    
C42   O54   1.386671 S    
Zn7   O23   1.938826 S    
C39   C43   1.399469 A    
C78   C86   1.409290 A    
C123  H51   1.113787 S    
Zn2   O50   1.928125 S    
Zn12  O34   1.938927 S    
C99   C104  1.406812 A    
C70   C82   1.399975 A    
C113  H23   1.109262 S    
C59   O67   1.383196 S    
Zn13  O1    1.944596 S    
Zn2   O14   1.941567 S    
Zn14  O6    1.941768 S    
C68   C76   1.410518 A    
C47   C59   1.387623 A    
C62   C70   1.411545 A    
C84   C140  1.449129 S    
C28   C32   1.401873 A    
C119  H39   1.111142 S    
C116  H31   1.113504 S    
O9    C5    1.276540 A    
C108  H18   1.112128 S    
C142  H86   1.110314 S    
C105  H10   1.109314 S    
C55   C63   1.408001 A    
C2    C63   1.458763 S    
O13   C9    1.275932 A    
C21   C37   1.448268 S    
Zn12  O28   1.939725 S    
C141  H82   1.116930 S    
O18   C14   1.275509 A    
C49   H5    1.083827 S    
O6    C2    1.276693 A    
C115  H29   1.109191 S    
O67   C123  1.410341 S    
C96   O80   1.386308 S    
C51   H7    1.083226 S    
Zn16  O12   1.940349 S    
C33   C34   1.432254 A    
C57   O65   1.385195 S    
Zn10  O26   1.938363 S    
C126  H60   1.112775 S    
Zn9   O35   1.938464 S    
C127  H65   1.113057 S    
C134  N6    1.157497 T    
Zn10  O36   1.940020 S    
O60   C116  1.410515 S    
O50   C22   1.277183 A    
O53   C105  1.415153 S    
Zn15  O3    1.944596 S    
C148  H103  1.109786 S    
Zn11  O3    1.947641 S    
C61   C69   1.412780 A    
O63   C119  1.411214 S    
O28   C14   1.279325 A    
C79   C135  1.450622 S    
O74   C130  1.412947 S    
C46   C86   1.396609 A    
Zn5   O1    1.948294 S    
Zn3   O17   1.940111 S    
C34   C37   1.433196 A    
C129  H69   1.114122 S    
C12   C88   1.457407 S    
C106  H14   1.109220 S    
C19   C104  1.446035 S    
C43   C44   1.387878 A    
C49   C89   1.396252 A    
C118  H36   1.113160 S    
C8    C65   1.459612 S    
C1    C64   1.459361 S    
C122  H50   1.109356 S    
C136  N8    1.157294 T    
O69   C125  1.412886 S    
Zn16  O10   1.941768 S    
C125  H59   1.110401 S    
C123  H53   1.109549 S    
Zn11  O43   1.927968 S    
C131  H76   1.111557 S    
C3    C62   1.457493 S    
C9    C85   1.455326 S    
C94   C101  1.407804 A    
C112  N4    1.157908 T    
O7    C3    1.276415 A    
O26   C16   1.277955 A    
C22   C38   1.449318 S    
C143  H88   1.109573 S    
C130  H72   1.114093 S    
O19   C15   1.275349 A    
C28   C112  1.449717 S    
C97   C104  1.406443 A    
C121  H45   1.111484 S    
C133  N5    1.157506 T    
C54   O62   1.383090 S    
C119  H41   1.109350 S    
Zn8   O2    1.947643 S    
O55   C107  1.410894 S    
C144  H92   1.108849 S    
O39   C17   1.274931 A    
C108  H20   1.109255 S    
O75   C131  1.409060 S    
O66   C122  1.411158 S    
C50   C54   1.389605 A    
C58   C66   1.408285 A    
O21   C11   1.281879 A    
O51   C23   1.277151 A    
C31   O59   1.385484 S    
C120  H43   1.111398 S    
O24   C10   1.277785 A    
C94   O78   1.384970 S    
O62   C118  1.409935 S    
O48   C24   1.276911 A    
O12   C8    1.279717 A    
O23   C9    1.278097 A    
O59   C115  1.410400 S    
C82   C90   1.412497 A    
C14   C90   1.458624 S    
C48   H4    1.083798 S    
Zn1   O1    1.945551 S    
C25   C34   1.438287 A    
C146  H97   1.117053 S    
O76   C132  1.410706 S    
C48   C60   1.390860 A    
C56   C64   1.407881 A    
C57   C65   1.408251 A    
C66   C74   1.413136 A    
C106  H12   1.109627 S    
C60   C68   1.408215 A    
C41   C42   1.385132 A    
C135  N7    1.157701 T    
C18   C101  1.447617 S    
C117  H33   1.111430 S    
C138  N10   1.157540 T    
C40   C44   1.399195 A    
C132  H78   1.109205 S    
C80   C136  1.448717 S    
C35   C36   1.432964 A    
C125  H57   1.114119 S    
C27   C111  1.449468 S    
C110  N2    1.157920 T    
Zn2   O2    1.944442 S    
C109  N1    1.157890 T    
Zn14  O2    1.945704 S    
C142  H84   1.109261 S    
C71   C83   1.399335 A    
C64   C72   1.413026 A    
C115  H28   1.112162 S    
C145  H93   1.109203 S    
C65   C73   1.413075 A    
C144  H90   1.116571 S    
Zn5   O31   1.938464 S    
C63   C71   1.411232 A    
C128  H66   1.109363 S    
Zn6   O32   1.940020 S    
Zn11  O33   1.939826 S    
Zn7   O29   1.939826 S    
Zn5   O37   1.927638 S    
C126  H61   1.109256 S    
C127  H64   1.112851 S    
C128  H68   1.110494 S    
C114  H25   1.113372 S    
C32   O60   1.385099 S    
O25   C15   1.280289 A    
C53   O61   1.385483 S    
C117  H35   1.108732 S    
C69   O69   1.386646 S    
O40   C18   1.280960 A    
C26   C33   1.438544 A    
C55   O63   1.386056 S    
Zn11  O27   1.938826 S    
C35   C40   1.432483 A    
C124  H54   1.114023 S    
Zn9   O41   1.927638 S    
C78   C134  1.449134 S    
C118  H37   1.113696 S    
O45   C21   1.275452 A    
C130  H74   1.110459 S    
Zn8   O30   1.938927 S    
Zn6   O2    1.948292 S    
Zn4   O18   1.941567 S    
C73   O73   1.386518 S    
C95   O79   1.386174 S    
C100  O84   1.383258 S    
C58   O66   1.385398 S    
C123  H52   1.112968 S    
O58   C114  1.410833 S    
C17   C102  1.447559 S    
C132  H79   1.112928 S    
C50   C90   1.397577 A    
C60   O68   1.384312 S    
Zn12  O44   1.927968 S    
C7    C66   1.460544 S    
Zn1   O49   1.927564 S    
C31   C32   1.393584 A    
C81   C137  1.448992 S    
O33   C7    1.276274 A    
C116  H30   1.113074 S    
C45   H1    1.083745 S    
C82   C138  1.448803 S    
C142  H85   1.111870 S    
C4    C61   1.459405 S    
C10   C86   1.456060 S    
C93   C96   1.397741 A    
C122  H48   1.111472 S    
C93   C102  1.408714 A    
C27   C36   1.437518 A    
C38   C42   1.402023 A    
C97   C100  1.395444 A    
C13   C89   1.455485 S    
C72   O72   1.386488 S    
C52   C56   1.393141 A    
C48   C88   1.397899 A    
Zn3   O51   1.927564 S    
O35   C5    1.278003 A    
C11   C87   1.456693 S    
C71   O71   1.385666 S    
O15   C11   1.273316 A    
C50   H6    1.082946 S    
C148  H102  1.115656 S    
C107  H15   1.112240 S    
C52   H8    1.083708 S    
O22   C12   1.281044 A    
O20   C16   1.275850 A    
O46   C22   1.275322 A    
C147  H99   1.116696 S    
O10   C6    1.278536 A    
C129  H70   1.109374 S    
C137  N9    1.157479 T    
C124  H56   1.109523 S    
C106  H13   1.110299 S    
C46   H2    1.083843 S    
Zn13  O45   1.928187 S    
C80   C88   1.413267 A    
C113  H21   1.112965 S    
C74   C78   1.401393 A    
Zn15  O47   1.928187 S    
C26   C110  1.449865 S    
Zn16  O48   1.927627 S    
O81   C145  1.410175 S    
O17   C13   1.275944 A    
C98   C103  1.406711 A    
