data_mof_unit_42782.cif
_audit_creation_date              2012-12-11T15:45:09-0500
_audit_creation_method            fapswitch 2.2
_symmetry_space_group_name_H-M    P1
_symmetry_Int_Tables_number       1
_space_group_crystal_system       triclinic
_cell_length_a                    19.154388
_cell_length_b                    11.032246
_cell_length_c                    18.771362
_cell_angle_alpha                 90.028405
_cell_angle_beta                  90.152051
_cell_angle_gamma                 89.823076
_cell_volume                      3966.65428729

loop_
_atom_site_label
_atom_site_type_symbol
_atom_type_description
_atom_site_fract_x
_atom_site_fract_y
_atom_site_fract_z
_atom_type_partial_charge
C1    C     C_R   0.761636 0.532179 0.646193 0.559997
C2    C     C_R   0.175261 0.085817 0.551898 -0.142823
C3    C     C_R   0.517875 0.944761 0.960312 0.009601
C4    C     C_R   0.968826 0.234890 0.971669 -0.126970
C5    C     C_R   0.974497 0.236283 0.046186 -0.170581
C6    C     C_R   0.485318 0.733863 0.965648 -0.162859
C7    C     C_R   0.488168 0.737456 0.039895 -0.179308
C8    C     C_3   0.032085 0.562049 0.038136 -0.265371
C9    C     C_3   0.024749 0.558468 0.958081 -0.281434
C10   C     C_3   0.494273 0.073225 0.038146 -0.258792
C11   C     C_3   0.490111 0.072271 0.957792 -0.251472
C12   C     C_R   0.763124 0.522797 0.855370 0.545829
C13   C     C_R   0.324635 0.585342 0.448082 -0.142543
C14   C     C_R   0.240345 0.533080 0.148412 0.538774
C15   C     C_R   0.261785 0.028825 0.853025 0.539814
C16   C     C_R   0.739636 0.031612 0.147692 0.547312
C17   C     C_R   0.773254 0.128578 0.853847 0.548196
C18   C     C_R   0.227986 0.124940 0.147688 0.543244
C19   C     C_R   0.274209 0.630969 0.854867 0.548081
C20   C     C_R   0.728202 0.622499 0.148365 0.540967
C21   C     C_R   0.965128 0.347244 0.856363 0.546477
C22   C     C_R   0.028182 0.347618 0.147847 0.539583
C23   C     C_R   0.468691 0.847006 0.854124 0.546431
C24   C     C_R   0.687480 0.570793 0.544807 -0.179756
C25   C     C_R   0.529506 0.847593 0.146902 0.536133
C26   C     C_R   0.747300 0.081247 0.423734 0.042504
C27   C     C_R   0.241154 0.102443 0.582937 0.040563
C28   C     C_R   0.258675 0.602356 0.417108 0.041165
C29   C     C_R   0.752626 0.580995 0.576262 0.042069
C30   C     C_R   0.688675 0.104599 0.465861 0.061821
C31   C     C_R   0.290832 0.168300 0.545942 0.066657
C32   C     C_R   0.208885 0.668363 0.454186 0.066329
C33   C     C_R   0.811230 0.603975 0.534152 0.061329
C34   C     C_R   0.696165 0.120434 0.538943 -0.022779
C35   C     C_3   0.640717 0.210685 0.459406 -0.043532
C36   C     C_R   0.278851 0.196538 0.473636 0.003787
C37   C     C_R   0.220889 0.696538 0.526484 0.003644
C38   C     C_R   0.803717 0.620163 0.461104 -0.022943
C39   C     C_3   0.306546 0.297059 0.563981 -0.041823
C40   C     C_3   0.192857 0.797167 0.436230 -0.041979
C41   C     C_3   0.859157 0.709568 0.540807 -0.043085
C42   C     C_3   0.651600 0.232249 0.538672 -0.247882
C43   C     C_3   0.294422 0.326001 0.486718 -0.210182
C44   C     C_3   0.204960 0.826035 0.513513 -0.210566
C45   C     C_R   0.240154 0.535629 0.352744 0.530797
C46   C     C_3   0.848163 0.731649 0.461612 -0.247821
C47   C     C_R   0.761446 0.103279 0.570787 0.007359
C48   C     C_R   0.218213 0.157490 0.438572 -0.016294
C49   C     C_R   0.281675 0.657304 0.561447 -0.016293
C50   C     C_R   0.738429 0.603788 0.429280 0.007700
C51   C     C_R   0.006623 0.343265 0.430637 -0.032285
C52   C     C_R   0.012743 0.330032 0.581043 -0.028394
C53   C     C_R   0.487150 0.830527 0.418867 -0.027930
C54   C     C_R   0.493271 0.843033 0.569303 -0.032564
C55   C     C_R   0.984093 0.122131 0.427198 -0.107325
C56   C     C_R   0.259786 0.035544 0.647274 0.528513
C57   C     C_R   0.006466 0.107058 0.573419 -0.101580
C58   C     C_R   0.493308 0.607396 0.426078 -0.101064
C59   C     C_R   0.515732 0.621698 0.572323 -0.108130
C60   C     C_R   0.984944 0.009478 0.460768 -0.161152
C61   C     C_R   0.997835 0.001618 0.533458 -0.170668
C62   C     C_R   0.502246 0.501737 0.465807 -0.170418
C63   C     C_R   0.515212 0.509231 0.538496 -0.161346
C64   C     C_R   0.005417 0.222404 0.540604 0.018210
C65   C     C_R   0.998757 0.229614 0.465399 0.002106
C66   C     C_R   0.501009 0.729441 0.534329 0.001831
C67   C     C_R   0.738344 0.032419 0.353790 0.559797
C68   C     C_R   0.494338 0.722615 0.459111 0.018451
C69   C     C_R   0.031610 0.436908 0.546409 0.015792
C70   C     C_R   0.016311 0.449701 0.473523 0.019307
C71   C     C_R   0.483720 0.949797 0.526604 0.019485
C72   C     C_R   0.468400 0.937508 0.453695 0.015846
C73   C     C_R   0.774944 0.129889 0.644494 0.560019
C74   C     C_R   0.208317 0.172184 0.361213 0.556426
C75   C     C_R   0.291690 0.672294 0.638747 0.556224
C76   C     C_R   0.724997 0.630134 0.355530 0.560192
C77   C     C_R   0.058513 0.535848 0.585340 -0.067556
C78   C     C_R   0.819464 0.080991 0.527653 -0.171377
C79   C     C_R   0.011648 0.569772 0.446894 -0.080096
C80   C     C_R   0.488558 0.069723 0.553432 -0.079558
C81   C     C_R   0.441623 0.036959 0.414937 -0.067839
C82   C     C_R   0.058668 0.651066 0.556121 -0.126607
C83   C     C_R   0.033843 0.668342 0.487383 -0.157920
C84   C     C_R   0.466365 0.168727 0.513157 -0.157795
C85   C     C_R   0.441556 0.152051 0.444378 -0.126859
C86   C     C_R   0.753040 0.083225 0.077761 0.012965
C87   C     C_R   0.258814 0.060527 0.927183 0.032629
C88   C     C_R   0.256367 0.587785 0.079800 0.005378
C89   C     C_R   0.165122 0.107334 0.479594 -0.159455
C90   C     C_R   0.758377 0.545730 0.931373 -0.005015
C91   C     C_R   0.814537 0.053790 0.040642 0.029238
C92   C     C_R   0.218370 0.156118 0.951083 -0.001527
C93   C     C_R   0.316196 0.551735 0.041585 0.024817
C94   C     C_R   0.698343 0.507228 0.966061 0.041793
C95   C     C_R   0.816574 0.062484 0.968160 0.004600
C96   C     C_R   0.210054 0.174097 0.022799 -0.018824
C97   C     C_R   0.317334 0.560597 0.969370 -0.001950
C98   C     C_R   0.692338 0.520648 0.038480 0.002714
C99   C     C_R   0.703056 0.153737 0.965331 -0.152044
C100  C     C_R   0.334808 0.606828 0.520374 -0.159725
C101  C     C_R   0.291157 0.014243 0.050481 -0.157344
C102  C     C_R   0.209717 0.670754 0.968826 -0.165857
C103  C     C_R   0.812458 0.579959 0.047808 -0.144624
C104  C     C_R   0.699285 0.142863 0.039831 -0.154855
C105  C     C_R   0.299034 0.993732 0.976988 -0.138086
C106  C     C_R   0.206585 0.659335 0.043505 -0.174760
C107  C     C_R   0.817727 0.573059 0.973099 -0.139643
C108  C     C_3   0.865541 0.948164 0.037398 -0.041006
C109  C     C_3   0.145113 0.196642 0.935477 -0.050037
C110  C     C_3   0.369207 0.448356 0.038076 -0.040363
C111  C     C_R   0.680399 0.582204 0.472410 -0.171083
C112  C     C_3   0.624487 0.546538 0.952929 -0.041505
C113  C     C_3   0.863286 0.956399 0.957005 -0.209432
C114  C     C_3   0.136894 0.215979 0.015438 -0.202752
C115  C     C_3   0.365647 0.457034 0.957330 -0.203635
C116  C     C_3   0.618500 0.563371 0.032538 -0.206291
C117  C     C_R   0.760429 0.104564 0.928463 0.014444
C118  C     C_R   0.242348 0.100335 0.073543 0.031066
C119  C     C_R   0.263001 0.611224 0.930367 0.004609
C120  C     C_R   0.746769 0.568371 0.079752 0.002849
C121  C     C_R   0.973931 0.344280 0.648906 0.529915
C122  C     C_R   0.812434 0.070169 0.455223 -0.179410
C123  C     C_R   0.030175 0.347140 0.354785 0.527269
C124  C     C_R   0.469811 0.846962 0.645198 0.527656
C125  C     C_R   0.526029 0.844506 0.351054 0.528614
C126  C     C_R   0.990497 0.345388 0.080730 0.010323
C127  C     C_R   0.977704 0.342156 0.932335 0.029635
C128  C     C_R   0.505397 0.845647 0.074149 0.010275
C129  C     C_R   0.496474 0.839473 0.925364 0.003420
C130  C     C_R   0.985016 0.453536 0.041794 0.018270
C131  C     C_R   0.979485 0.450933 0.969264 0.016133
C132  C     C_R   0.522160 0.946980 0.032994 0.036557
Cr1   Cr    Cr6+3 0.885860 0.491680 0.749630 1.025190
Cr2   Cr    Cr6+3 0.112430 0.179310 0.249850 0.993305
Cr3   Cr    Cr6+3 0.387570 0.679310 0.750150 0.997052
Cr4   Cr    Cr6+3 0.612430 0.679310 0.249850 1.000834
Cr5   Cr    Cr6+3 0.114140 0.491680 0.250370 0.998060
Cr6   Cr    Cr6+3 0.385860 0.991680 0.749630 1.001633
Cr7   Cr    Cr6+3 0.614140 0.991680 0.250370 1.025171
Cr8   Cr    Cr6+3 0.730490 0.332970 0.748720 0.998062
Cr9   Cr    Cr6+3 0.269510 0.332970 0.251280 0.985698
Cr10  Cr    Cr6+3 0.230490 0.832970 0.748720 0.994503
Cr11  Cr    Cr6+3 0.769510 0.832970 0.251280 0.988054
Cr12  Cr    Cr6+3 0.887570 0.179310 0.750150 1.007481
H1    H     H_    0.870923 0.075362 0.549919 0.174032
H2    H     H_    0.320130 0.959877 0.088481 0.110039
H3    H     H_    0.169848 0.722919 0.941518 0.138907
H4    H     H_    0.857626 0.604931 0.079174 0.143243
H5    H     H_    0.652599 0.173226 0.066775 0.127965
H6    H     H_    0.333653 0.922026 0.959179 0.126394
H7    H     H_    0.162871 0.698758 0.071759 0.128231
H8    H     H_    0.867072 0.592623 0.948011 0.150634
H9    H     H_    0.917857 0.968814 0.060051 0.128631
H10   H     H_    0.142057 0.281903 0.903961 0.140335
H11   H     H_    0.421398 0.472316 0.059878 0.130959
H12   H     H_    0.117466 0.078521 0.454759 0.167343
H13   H     H_    0.619624 0.631806 0.921630 0.149356
H14   H     H_    0.914319 0.977365 0.932701 0.119200
H15   H     H_    0.131147 0.312909 0.030459 0.113859
H16   H     H_    0.415795 0.481538 0.932300 0.139589
H17   H     H_    0.614514 0.660155 0.048003 0.145359
H18   H     H_    0.835433 0.880190 0.930479 0.159323
H19   H     H_    0.101026 0.151390 0.041800 0.174110
H20   H     H_    0.338639 0.379569 0.931192 0.159430
H21   H     H_    0.581252 0.501106 0.059252 0.149544
H22   H     H_    0.962584 0.150086 0.944538 0.156721
H23   H     H_    0.382548 0.577828 0.545153 0.166917
H24   H     H_    0.975683 0.151572 0.075073 0.115095
H25   H     H_    0.470805 0.650695 0.939920 0.158939
H26   H     H_    0.479292 0.655843 0.070326 0.119248
H27   H     H_    0.085866 0.540190 0.055827 0.164995
H28   H     H_    0.995442 0.637222 0.936178 0.144078
H29   H     H_    0.533253 0.138275 0.059187 0.136593
H30   H     H_    0.435491 0.079577 0.938190 0.175803
H31   H     H_    0.008242 0.643990 0.062689 0.137597
H32   H     H_    0.074198 0.535679 0.930091 0.134770
H33   H     H_    0.442346 0.077516 0.064385 0.149590
H34   H     H_    0.628916 0.577418 0.450162 0.174416
H35   H     H_    0.527455 0.135827 0.932396 0.130184
H36   H     H_    0.857059 0.047525 0.423389 0.146438
H37   H     H_    0.134722 0.041116 0.581423 0.136352
H38   H     H_    0.365246 0.540398 0.418517 0.136585
H39   H     H_    0.642892 0.548526 0.576644 0.146178
H40   H     H_    0.138633 0.813306 0.417265 0.132648
H41   H     H_    0.912507 0.680872 0.556343 0.174107
H42   H     H_    0.587389 0.182625 0.443731 0.173633
H43   H     H_    0.360723 0.312980 0.582993 0.133065
H44   H     H_    0.681843 0.315031 0.551773 0.168897
H45   H     H_    0.074902 0.727283 0.588228 0.109972
H46   H     H_    0.247826 0.383846 0.476899 0.155499
H47   H     H_    0.251443 0.883650 0.523342 0.155290
H48   H     H_    0.817793 0.814701 0.448743 0.168859
H49   H     H_    0.603621 0.221329 0.570689 0.107125
H50   H     H_    0.342789 0.352243 0.458900 0.115515
H51   H     H_    0.156537 0.852426 0.541396 0.115404
H52   H     H_    0.896115 0.720623 0.429511 0.107202
H53   H     H_    0.973899 0.928826 0.430107 0.104646
H54   H     H_    0.999124 0.914178 0.559440 0.107782
H55   H     H_    0.501080 0.414395 0.439669 0.107694
H56   H     H_    0.030599 0.758445 0.465677 0.092242
H57   H     H_    0.526528 0.428451 0.568982 0.104962
H58   H     H_    0.969637 0.123619 0.371540 0.135295
H59   H     H_    0.017909 0.096630 0.629529 0.133539
H60   H     H_    0.481809 0.597303 0.369959 0.133702
H61   H     H_    0.530166 0.622839 0.627988 0.135539
H62   H     H_    0.987820 0.590484 0.396178 0.138799
H63   H     H_    0.076097 0.524794 0.639885 0.133564
H64   H     H_    0.424044 0.026357 0.360366 0.132558
H65   H     H_    0.512475 0.089936 0.604155 0.139171
H66   H     H_    0.858033 0.813979 0.111273 0.268480
H67   H     H_    0.469593 0.258697 0.535053 0.092278
H68   H     H_    0.784019 0.831763 0.059930 0.268278
H69   H     H_    0.107221 0.093453 0.853433 0.255116
H70   H     H_    0.112275 0.017240 0.931601 0.249415
H71   H     H_    0.366771 0.312035 0.111532 0.261109
H72   H     H_    0.291126 0.333139 0.066159 0.273447
H73   H     H_    0.590004 0.434875 0.872873 0.258664
H74   H     H_    0.589971 0.368407 0.953755 0.229984
H75   H     H_    0.715296 0.339819 0.434026 0.246038
H76   H     H_    0.632043 0.375073 0.410805 0.241402
H77   H     H_    0.249170 0.441022 0.602189 0.257588
H78   H     H_    0.425424 0.228599 0.412398 0.109152
H79   H     H_    0.269630 0.336320 0.663510 0.244424
H80   H     H_    0.250490 0.940606 0.398510 0.257302
H81   H     H_    0.229311 0.837248 0.336695 0.244913
H82   H     H_    0.784585 0.839310 0.566613 0.245875
H83   H     H_    0.867875 0.873623 0.589775 0.240955
H84   H     H_    0.660696 0.196709 0.936653 0.123240
N1    N     N_3   0.838633 0.831856 0.060308 -0.639774
N2    N     N_3   0.099511 0.100657 0.908341 -0.647884
N3    N     N_3   0.345121 0.329942 0.061469 -0.622371
N4    N     N_3   0.579258 0.449258 0.926728 -0.655541
N5    N     N_3   0.668784 0.305219 0.413042 -0.619814
N6    N     N_3   0.252983 0.348277 0.610881 -0.623273
N7    N     N_3   0.246282 0.848092 0.389292 -0.623061
N8    N     N_3   0.831140 0.804147 0.587436 -0.619357
O1    O     O_R   0.957020 0.451640 0.669920 -0.516470
O2    O     O_R   0.168040 0.093290 0.169870 -0.517222
O3    O     O_R   0.331960 0.593290 0.830130 -0.519831
O4    O     O_R   0.668040 0.593290 0.169870 -0.517569
O5    O     O_R   0.945600 0.250580 0.824860 -0.505833
O6    O     O_R   0.054400 0.250580 0.175140 -0.509541
O7    O     O_R   0.445600 0.750580 0.824860 -0.508001
O8    O     O_R   0.554400 0.750580 0.175140 -0.514062
O9    O     O_3   0.834640 0.334650 0.749500 -0.256754
O10   O     O_3   0.165360 0.334650 0.250500 -0.261368
O11   O     O_3   0.334640 0.834650 0.749500 -0.266832
O12   O     O_R   0.042980 0.451640 0.330080 -0.525518
O13   O     O_3   0.665360 0.834650 0.250500 -0.249766
O14   O     O_R   0.821450 0.543440 0.674610 -0.475303
O15   O     O_R   0.178550 0.543440 0.325390 -0.495648
O16   O     O_R   0.321450 0.043440 0.674610 -0.495673
O17   O     O_R   0.678550 0.043440 0.325390 -0.476813
O18   O     O_R   0.715320 0.458650 0.668100 -0.546782
O19   O     O_R   0.284680 0.458650 0.331900 -0.544851
O20   O     O_R   0.215320 0.958650 0.668100 -0.546047
O21   O     O_R   0.784680 0.958650 0.331900 -0.546111
O22   O     O_R   0.737170 0.209590 0.674530 -0.503386
O23   O     O_R   0.457020 0.951640 0.669920 -0.524537
O24   O     O_R   0.262830 0.209590 0.325470 -0.499723
O25   O     O_R   0.237170 0.709590 0.674530 -0.498640
O26   O     O_R   0.762830 0.709590 0.325470 -0.503003
O27   O     O_R   0.832710 0.092740 0.669580 -0.524269
O28   O     O_R   0.167290 0.092740 0.330420 -0.531126
O29   O     O_R   0.332710 0.592740 0.669580 -0.530722
O30   O     O_R   0.667290 0.592740 0.330420 -0.523420
O31   O     O_R   0.946290 0.250060 0.676040 -0.511310
O32   O     O_R   0.053710 0.250060 0.323960 -0.519102
O33   O     O_R   0.446290 0.750060 0.676040 -0.519158
O34   O     O_R   0.542980 0.951640 0.330080 -0.517993
O35   O     O_R   0.553710 0.750060 0.323960 -0.511601
O36   O     O_R   0.956270 0.452200 0.830470 -0.527106
O37   O     O_R   0.043730 0.452200 0.169530 -0.523689
O38   O     O_R   0.456270 0.952200 0.830470 -0.523676
O39   O     O_R   0.543730 0.952200 0.169530 -0.521552
O40   O     O_R   0.820760 0.543950 0.823440 -0.508201
O41   O     O_R   0.179240 0.543950 0.176560 -0.509960
O42   O     O_R   0.320760 0.043950 0.823440 -0.509464
O43   O     O_R   0.679240 0.043950 0.176560 -0.503149
O44   O     O_R   0.714570 0.459210 0.828640 -0.524261
O45   O     O_R   0.736470 0.210100 0.823360 -0.506715
O46   O     O_R   0.285430 0.459210 0.171360 -0.528770
O47   O     O_R   0.214570 0.959210 0.828640 -0.528558
O48   O     O_R   0.785430 0.959210 0.171360 -0.529517
O49   O     O_R   0.263530 0.210100 0.176640 -0.512701
O50   O     O_R   0.236470 0.710100 0.823360 -0.502439
O51   O     O_R   0.763530 0.710100 0.176640 -0.519848
O52   O     O_R   0.831960 0.093290 0.830130 -0.520483

loop_
_geom_bond_atom_site_label_1
_geom_bond_atom_site_label_2
_ccdc_geom_bond_type
H77   N6    S    
C51   C123  S    
C34   C42   S    
C8    H31   S    
Cr8   O22   S    
Cr6   O38   S    
C43   H50   S    
Cr7   O43   S    
C90   C107  A    
C59   C66   A    
C92   C109  S    
C29   C33   A    
C9    H32   S    
Cr3   O7    S    
C53   C68   A    
C108  H9    S    
C5    C126  A    
C7    C128  A    
C97   C115  S    
C85   H78   S    
C12   O44   A    
C99   H84   S    
C93   C110  S    
C58   H60   S    
Cr1   O40   S    
Cr2   O2    S    
C96   C114  S    
Cr7   O13   S    
C55   C65   A    
C9    C131  S    
C28   C45   S    
C27   C31   A    
C48   C74   S    
C28   C32   A    
Cr5   O12   S    
H81   N7    S    
C108  C113  S    
C16   O48   A    
C124  O33   A    
H83   N8    S    
C50   C76   S    
C109  N2    S    
C116  H17   S    
C1    C29   S    
C57   C61   A    
C109  H10   S    
C45   O19   A    
C125  O35   A    
Cr4   O4    S    
Cr12  O31   S    
C11   H35   S    
C23   O7    A    
C20   C120  S    
C1    O18   A    
C21   O5    A    
C75   O29   A    
C25   O8    A    
C76   O26   A    
Cr11  O13   S    
C4    C127  A    
C70   C79   A    
C3    C129  A    
C15   O42   A    
C4    C5    A    
C98   C120  A    
C6    C7    A    
C74   O24   A    
C59   C63   A    
C33   C38   A    
C115  H16   S    
C37   C44   S    
C130  C131  A    
C14   C88   S    
C77   C82   A    
H66   N1    S    
C69   C70   A    
C127  C131  A    
Cr9   O46   S    
C3    C11   S    
C7    H26   S    
C94   C98   A    
C31   C36   A    
C103  C107  A    
Cr12  O27   S    
Cr2   O10   S    
C102  C119  A    
C21   O36   A    
C75   O25   A    
C76   O30   A    
Cr8   O44   S    
C69   C77   A    
C86   C104  A    
C121  O31   A    
C84   H67   S    
C95   C117  A    
Cr5   O41   S    
C101  C118  A    
C12   C90   S    
C25   C128  S    
C62   H55   S    
Cr6   O16   S    
C77   H63   S    
C92   C96   A    
Cr10  O20   S    
Cr4   O30   S    
C35   C42   S    
C110  H11   S    
C123  O32   A    
Cr9   O24   S    
C124  O23   A    
C49   C75   S    
Cr6   O11   S    
Cr10  O25   S    
C22   O37   A    
Cr12  O9    S    
Cr6   O42   S    
Cr7   O39   S    
Cr1   O1    S    
C40   N7    S    
Cr9   O49   S    
C30   C34   A    
Cr3   O11   S    
H76   N5    S    
C20   O4    A    
C2    H37   S    
C97   C119  A    
C42   H49   S    
C19   O3    A    
C102  H3    S    
C99   C117  A    
C87   C105  A    
Cr11  O26   S    
C32   C37   A    
H74   N4    S    
C53   C125  S    
C109  C114  S    
C26   C30   A    
C56   O20   A    
C82   H45   S    
C93   C97   A    
C112  C116  S    
C18   C118  S    
C11   H30   S    
C63   H57   S    
C10   H33   S    
C36   C43   S    
C54   C66   A    
C125  O34   A    
C71   C72   A    
Cr3   O3    S    
C45   O15   A    
H68   N1    S    
C35   H42   S    
C94   C112  S    
C50   C111  A    
C36   C48   A    
C10   C132  S    
C38   C46   S    
C10   C11   S    
C91   C95   A    
C40   C44   S    
Cr10  O11   S    
C46   H52   S    
C47   C78   A    
C83   H56   S    
C87   C92   A    
C81   C85   A    
C18   O2    A    
Cr1   O9    S    
C74   O28   A    
C58   C62   A    
Cr11  O51   S    
Cr12  O52   S    
H75   N5    S    
C103  C120  A    
Cr11  O21   S    
C80   C84   A    
C122  H36   S    
C105  H6    S    
C100  H23   S    
C86   C91   A    
H73   N4    S    
C123  O12   A    
C126  C130  A    
H72   N3    S    
C23   C129  S    
C51   C65   A    
C5    H24   S    
C24   C29   A    
Cr2   O6    S    
C52   C69   A    
C54   C71   A    
C43   H46   S    
C13   C28   A    
C2    C27   A    
C35   N5    S    
C72   C81   A    
C17   C117  S    
C17   O45   A    
C59   H61   S    
C10   H29   S    
C99   C104  A    
C19   C119  S    
C55   C60   A    
C24   H39   S    
C16   C86   S    
C90   C94   A    
Cr2   O32   S    
Cr7   O34   S    
C112  H13   S    
C3    C132  A    
C84   C85   A    
C47   C73   S    
C52   C64   A    
C17   O52   A    
C73   O22   A    
Cr1   O36   S    
C19   O50   A    
C60   C61   A    
C20   O51   A    
C104  H5    S    
C2    C89   A    
C62   C63   A    
H79   N6    S    
Cr10  O47   S    
C37   C49   A    
C52   C121  S    
Cr12  O5    S    
C57   H59   S    
C67   O21   A    
C60   H53   S    
C81   H64   S    
C14   O41   A    
C58   C68   A    
C8    C130  S    
C116  H21   S    
Cr8   O18   S    
H70   N2    S    
C22   O6    A    
C42   H44   S    
C54   C124  S    
Cr6   O23   S    
C44   H51   S    
Cr2   O28   S    
C106  H7    S    
C27   C56   S    
C91   C108  S    
H80   N7    S    
C46   H48   S    
C89   H12   S    
C61   H54   S    
C39   N6    S    
C112  N4    S    
C33   C41   S    
C64   C65   A    
C25   O39   A    
C79   C83   A    
C56   O16   A    
Cr4   O35   S    
C82   C83   A    
C9    H28   S    
C34   C47   A    
C26   C122  A    
C53   C72   A    
C110  C115  S    
H69   N2    S    
C80   H65   S    
C40   H40   S    
C66   C68   A    
C15   O47   A    
Cr3   O33   S    
Cr8   O45   S    
C12   O40   A    
H82   N8    S    
C18   O49   A    
C14   O46   A    
Cr11  O48   S    
C30   C35   S    
H71   N3    S    
C26   C67   S    
C96   C118  A    
Cr7   O17   S    
C16   O43   A    
C44   H47   S    
C23   O38   A    
C22   C126  S    
C115  H20   S    
C78   H1    S    
C113  H18   S    
C4    H22   S    
C8    C9    S    
C111  H34   S    
C41   C46   S    
C51   C70   A    
C113  H14   S    
C21   C127  S    
C39   H43   S    
C24   C111  A    
C6    C129  A    
C78   C122  A    
C128  C132  A    
C71   C80   A    
Cr5   O15   S    
C103  H4    S    
C108  N1    S    
C67   O17   A    
C101  C105  A    
C101  H2    S    
Cr4   O8    S    
Cr8   O9    S    
Cr9   O19   S    
C110  N3    S    
C1    O14   A    
C39   C43   S    
C55   H58   S    
C88   C106  A    
C98   C116  S    
Cr9   O10   S    
C41   H41   S    
Cr10  O50   S    
C107  H8    S    
C48   C89   A    
C57   C64   A    
C15   C87   S    
C88   C93   A    
C8    H27   S    
C38   C50   A    
C41   N8    S    
C79   H62   S    
C13   C100  A    
C49   C100  A    
Cr5   O10   S    
C114  H19   S    
C95   C113  S    
C121  O1    A    
Cr5   O37   S    
C31   C39   S    
C102  C106  A    
C32   C40   S    
Cr4   O13   S    
C114  H15   S    
C73   O27   A    
C13   H38   S    
Cr3   O29   S    
Cr1   O14   S    
C6    H25   S    
