data_mof_unit_44398.cif
_audit_creation_date              2012-10-26T18:47:32-0400
_audit_creation_method            fapswitch 2.2
_symmetry_space_group_name_H-M    P1
_symmetry_Int_Tables_number       1
_space_group_crystal_system       triclinic
_cell_length_a                    10.826953
_cell_length_b                    12.967052
_cell_length_c                    11.665498
_cell_angle_alpha                 100.133053
_cell_angle_beta                  94.328782
_cell_angle_gamma                 90.94578
_cell_volume                      1606.87653795

loop_
_atom_site_label
_atom_site_type_symbol
_atom_type_description
_atom_site_fract_x
_atom_site_fract_y
_atom_site_fract_z
_atom_type_partial_charge
C1    C     C_R   0.499249 0.298972 0.478379 0.564706
C2    C     C_R   0.517160 0.986183 0.656404 -0.159396
C3    C     C_R   0.497091 0.122377 0.354666 -0.146512
C4    C     C_R   0.515179 0.877791 0.645571 -0.145484
C5    C     C_R   0.508796 0.139909 0.566221 -0.129485
C6    C     C_R   0.505438 0.860270 0.434096 -0.129936
C7    C     C_R   0.510753 0.031817 0.556162 0.038362
C8    C     C_R   0.505545 0.968412 0.444132 0.037758
C9    C     C_R   0.418066 0.376306 0.018904 -0.046031
C10   C     C_R   0.587940 0.620993 0.980983 -0.050256
C11   C     C_R   0.421401 0.393292 0.142572 0.063460
C12   C     C_R   0.503387 0.701049 0.521649 0.580463
C13   C     C_R   0.582823 0.604699 0.857229 0.068447
C14   C     C_R   0.532126 0.554467 0.158981 0.036197
C15   C     C_R   0.467430 0.445856 0.841038 0.025401
C16   C     C_R   0.262185 0.503312 0.499927 0.575315
C17   C     C_R   0.737863 0.499427 0.500562 0.576157
C18   C     C_R   0.530769 0.544439 0.035385 -0.009708
C19   C     C_R   0.471239 0.454763 0.964591 -0.010942
C20   C     C_R   0.240742 0.687900 0.224638 -0.106477
C21   C     C_R   0.803856 0.327813 0.811416 -0.131359
C22   C     C_R   0.179439 0.664164 0.319537 0.283322
C23   C     C_R   0.871732 0.501099 0.502612 0.019741
C24   C     C_R   0.848111 0.348801 0.706429 0.266383
C25   C     C_R   0.106135 0.570886 0.304531 0.063226
C26   C     C_R   0.897134 0.449988 0.704800 0.087472
C27   C     C_R   0.086258 0.507617 0.192503 0.243579
C28   C     C_R   0.904267 0.527669 0.806135 0.237109
C29   C     C_R   0.145872 0.534344 0.099113 -0.118212
C30   C     C_R   0.862127 0.504018 0.909719 -0.108366
C31   C     C_R   0.224460 0.622885 0.115634 -0.210577
C32   C     C_R   0.812829 0.404533 0.912168 -0.161251
C33   C     C_R   0.925971 0.532536 0.408784 -0.136148
C34   C     C_R   0.128288 0.507772 0.499749 0.002284
C35   C     C_R   0.073928 0.478718 0.594529 -0.143225
C36   C     C_3   0.361390 0.275545 0.944059 -0.278567
C37   C     C_3   0.326960 0.187525 0.009689 -0.306372
C38   C     C_3   0.276193 0.089942 0.925127 -0.455077
C39   C     C_3   0.653195 0.717947 0.055824 -0.286122
C40   C     C_3   0.712406 0.796016 0.989468 -0.309003
C41   C     C_3   0.775451 0.888515 0.073955 -0.456064
C42   C     C_3   0.162437 0.829315 0.426391 -0.017019
C43   C     C_3   0.150025 0.886434 0.550360 -0.372703
C44   C     C_3   0.855453 0.173463 0.617178 -0.013810
C45   C     C_R   0.946507 0.475588 0.597667 0.049453
C46   C     C_3   0.876810 0.106796 0.499783 -0.369946
C47   C     C_3   0.057575 0.335141 0.207210 0.001327
C48   C     C_3   0.998828 0.236180 0.131968 -0.386697
C49   C     C_3   0.048595 0.660314 0.870636 -0.021326
C50   C     C_3   0.106976 0.755848 0.834368 -0.370702
C51   C     C_R   0.053774 0.537518 0.406640 0.008478
C52   C     C_R   0.508063 0.814597 0.534344 0.022294
C53   C     C_R   0.501421 0.185507 0.465830 0.014906
C54   C     C_R   0.499328 0.014054 0.343864 -0.158703
Cu1   Cu    Cu3+1 0.509250 0.507730 0.615930 0.953656
Cu2   Cu    Cu3+1 0.490750 0.492270 0.384070 0.943850
H1    H     H_    0.272413 0.641646 0.043469 0.118817
H2    H     H_    0.864209 0.563507 0.987559 0.128481
H3    H     H_    0.868761 0.554919 0.337262 0.143059
H4    H     H_    0.130831 0.456942 0.666620 0.111908
H5    H     H_    0.501983 0.811896 0.348002 0.104353
H6    H     H_    0.512744 0.188268 0.652419 0.111818
H7    H     H_    0.518470 0.843605 0.723999 0.117824
H8    H     H_    0.491919 0.156583 0.276241 0.117703
H9    H     H_    0.495461 0.966122 0.257510 0.093087
H10   H     H_    0.522840 0.034182 0.742715 0.092422
H11   H     H_    0.191940 0.108644 0.873118 0.145875
H12   H     H_    0.778360 0.387617 0.991825 0.157914
H13   H     H_    0.346960 0.058953 0.865083 0.148040
H14   H     H_    0.251128 0.028264 0.975072 0.135267
H15   H     H_    0.410180 0.166274 0.061366 0.151591
H16   H     H_    0.254472 0.213701 0.069320 0.148869
H17   H     H_    0.277219 0.295828 0.892908 0.135218
H18   H     H_    0.429852 0.242935 0.881914 0.134821
H19   H     H_    0.706924 0.931013 0.129513 0.150176
H20   H     H_    0.850234 0.860777 0.130634 0.145459
H21   H     H_    0.817067 0.943665 0.023791 0.138566
H22   H     H_    0.783370 0.756432 0.934660 0.195371
H23   H     H_    0.418448 0.381033 0.784115 0.114198
H24   H     H_    0.639976 0.826651 0.932680 0.148572
H25   H     H_    0.584427 0.760589 0.111173 0.132547
H26   H     H_    0.727479 0.691387 0.114115 0.137105
H27   H     H_    0.071296 0.831284 0.375434 0.112749
H28   H     H_    0.233977 0.872161 0.388011 0.134946
H29   H     H_    0.238374 0.884299 0.604681 0.168659
H30   H     H_    0.127237 0.969465 0.549308 0.090583
H31   H     H_    0.074837 0.848665 0.589534 0.152275
H32   H     H_    0.772357 0.140105 0.649470 0.138432
H33   H     H_    0.938482 0.168665 0.678469 0.112734
H34   H     H_    0.578500 0.620614 0.215922 0.113824
H35   H     H_    0.960038 0.136822 0.464482 0.145155
H36   H     H_    0.891219 0.024294 0.510406 0.092811
H37   H     H_    0.794937 0.109049 0.436927 0.171472
H38   H     H_    0.039584 0.333918 0.299438 0.149703
H39   H     H_    0.159525 0.333608 0.200114 0.113854
H40   H     H_    0.014875 0.235117 0.038819 0.151513
H41   H     H_    0.040415 0.165995 0.159948 0.086904
H42   H     H_    0.897481 0.233408 0.141020 0.160135
H43   H     H_    0.118298 0.597579 0.862613 0.123354
H44   H     H_    0.025968 0.682212 0.962983 0.134545
H45   H     H_    0.625735 0.660280 0.812734 0.140342
H46   H     H_    0.040469 0.820539 0.840408 0.147735
H47   H     H_    0.191471 0.782611 0.892761 0.088573
H48   H     H_    0.133283 0.735467 0.743092 0.177772
H49   H     H_    0.381506 0.336088 0.186710 0.115413
H50   H     H_    0.302666 0.755748 0.235274 0.097474
H51   H     H_    0.760327 0.253212 0.815982 0.090671
H52   H     H_    0.132013 0.485350 0.013632 0.124482
N1    N     N_R   0.523180 0.519350 0.790130 -0.243775
N2    N     N_R   0.476820 0.480650 0.209870 -0.238280
O1    O     O_R   0.506570 0.354460 0.582000 -0.508072
O2    O     O_3   0.835138 0.277612 0.601496 -0.561552
O3    O     O_3   0.002659 0.423277 0.170745 -0.577148
O4    O     O_3   0.939610 0.629164 0.797910 -0.572336
O5    O     O_R   0.493430 0.645540 0.418000 -0.506113
O6    O     O_R   0.490940 0.341410 0.386200 -0.522310
O7    O     O_R   0.509060 0.658590 0.613800 -0.518815
O8    O     O_R   0.327460 0.506540 0.597900 -0.511256
O9    O     O_R   0.672540 0.493460 0.402100 -0.510376
O10   O     O_R   0.311830 0.493480 0.402100 -0.502055
O11   O     O_R   0.688170 0.506520 0.597900 -0.482480
O12   O     O_3   0.198276 0.725521 0.429856 -0.558472

loop_
_geom_bond_atom_site_label_1
_geom_bond_atom_site_label_2
_ccdc_geom_bond_type
Cu1   Cu2   S    
C38   H14   S    
C50   H48   S    
C23   C45   A    
C27   C29   A    
C14   C18   A    
C2    C7    A    
C24   O2    S    
Cu1   O11   S    
C7    C8    A    
C54   H9    S    
C3    H8    S    
C15   C19   A    
C48   H41   S    
C4    H7    S    
C34   C51   A    
C17   C23   S    
C4    C52   A    
C6    H5    S    
C5    C53   A    
C36   C37   S    
C24   C26   A    
C18   C19   A    
C16   O10   A    
C41   H21   S    
C3    C54   A    
C49   H43   S    
C14   N2    A    
C34   C35   A    
C15   N1    A    
C14   H34   S    
C1    C53   S    
C26   C45   S    
C16   C34   S    
C9    C19   A    
C15   H23   S    
C23   C33   A    
C22   C25   A    
C11   H49   S    
C9    C36   S    
C13   N1    A    
C40   H24   S    
C29   H52   S    
C1    O6    A    
C32   H12   S    
C12   O5    A    
C49   O4    S    
C38   H13   S    
C50   H47   S    
C33   H3    S    
Cu1   N1    S    
C11   N2    A    
Cu2   O10   S    
Cu2   N2    S    
C12   C52   S    
C44   C46   S    
C22   O12   S    
C20   H50   S    
C21   C32   A    
C43   H29   S    
C42   H28   S    
C39   H25   S    
C8    C54   A    
C39   C40   S    
C5    C7    A    
C6    C8    A    
C46   H35   S    
C10   C39   S    
C2    C4    A    
C25   C51   S    
C37   C38   S    
C16   O8    A    
C41   H19   S    
C47   C48   S    
Cu2   O6    S    
C9    C11   A    
C21   H51   S    
C28   O4    S    
C44   O2    S    
C17   O11   A    
C40   C41   S    
C20   C22   A    
C50   H46   S    
C37   H15   S    
Cu2   O9    S    
C40   H22   S    
C21   C24   A    
C33   C51   A    
C42   C43   S    
C13   H45   S    
C35   C45   A    
C27   O3    S    
C42   O12   S    
Cu1   O7    S    
C47   O3    S    
C36   H18   S    
C48   H40   S    
Cu1   O1    S    
C43   H30   S    
C42   H27   S    
C39   H26   S    
C2    H10   S    
C10   C13   A    
C25   C27   A    
C48   H42   S    
C26   C28   A    
C43   H31   S    
C31   H1    S    
C28   C30   A    
C29   C31   A    
C1    O1    A    
C41   H20   S    
C30   C32   A    
C3    C53   A    
C46   H37   S    
C10   C18   A    
C30   H2    S    
Cu2   O5    S    
C5    H6    S    
C36   H17   S    
C17   O9    A    
C12   O7    A    
C46   H36   S    
C38   H11   S    
C49   C50   S    
C37   H16   S    
C47   H39   S    
C35   H4    S    
C6    C52   A    
C44   H32   S    
C20   C31   A    
C47   H38   S    
C44   H33   S    
C49   H44   S    
Cu1   O8    S    
