data_mof_unit_7431.cif
_audit_creation_date              2013-03-05T15:43:49-0500
_audit_creation_method            fapswitch 2.2
_symmetry_space_group_name_H-M    P1
_symmetry_Int_Tables_number       1
_space_group_crystal_system       triclinic
_cell_length_a                    21.424718
_cell_length_b                    21.431881
_cell_length_c                    22.327531
_cell_angle_alpha                 89.967159
_cell_angle_beta                  90.031712
_cell_angle_gamma                 90.017864
_cell_volume                      10252.1734607

loop_
_atom_site_label
_atom_site_type_symbol
_atom_site_description
_atom_site_fract_x
_atom_site_fract_y
_atom_site_fract_z
_atom_type_partial_charge
C1    C     C_R   0.914674 0.158510 0.079226 -0.128702
C2    C     C_R   0.061768 0.864505 0.887674 -0.110813
C3    C     C_R   0.135474 0.061713 0.112375 -0.106856
C4    C     C_R   0.841507 0.914764 0.920465 -0.121759
C5    C     C_R   0.085413 0.841543 0.079496 -0.137123
C6    C     C_R   0.938596 0.135005 0.887329 -0.102379
C7    C     C_R   0.864479 0.938236 0.112315 -0.108902
C8    C     C_R   0.158464 0.085376 0.920479 -0.128468
C9    C     C_R   0.914590 0.841564 0.920471 -0.136471
C10   C     C_R   0.061791 0.135516 0.112311 -0.102033
C11   C     C_R   0.135606 0.938196 0.887728 -0.108095
C12   C     C_R   0.841453 0.085392 0.079149 -0.129331
C13   C     C_R   0.085261 0.158467 0.920445 -0.134165
C14   C     C_R   0.938286 0.864554 0.112397 -0.113341
C15   C     C_R   0.864888 0.061267 0.887439 -0.107938
C16   C     C_R   0.158494 0.914786 0.079565 -0.135561
C17   C     C_R   0.414420 0.658587 0.578925 -0.135007
C18   C     C_R   0.561013 0.365187 0.387319 -0.103831
C19   C     C_R   0.635092 0.561247 0.612580 -0.101269
C20   C     C_R   0.341375 0.414371 0.421080 -0.119890
C21   C     C_R   0.585441 0.341540 0.579456 -0.121571
C22   C     C_R   0.438671 0.634929 0.387277 -0.111756
C23   C     C_R   0.365069 0.438615 0.612694 -0.107259
C24   C     C_R   0.658678 0.585456 0.421240 -0.140726
C25   C     C_R   0.414592 0.341355 0.421192 -0.133928
C26   C     C_R   0.561346 0.634925 0.612674 -0.108639
C27   C     C_R   0.634655 0.439008 0.387191 -0.106036
C28   C     C_R   0.341343 0.585384 0.578832 -0.140771
C29   C     C_R   0.585612 0.658622 0.421103 -0.134495
C30   C     C_R   0.438763 0.364880 0.612548 -0.104551
C31   C     C_R   0.364951 0.561181 0.387402 -0.107093
C32   C     C_R   0.658499 0.414787 0.579525 -0.121302
H1    H     H_    0.937479 0.203215 0.074931 0.117627
H2    H     H_    0.030533 0.827316 0.875171 0.101837
H3    H     H_    0.172662 0.030500 0.124908 0.109432
H4    H     H_    0.796780 0.937498 0.924804 0.111089
H5    H     H_    0.062852 0.796721 0.075099 0.098135
H6    H     H_    0.969903 0.172060 0.874637 0.109525
H7    H     H_    0.827160 0.969346 0.124701 0.116074
H8    H     H_    0.203288 0.062810 0.924861 0.107997
H9    H     H_    0.937148 0.796744 0.924817 0.097781
H10   H     H_    0.030717 0.172854 0.124707 0.120983
H11   H     H_    0.172982 0.969275 0.875342 0.115559
H12   H     H_    0.796663 0.062758 0.074670 0.108167
H13   H     H_    0.062509 0.203182 0.924710 0.113686
H14   H     H_    0.969530 0.827393 0.124947 0.101393
H15   H     H_    0.827896 0.029821 0.874945 0.115093
H16   H     H_    0.203216 0.937577 0.075293 0.111727
H17   H     H_    0.437036 0.703371 0.574408 0.097486
H18   H     H_    0.529721 0.328029 0.374856 0.118608
H19   H     H_    0.672085 0.529822 0.625099 0.115319
H20   H     H_    0.296566 0.436921 0.425608 0.103270
H21   H     H_    0.562908 0.296705 0.575038 0.104088
H22   H     H_    0.470081 0.671902 0.374557 0.100833
H23   H     H_    0.328107 0.470000 0.625418 0.104146
H24   H     H_    0.703379 0.562776 0.426197 0.113353
H25   H     H_    0.437289 0.296678 0.426177 0.116706
H26   H     H_    0.529941 0.671880 0.625352 0.101126
H27   H     H_    0.671616 0.470439 0.374494 0.104929
H28   H     H_    0.296635 0.562684 0.573924 0.110727
H29   H     H_    0.563006 0.703391 0.425624 0.097446
H30   H     H_    0.470235 0.327908 0.625019 0.109462
H31   H     H_    0.328041 0.529624 0.374907 0.109091
H32   H     H_    0.703219 0.437571 0.575201 0.113541
N1    N     N_R   0.940200 0.105310 0.059970 -0.046796
N2    N     N_R   0.059800 0.894690 0.940030 -0.044195
N3    N     N_R   0.105310 0.059800 0.059970 -0.045303
N4    N     N_R   0.894690 0.940200 0.940030 -0.045595
N5    N     N_R   0.059800 0.894690 0.059970 -0.042635
N6    N     N_R   0.940200 0.105310 0.940030 -0.045489
N7    N     N_R   0.894690 0.940200 0.059970 -0.045494
N8    N     N_R   0.105310 0.059800 0.940030 -0.045112
N9    N     N_R   0.940200 0.894690 0.940030 -0.043012
N10   N     N_R   0.059800 0.105310 0.059970 -0.045901
N11   N     N_R   0.105310 0.940200 0.940030 -0.044791
N12   N     N_R   0.894690 0.059800 0.059970 -0.045648
N13   N     N_R   0.059800 0.105310 0.940030 -0.044956
N14   N     N_R   0.940200 0.894690 0.059970 -0.044443
N15   N     N_R   0.894690 0.059800 0.940030 -0.045632
N16   N     N_R   0.105310 0.940200 0.059970 -0.044105
N17   N     N_R   0.440200 0.605310 0.559970 -0.042698
N18   N     N_R   0.559800 0.394690 0.440030 -0.046799
N19   N     N_R   0.605310 0.559800 0.559970 -0.044322
N20   N     N_R   0.394690 0.440200 0.440030 -0.045707
N21   N     N_R   0.559800 0.394690 0.559970 -0.045903
N22   N     N_R   0.440200 0.605310 0.440030 -0.044180
N23   N     N_R   0.394690 0.440200 0.559970 -0.045258
N24   N     N_R   0.605310 0.559800 0.440030 -0.043288
N25   N     N_R   0.440200 0.394690 0.440030 -0.046005
N26   N     N_R   0.559800 0.605310 0.559970 -0.044608
N27   N     N_R   0.605310 0.440200 0.440030 -0.045752
N28   N     N_R   0.394690 0.559800 0.559970 -0.042691
N29   N     N_R   0.559800 0.605310 0.440030 -0.042909
N30   N     N_R   0.440200 0.394690 0.559970 -0.045112
N31   N     N_R   0.394690 0.559800 0.440030 -0.043789
N32   N     N_R   0.605310 0.440200 0.559970 -0.046868
C33   C     C_R   0.263747 0.103178 0.305641 -0.282214
C34   C     C_R   0.800369 0.640550 0.843738 -0.289158
C35   C     C_R   0.199497 0.640498 0.156360 -0.290082
C36   C     C_R   0.897730 0.262862 0.695156 -0.262553
C37   C     C_R   0.896993 0.736695 0.306117 -0.294107
C38   C     C_R   0.359517 0.199308 0.843433 -0.264903
C39   C     C_R   0.641273 0.198129 0.158044 -0.250860
C40   C     C_R   0.103198 0.736420 0.694311 -0.290881
C41   C     C_R   0.602309 0.762828 0.804672 -0.275963
C42   C     C_R   0.140545 0.300388 0.345428 -0.249657
C43   C     C_R   0.699564 0.140573 0.656346 -0.268115
C44   C     C_R   0.397889 0.762534 0.194691 -0.284806
C45   C     C_R   0.237584 0.397714 0.805260 -0.279316
C46   C     C_R   0.699414 0.859499 0.345411 -0.278558
C47   C     C_R   0.300730 0.859347 0.654682 -0.278999
C48   C     C_R   0.763125 0.396803 0.195415 -0.272483
C49   C     C_R   0.780821 0.701170 0.857478 0.108135
C50   C     C_R   0.207858 0.127489 0.283172 0.103158
C51   C     C_R   0.874359 0.205899 0.715909 0.097860
C52   C     C_R   0.219111 0.701086 0.142470 0.105666
C53   C     C_R   0.298958 0.218940 0.857362 0.098334
C54   C     C_R   0.872537 0.792403 0.283405 0.107176
C55   C     C_R   0.127663 0.792162 0.716912 0.105539
C56   C     C_R   0.701268 0.218388 0.142795 0.094755
C57   C     C_R   0.200433 0.280067 0.361014 0.096539
C58   C     C_R   0.625661 0.705869 0.783985 0.102988
C59   C     C_R   0.374414 0.705708 0.215686 0.104543
C60   C     C_R   0.719150 0.201186 0.642521 0.102712
C61   C     C_R   0.719810 0.799675 0.361079 0.102987
C62   C     C_R   0.294372 0.374235 0.784234 0.103199
C63   C     C_R   0.706647 0.373085 0.216999 0.102886
C64   C     C_R   0.280323 0.799506 0.639107 0.102353
C65   C     C_R   0.720648 0.721555 0.841158 0.022459
C66   C     C_R   0.184397 0.184588 0.304862 0.024995
C67   C     C_R   0.816670 0.183212 0.694833 0.017509
C68   C     C_R   0.279372 0.721401 0.158581 0.021475
C69   C     C_R   0.278676 0.279204 0.841302 0.021850
C70   C     C_R   0.815354 0.815793 0.304999 0.020789
C71   C     C_R   0.184839 0.815568 0.695263 0.020328
C72   C     C_R   0.721871 0.278323 0.159548 0.021970
C73   C     C_R   0.221131 0.220339 0.343814 0.014727
C74   C     C_R   0.683331 0.683193 0.805104 0.015937
C75   C     C_R   0.316683 0.683058 0.194688 0.014315
C76   C     C_R   0.779354 0.221569 0.658762 0.022603
C77   C     C_R   0.779623 0.779083 0.344000 0.016144
C78   C     C_R   0.317006 0.316503 0.805195 0.015854
C79   C     C_R   0.684151 0.315016 0.196726 0.023201
C80   C     C_R   0.220536 0.778869 0.656281 0.016070
H33   H     H_    0.869517 0.727681 0.892429 0.122522
H34   H     H_    0.198982 0.056653 0.216709 0.129043
H35   H     H_    0.946397 0.195250 0.781119 0.128794
H36   H     H_    0.130333 0.727700 0.107810 0.122281
H37   H     H_    0.272299 0.130184 0.891975 0.132108
H38   H     H_    0.943400 0.801228 0.216908 0.120455
H39   H     H_    0.056780 0.801030 0.783355 0.121445
H40   H     H_    0.727506 0.130143 0.106887 0.131569
H41   H     H_    0.226495 0.367989 0.397991 0.128196
H42   H     H_    0.553627 0.695197 0.718782 0.119699
H43   H     H_    0.446442 0.695131 0.280951 0.119793
H44   H     H_    0.630428 0.227703 0.607671 0.128420
H45   H     H_    0.631837 0.773490 0.397917 0.121278
H46   H     H_    0.304923 0.446276 0.719004 0.121972
H47   H     H_    0.696274 0.445531 0.281704 0.121944
H48   H     H_    0.368230 0.773403 0.602136 0.121649
C81   C     C_R   0.639346 0.801933 0.839927 0.344298
C82   C     C_R   0.103742 0.265588 0.306006 0.333053
C83   C     C_R   0.736719 0.101496 0.691691 0.328984
C84   C     C_R   0.360918 0.801568 0.159261 0.342791
C85   C     C_R   0.198565 0.360758 0.840700 0.344841
C86   C     C_R   0.734220 0.896314 0.305995 0.344046
C87   C     C_R   0.265958 0.896145 0.694081 0.345082
C88   C     C_R   0.801777 0.360160 0.159436 0.341762
C89   C     C_R   0.300548 0.138098 0.345047 0.337059
C90   C     C_R   0.763219 0.601475 0.808397 0.329332
C91   C     C_R   0.236680 0.601414 0.191673 0.333049
C92   C     C_R   0.860698 0.301961 0.659871 0.340172
C93   C     C_R   0.862131 0.699967 0.345653 0.329306
C94   C     C_R   0.398609 0.236492 0.808143 0.330429
C95   C     C_R   0.603747 0.233671 0.196087 0.339176
C96   C     C_R   0.138034 0.699693 0.654815 0.327661
H49   H     H_    0.727879 0.869681 0.894758 0.163731
H50   H     H_    0.054333 0.195222 0.218155 0.164185
H51   H     H_    0.802204 0.055719 0.783611 0.163349
H52   H     H_    0.272298 0.869434 0.104530 0.165928
H53   H     H_    0.130720 0.272206 0.895520 0.166063
H54   H     H_    0.804607 0.945648 0.218074 0.164274
H55   H     H_    0.195671 0.945454 0.782014 0.163928
H56   H     H_    0.868974 0.272301 0.103172 0.165612
H57   H     H_    0.370787 0.228481 0.392201 0.165003
H58   H     H_    0.697755 0.555688 0.716470 0.163483
H59   H     H_    0.302186 0.555660 0.283600 0.158351
H60   H     H_    0.772174 0.369679 0.604971 0.163901
H61   H     H_    0.771745 0.629561 0.392741 0.158112
H62   H     H_    0.444287 0.302013 0.716241 0.158321
H63   H     H_    0.552622 0.305966 0.281353 0.162956
H64   H     H_    0.228359 0.629360 0.607661 0.157606
Ni1   Ni    Ni4+2 0.000000 0.104370 0.000000 0.231238
Ni2   Ni    Ni4+2 0.000000 0.895630 0.000000 0.219856
Ni3   Ni    Ni4+2 0.104370 0.000000 0.000000 0.227946
Ni4   Ni    Ni4+2 0.895630 0.000000 0.000000 0.227623
Ni5   Ni    Ni4+2 0.500000 0.604370 0.500000 0.220768
Ni6   Ni    Ni4+2 0.500000 0.395630 0.500000 0.229900
Ni7   Ni    Ni4+2 0.604370 0.500000 0.500000 0.231960
Ni8   Ni    Ni4+2 0.395630 0.500000 0.500000 0.227775
C97   C     C_R   0.852177 0.147844 0.091221 0.082361
C98   C     C_R   0.108173 0.891887 0.852874 0.062391
C99   C     C_R   0.108064 0.108026 0.147193 0.060360
C100  C     C_R   0.852168 0.852385 0.908040 0.084291
C101  C     C_R   0.147846 0.852361 0.091915 0.079874
C102  C     C_R   0.892592 0.107175 0.852345 0.060440
C103  C     C_R   0.891949 0.891969 0.147215 0.062713
C104  C     C_R   0.147675 0.147788 0.908063 0.081015
C105  C     C_R   0.351844 0.647908 0.590710 0.077943
C106  C     C_R   0.606672 0.393196 0.352162 0.060566
C107  C     C_R   0.607370 0.607113 0.647664 0.060252
C108  C     C_R   0.352058 0.351823 0.409303 0.083998
C109  C     C_R   0.647852 0.352383 0.591900 0.087407
C110  C     C_R   0.392658 0.607087 0.352283 0.060782
C111  C     C_R   0.392884 0.392559 0.647654 0.060421
C112  C     C_R   0.648201 0.647994 0.409390 0.077400
H65   H     H_    0.279990 0.057890 0.290684 0.193447
H66   H     H_    0.845603 0.624291 0.858922 0.189735
H67   H     H_    0.154202 0.624269 0.141304 0.191181
H68   H     H_    0.942692 0.279593 0.710676 0.189870
H69   H     H_    0.942381 0.720562 0.291296 0.186837
H70   H     H_    0.375718 0.154010 0.858460 0.196998
H71   H     H_    0.625252 0.152381 0.144101 0.191930
H72   H     H_    0.057820 0.720265 0.709185 0.188350
H73   H     H_    0.557355 0.779547 0.789130 0.179821
H74   H     H_    0.124283 0.345865 0.359869 0.189545
H75   H     H_    0.654298 0.124325 0.641229 0.192047
H76   H     H_    0.442931 0.779198 0.210060 0.179976
H77   H     H_    0.220931 0.442750 0.789909 0.182051
H78   H     H_    0.653893 0.875712 0.359815 0.183581
H79   H     H_    0.346224 0.875602 0.640198 0.183550
H80   H     H_    0.779736 0.441952 0.210485 0.182405
C113  C     C_R   0.822373 0.743043 0.883464 -0.182010
C114  C     C_R   0.178203 0.098270 0.235422 -0.174124
C115  C     C_R   0.904208 0.175188 0.762757 -0.169258
C116  C     C_R   0.177549 0.742998 0.116550 -0.182884
C117  C     C_R   0.257038 0.177403 0.883291 -0.161826
C118  C     C_R   0.901727 0.821969 0.235570 -0.183432
C119  C     C_R   0.098472 0.821764 0.764679 -0.179001
C120  C     C_R   0.742825 0.177290 0.115830 -0.160734
C121  C     C_R   0.242044 0.321119 0.388179 -0.158612
C122  C     C_R   0.595803 0.675142 0.737171 -0.176204
C123  C     C_R   0.404239 0.675069 0.262615 -0.180763
C124  C     C_R   0.677599 0.243058 0.616542 -0.156858
C125  C     C_R   0.678776 0.758025 0.388226 -0.179264
C126  C     C_R   0.324975 0.404068 0.737312 -0.176728
C127  C     C_R   0.676032 0.403355 0.263542 -0.176721
C128  C     C_R   0.321314 0.757897 0.611924 -0.181688
C129  C     C_R   0.804741 0.805201 0.893010 0.079272
C130  C     C_R   0.126508 0.126418 0.208141 0.081358
C131  C     C_R   0.874955 0.124567 0.790857 0.073306
C132  C     C_R   0.195273 0.805121 0.106819 0.080455
C133  C     C_R   0.194947 0.195165 0.893113 0.075963
C134  C     C_R   0.873516 0.873563 0.208183 0.083700
C135  C     C_R   0.126687 0.873394 0.791977 0.083907
C136  C     C_R   0.804865 0.195157 0.105866 0.075367
C137  C     C_R   0.304686 0.304028 0.395945 0.068310
C138  C     C_R   0.625027 0.624515 0.709136 0.077032
C139  C     C_R   0.374985 0.624475 0.290778 0.078334
C140  C     C_R   0.695269 0.305207 0.606902 0.075508
C141  C     C_R   0.695981 0.695442 0.396113 0.077331
C142  C     C_R   0.375520 0.374827 0.709128 0.077120
C143  C     C_R   0.624505 0.375160 0.291011 0.083712
C144  C     C_R   0.304097 0.695307 0.604092 0.077192
C145  C     C_R   0.742453 0.823046 0.883697 -0.150992
C146  C     C_R   0.097445 0.177318 0.236059 -0.159860
C147  C     C_R   0.823298 0.096226 0.763379 -0.139037
C148  C     C_R   0.257663 0.822851 0.115803 -0.166211
C149  C     C_R   0.177267 0.257548 0.884174 -0.159637
C150  C     C_R   0.822551 0.902600 0.236047 -0.165774
C151  C     C_R   0.177690 0.902406 0.764091 -0.165777
C152  C     C_R   0.822584 0.257470 0.114951 -0.151422
C153  C     C_R   0.322811 0.241993 0.385767 -0.133909
C154  C     C_R   0.676678 0.596196 0.736652 -0.139844
C155  C     C_R   0.323294 0.596144 0.263335 -0.146814
C156  C     C_R   0.757580 0.323051 0.616120 -0.146135
C157  C     C_R   0.758123 0.677471 0.386147 -0.150880
C158  C     C_R   0.403846 0.323121 0.736529 -0.139404
C159  C     C_R   0.595884 0.323693 0.263646 -0.159156
C160  C     C_R   0.241982 0.677280 0.614195 -0.153778
C161  C     C_R   0.700211 0.782408 0.856113 -0.041843
C162  C     C_R   0.127118 0.208610 0.283115 -0.042468
C163  C     C_R   0.793506 0.125010 0.714943 -0.029521
C164  C     C_R   0.299921 0.782172 0.143354 -0.041649
C165  C     C_R   0.217940 0.299772 0.856584 -0.040706
C166  C     C_R   0.791254 0.872978 0.283139 -0.043294
C167  C     C_R   0.208954 0.872776 0.717024 -0.043529
C168  C     C_R   0.782269 0.299283 0.143432 -0.040810
C169  C     C_R   0.281216 0.199151 0.360499 -0.029673
C170  C     C_R   0.706469 0.624991 0.785071 -0.030702
C171  C     C_R   0.293489 0.624908 0.214885 -0.030637
C172  C     C_R   0.799817 0.282423 0.643727 -0.039954
C173  C     C_R   0.800942 0.719123 0.360887 -0.029125
C174  C     C_R   0.375121 0.293305 0.784968 -0.030640
C175  C     C_R   0.626499 0.291347 0.217919 -0.043903
C176  C     C_R   0.199200 0.718893 0.639486 -0.029066
N33   N     N_R   0.616068 0.862828 0.854533 0.239846
O1    O     O_R   0.560093 0.868539 0.876415 -0.334616
O2    O     O_R   0.644066 0.912138 0.833651 -0.335956
N34   N     N_R   0.045488 0.291485 0.286291 0.242418
O3    O     O_R   0.006218 0.312854 0.325678 -0.332090
O4    O     O_R   0.038101 0.306689 0.230307 -0.329315
N35   N     N_R   0.715164 0.039463 0.705188 0.245497
O5    O     O_R   0.655676 0.028098 0.709715 -0.310208
O6    O     O_R   0.753933 0.992738 0.704172 -0.373746
N36   N     N_R   0.384460 0.862244 0.144105 0.240726
O7    O     O_R   0.440381 0.867532 0.121986 -0.333059
O8    O     O_R   0.356796 0.911839 0.164676 -0.377213
N37   N     N_R   0.137907 0.384299 0.855873 0.242098
O9    O     O_R   0.132686 0.440222 0.877942 -0.339346
O10   O     O_R   0.088245 0.356622 0.835352 -0.373828
N38   N     N_R   0.708322 0.954585 0.286342 0.238267
O11   O     O_R   0.686772 0.993707 0.325772 -0.340088
O12   O     O_R   0.693285 0.962135 0.230331 -0.381416
N39   N     N_R   0.291826 0.954472 0.713578 0.237747
O13   O     O_R   0.313134 0.993653 0.674031 -0.343338
O14   O     O_R   0.307023 0.962081 0.769533 -0.380725
N40   N     N_R   0.862141 0.383999 0.143555 0.241183
O15   O     O_R   0.866902 0.440075 0.121680 -0.341551
O16   O     O_R   0.912167 0.356345 0.163257 -0.320067
N41   N     N_R   0.357885 0.111823 0.367188 0.245656
O17   O     O_R   0.389981 0.073564 0.334063 -0.310638
O18   O     O_R   0.373166 0.118441 0.423248 -0.367953
N42   N     N_R   0.784736 0.539437 0.794994 0.246446
O19   O     O_R   0.844219 0.528066 0.790496 -0.310837
O20   O     O_R   0.745931 0.492717 0.796045 -0.363229
N43   N     N_R   0.215138 0.539383 0.205170 0.240391
O21   O     O_R   0.155651 0.528047 0.209892 -0.332704
O22   O     O_R   0.253896 0.492649 0.204023 -0.376389
N44   N     N_R   0.883984 0.362872 0.645220 0.242966
O23   O     O_R   0.939978 0.368623 0.623379 -0.326416
O24   O     O_R   0.855976 0.412160 0.666043 -0.327827
N45   N     N_R   0.888642 0.642930 0.368223 0.241337
O25   O     O_R   0.927500 0.611032 0.335560 -0.336820
O26   O     O_R   0.881672 0.627855 0.424296 -0.354226
N46   N     N_R   0.460647 0.214973 0.794674 0.240112
O27   O     O_R   0.472026 0.155505 0.790269 -0.323888
O28   O     O_R   0.507384 0.253764 0.795688 -0.375876
N47   N     N_R   0.545164 0.208096 0.215292 0.241285
O29   O     O_R   0.506682 0.185695 0.175663 -0.335716
O30   O     O_R   0.536689 0.194258 0.271455 -0.355725
N48   N     N_R   0.111515 0.642616 0.632376 0.241760
O31   O     O_R   0.072773 0.610664 0.665171 -0.330556
O32   O     O_R   0.118363 0.627539 0.576308 -0.359179

loop_
_geom_bond_atom_site_label_1
_geom_bond_atom_site_label_2
_geom_bond_distance
_ccdc_geom_bond_type
N32   Ni7   1.853069 S    
C4    H4    1.079583 S    
C5    H5    1.079753 S    
C62   C126  1.391400 A    
C2    C98   1.391595 A    
C53   C69   1.408960 A    
C114  C130  1.400318 A    
C75   C171  1.415163 A    
C145  C161  1.398715 A    
N35   O6    1.301470 A    
C31   C110  1.390853 A    
C23   C111  1.392015 A    
N45   O25   1.301494 A    
N25   Ni6   1.852800 S    
C44   C84   1.397140 A    
C118  C134  1.400416 A    
C18   C106  1.390474 A    
C112  C141  1.472805 S    
N18   Ni6   1.853832 S    
N21   N32   1.378929 A    
N23   N30   1.379359 A    
C108  C137  1.472301 S    
N13   Ni1   1.853807 S    
C67   C76   1.400899 A    
C46   H78   1.084446 S    
C39   H71   1.084490 S    
C30   C111  1.390766 A    
N42   O19   1.301517 A    
H37   C117  1.081004 S    
C60   C124  1.390543 A    
C2    H2    1.077359 S    
C28   H28   1.079735 S    
C53   C117  1.390585 A    
N9    Ni2   1.852800 S    
C122  C138  1.401003 A    
C36   C51   1.398234 A    
C153  C169  1.398215 A    
C43   C60   1.399364 A    
C150  C166  1.399272 A    
N2    Ni2   1.853832 S    
N44   O23   1.301002 A    
C50   C114  1.390048 A    
C35   C52   1.399366 A    
N48   O31   1.301464 A    
C44   H76   1.084481 S    
C28   C105  1.384463 A    
N18   N27   1.378929 A    
C16   N16   1.336415 A    
C95   N47   1.435127 S    
C99   C130  1.470804 S    
N35   O5    1.301477 A    
C85   N37   1.435012 S    
N36   O7    1.301020 A    
N3    N10   1.379359 A    
C63   C79   1.409293 A    
C64   C80   1.408337 A    
C34   H66   1.084103 S    
C119  C135  1.400455 A    
C24   H24   1.079732 S    
C131  C147  1.403372 A    
N34   O3    1.300964 A    
C38   H70   1.084106 S    
C105  C144  1.472773 S    
C4    N4    1.336278 A    
H62   C158  1.077709 S    
N6    N15   1.378929 A    
N46   O27   1.301470 A    
H58   C154  1.077769 S    
C23   H23   1.077529 S    
C26   N26   1.337719 A    
C50   C66   1.409276 A    
C130  C146  1.402813 A    
C9    H9    1.079744 S    
C30   N30   1.336578 A    
C70   C77   1.401046 A    
C13   H13   1.079599 S    
C79   C175  1.416638 A    
C80   C176  1.414856 A    
N6    Ni1   1.852792 S    
C159  C175  1.398214 A    
C70   C166  1.416439 A    
N48   O32   1.301449 A    
C20   C108  1.385355 A    
C15   C102  1.390557 A    
N22   N31   1.378929 A    
N21   Ni6   1.852789 S    
C12   H12   1.079745 S    
N41   O17   1.301467 A    
C7    H7    1.077536 S    
C91   N43   1.438924 S    
C8    H8    1.079747 S    
H36   C116  1.080996 S    
C129  C145  1.403698 A    
C127  C143  1.399967 A    
C128  C144  1.402111 A    
H41   C121  1.081011 S    
C36   C92   1.396892 A    
C47   H79   1.084441 S    
C37   C93   1.398664 A    
C124  C140  1.401153 A    
C125  C141  1.402098 A    
C67   C163  1.415293 A    
C40   C96   1.398632 A    
C68   C75   1.401128 A    
C57   C121  1.391494 A    
C69   C78   1.401047 A    
N8    N13   1.379359 A    
C37   C54   1.398799 A    
N24   Ni7   1.853076 S    
C72   C79   1.400870 A    
C31   N31   1.336675 A    
C158  C174  1.398743 A    
C59   C75   1.408719 A    
C86   N38   1.435121 S    
N38   O11   1.301067 A    
C84   C164  1.416372 A    
C57   C73   1.408481 A    
C48   C63   1.398138 A    
N40   O16   1.301175 A    
H44   C124  1.081000 S    
C18   N18   1.336589 A    
N17   N28   1.378929 A    
C15   N15   1.336644 A    
C61   C77   1.408345 A    
C43   H75   1.084107 S    
C1    N1    1.336102 A    
C6    H6    1.077276 S    
C27   N27   1.337409 A    
C41   H73   1.084493 S    
C54   C70   1.409244 A    
C40   C55   1.398795 A    
C146  C162  1.399136 A    
C42   C82   1.397239 A    
N33   O2    1.301318 A    
C111  C142  1.471932 S    
C25   H25   1.079708 S    
C116  C132  1.401253 A    
C19   N19   1.336813 A    
H52   C148  1.076109 S    
C132  C148  1.403870 A    
H53   C149  1.076096 S    
N37   O10   1.301246 A    
C29   H29   1.079743 S    
C120  C136  1.401002 A    
H55   C151  1.076915 S    
C31   H31   1.077145 S    
C32   H32   1.079583 S    
C7    C103  1.391338 A    
C16   C101  1.384728 A    
C17   H17   1.079741 S    
N43   O22   1.301528 A    
C92   C172  1.416300 A    
C93   C173  1.415566 A    
C11   C98   1.391456 A    
N29   Ni5   1.853807 S    
C9    C100  1.385312 A    
C89   C169  1.415520 A    
C52   C68   1.408960 A    
C3    H3    1.077257 S    
C13   C104  1.384772 A    
C154  C170  1.398824 A    
C38   C53   1.399312 A    
C100  C129  1.472106 S    
C43   C83   1.398871 A    
C20   N20   1.337749 A    
C109  C140  1.471873 S    
C21   C109  1.385141 A    
C110  C139  1.472056 S    
C104  C133  1.472253 S    
C106  C143  1.469988 S    
C32   N32   1.336213 A    
C2    N2    1.337068 A    
H50   C146  1.076967 S    
C97   C136  1.471054 S    
H35   C115  1.081442 S    
H34   C114  1.081283 S    
C101  C132  1.472441 S    
C11   N11   1.337074 A    
C24   C112  1.384401 A    
C55   C119  1.390274 A    
C160  C176  1.398587 A    
C41   C58   1.398254 A    
C41   C81   1.396899 A    
C96   N48   1.438806 S    
C6    C102  1.391635 A    
C140  C156  1.403666 A    
C45   C62   1.398265 A    
C141  C157  1.403984 A    
C36   H68   1.084512 S    
N42   O20   1.301479 A    
C47   C64   1.398898 A    
C33   C50   1.398715 A    
N28   Ni8   1.854145 S    
H45   C125  1.080991 S    
C40   H72   1.084130 S    
N11   Ni3   1.854148 S    
H59   C155  1.077773 S    
H33   C113  1.080999 S    
C10   H10   1.077492 S    
C3    C99   1.391457 A    
C61   C125  1.391614 A    
C39   C56   1.398790 A    
C1    C97   1.384552 A    
C51   C115  1.391060 A    
C113  C129  1.401245 A    
C14   H14   1.077386 S    
N26   Ni5   1.852797 S    
C49   C113  1.390711 A    
C157  C173  1.398589 A    
N1    N12   1.378929 A    
N44   O24   1.301298 A    
C19   C107  1.390835 A    
N23   Ni8   1.853076 S    
C117  C133  1.401210 A    
C103  C134  1.471216 S    
H48   C128  1.080983 S    
C17   C105  1.385330 A    
N17   Ni5   1.853832 S    
C81   C161  1.416272 A    
C138  C154  1.403432 A    
N14   Ni2   1.853807 S    
C5    N5    1.337215 A    
N12   Ni4   1.854145 S    
C142  C158  1.403518 A    
C87   C167  1.415916 A    
C45   H77   1.084484 S    
C88   C168  1.415865 A    
C133  C149  1.403824 A    
N31   Ni8   1.853069 S    
N36   O8    1.301256 A    
C139  C155  1.403512 A    
C10   N10   1.336942 A    
C15   H15   1.076914 S    
C10   C99   1.391234 A    
C126  C142  1.401089 A    
C54   C118  1.390334 A    
N10   Ni1   1.852797 S    
N39   O13   1.300977 A    
C14   C103  1.391715 A    
C22   H22   1.077523 S    
C59   C123  1.391446 A    
N34   O4    1.301166 A    
N1    Ni1   1.853832 S    
N45   O26   1.301457 A    
C21   N21   1.337235 A    
C8    N8    1.337087 A    
H56   C152  1.076132 S    
C86   C166  1.415994 A    
N46   O28   1.301469 A    
C34   C49   1.399431 A    
C51   C67   1.408804 A    
C62   C78   1.408755 A    
C27   C106  1.391084 A    
C55   C71   1.409187 A    
C56   C72   1.408813 A    
C25   C108  1.384010 A    
C94   N46   1.439013 S    
C76   C172  1.416055 A    
C77   C173  1.414839 A    
N47   O29   1.300975 A    
C147  C163  1.398666 A    
C52   C116  1.390682 A    
C39   C95   1.396408 A    
N4    Ni4   1.854123 S    
C123  C139  1.401159 A    
C73   C169  1.414853 A    
C102  C131  1.471537 S    
C26   H26   1.077466 S    
C58   C74   1.408765 A    
C45   C85   1.397112 A    
C56   C120  1.390209 A    
H54   C150  1.076874 S    
C35   H67   1.084111 S    
C69   C165  1.415996 A    
C12   N12   1.336535 A    
C33   H65   1.084167 S    
C63   C127  1.390252 A    
C44   C59   1.398296 A    
C18   H18   1.077413 S    
C37   H69   1.084129 S    
C6    N6    1.337870 A    
N16   Ni3   1.853069 S    
C94   C174  1.415248 A    
C60   C76   1.409015 A    
C90   C170  1.415245 A    
C151  C167  1.399323 A    
C38   C94   1.398908 A    
H39   C119  1.081282 S    
C25   N25   1.335833 A    
C48   H80   1.084517 S    
C78   C174  1.415156 A    
C87   N39   1.435021 S    
N43   O21   1.301710 A    
C74   C170  1.415296 A    
C155  C171  1.398845 A    
C29   N29   1.337618 A    
C143  C159  1.402120 A    
N2    N11   1.378929 A    
N5    Ni2   1.852789 S    
N38   O12   1.301257 A    
C17   N17   1.337596 A    
C22   N22   1.338069 A    
N22   Ni5   1.852792 S    
C107  C138  1.471721 S    
C20   H20   1.079750 S    
C66   C73   1.400898 A    
H51   C147  1.077732 S    
C92   N44   1.435061 S    
H42   C122  1.081422 S    
C90   N42   1.439063 S    
C95   C175  1.415351 A    
N33   O1    1.301022 A    
C96   C176  1.415554 A    
C115  C131  1.400962 A    
C81   N33   1.435063 S    
C16   H16   1.079585 S    
N8    Ni3   1.853076 S    
C1    H1    1.079600 S    
C58   C122  1.391103 A    
C135  C151  1.402926 A    
N37   O9    1.300997 A    
N20   Ni8   1.854123 S    
C136  C152  1.403094 A    
C49   C65   1.408998 A    
C148  C164  1.399081 A    
C149  C165  1.399007 A    
H49   C145  1.076099 S    
C7    N7    1.336946 A    
C4    C100  1.384585 A    
C35   C91   1.398907 A    
C85   C165  1.416373 A    
C48   C88   1.396302 A    
C33   C89   1.398390 A    
C8    C104  1.385331 A    
C65   C74   1.400995 A    
C98   C135  1.471201 S    
N41   O18   1.301440 A    
C93   N45   1.438843 S    
C42   H74   1.084451 S    
C11   H11   1.077516 S    
C26   C107  1.391723 A    
C83   N35   1.439062 S    
C23   N23   1.338069 A    
C9    N9    1.337187 A    
N3    Ni3   1.854120 S    
C82   C162  1.415854 A    
C13   N13   1.336405 A    
N39   O14   1.301214 A    
C64   C128  1.391611 A    
C88   N40   1.435019 S    
C29   C112  1.385309 A    
H60   C156  1.076098 S    
H38   C118  1.081305 S    
N4    N9    1.379359 A    
C121  C137  1.401923 A    
H61   C157  1.077565 S    
C134  C150  1.402944 A    
N15   Ni4   1.853069 S    
N30   Ni6   1.853807 S    
C34   C90   1.398972 A    
N40   O15   1.300998 A    
H57   C153  1.077502 S    
C24   N24   1.336257 A    
H40   C120  1.081000 S    
H63   C159  1.076927 S    
C84   N36   1.435010 S    
C28   N28   1.336231 A    
C12   C97   1.384592 A    
C65   C161  1.416048 A    
H47   C127  1.081469 S    
H64   C160  1.077575 S    
C32   C109  1.384387 A    
C71   C80   1.401059 A    
N47   O30   1.301241 A    
C83   C163  1.415233 A    
C22   C110  1.392010 A    
C71   C167  1.416437 A    
N20   N25   1.379359 A    
N19   Ni7   1.854120 S    
C72   C168  1.416229 A    
C82   N34   1.434941 S    
N19   N26   1.379359 A    
N24   N29   1.379359 A    
C89   N41   1.438734 S    
C68   C164  1.416003 A    
C3    N3    1.337012 A    
C152  C168  1.398286 A    
C137  C153  1.403875 A    
C30   H30   1.076999 S    
N27   Ni7   1.854148 S    
C66   C162  1.416422 A    
C27   H27   1.077449 S    
C21   H21   1.079766 S    
C46   C86   1.397384 A    
N7    Ni4   1.853076 S    
C42   C57   1.398849 A    
C144  C160  1.403951 A    
C14   N14   1.337237 A    
C46   C61   1.398887 A    
C5    C101  1.385395 A    
C156  C172  1.398671 A    
C19   H19   1.076940 S    
C47   C87   1.397377 A    
N5    N16   1.378929 A    
H46   C126  1.081469 S    
N7    N14   1.379359 A    
H43   C123  1.081460 S    
C91   C171  1.415181 A    
