data_mof_unit_30823.cif
_audit_creation_date              2013-03-05T15:51:14-0500
_audit_creation_method            fapswitch 2.2
_symmetry_space_group_name_H-M    P1
_symmetry_Int_Tables_number       1
_space_group_crystal_system       triclinic
_cell_length_a                    19.190532
_cell_length_b                    10.978618
_cell_length_c                    18.684494
_cell_angle_alpha                 89.952101
_cell_angle_beta                  90.079744
_cell_angle_gamma                 89.919024
_cell_volume                      3936.54320889

loop_
_atom_site_label
_atom_site_type_symbol
_atom_site_description
_atom_site_fract_x
_atom_site_fract_y
_atom_site_fract_z
_atom_type_partial_charge
O1    O     O_R   0.787520 0.042810 0.170440 -0.520652
O2    O     O_R   0.212480 0.042810 0.829560 -0.526654
O3    O     O_R   0.287520 0.542810 0.170440 -0.520654
O4    O     O_R   0.712480 0.542810 0.829560 -0.526643
O5    O     O_R   0.765640 0.292100 0.175020 -0.500712
O6    O     O_R   0.234360 0.292100 0.824980 -0.498125
O7    O     O_R   0.265640 0.792100 0.175020 -0.500709
O8    O     O_R   0.734360 0.792100 0.824980 -0.498130
C1    C     C_R   0.711295 0.328025 0.138889 0.556902
C2    C     C_R   0.288663 0.328150 0.861128 0.560811
C3    C     C_R   0.211295 0.828025 0.138889 0.556904
C4    C     C_R   0.788663 0.828150 0.861128 0.560810
O9    O     O_R   0.670190 0.408840 0.168540 -0.464920
O10   O     O_R   0.329810 0.408840 0.831460 -0.461468
O11   O     O_R   0.170190 0.908840 0.168540 -0.464914
O12   O     O_R   0.829810 0.908840 0.831460 -0.461469
O13   O     O_R   0.556620 0.251410 0.175160 -0.527777
O14   O     O_R   0.443380 0.251410 0.824840 -0.526542
O15   O     O_R   0.056620 0.751410 0.175160 -0.527775
O16   O     O_R   0.943380 0.751410 0.824840 -0.526563
C5    C     C_R   0.530552 0.155832 0.147294 0.530357
C6    C     C_R   0.469432 0.155702 0.852714 0.532246
C7    C     C_R   0.030552 0.655832 0.147294 0.530358
C8    C     C_R   0.969432 0.655702 0.852714 0.532222
O17   O     O_R   0.545960 0.049620 0.170320 -0.485970
O18   O     O_R   0.454040 0.049620 0.829680 -0.486369
O19   O     O_R   0.045960 0.549620 0.170320 -0.485970
O20   O     O_R   0.954040 0.549620 0.829680 -0.486366
O21   O     O_R   0.681390 0.958010 0.176690 -0.469203
O22   O     O_R   0.318610 0.958010 0.823310 -0.471272
O23   O     O_R   0.181390 0.458010 0.176690 -0.469202
O24   O     O_R   0.818610 0.458010 0.823310 -0.471274
C9    C     C_R   0.742008 0.967688 0.148116 0.549336
C10   C     C_R   0.258014 0.967606 0.851901 0.542668
C11   C     C_R   0.242008 0.467688 0.148116 0.549330
C12   C     C_R   0.758015 0.467606 0.851901 0.542666
O25   O     O_R   0.787510 0.044390 0.330970 -0.470405
O26   O     O_R   0.212490 0.044390 0.669030 -0.499756
O27   O     O_R   0.287510 0.544390 0.330970 -0.470416
O28   O     O_R   0.712490 0.544390 0.669030 -0.499711
O29   O     O_R   0.765630 0.293570 0.323840 -0.538363
O30   O     O_R   0.234370 0.293570 0.676160 -0.526889
O31   O     O_R   0.265630 0.793570 0.323840 -0.538341
O32   O     O_R   0.734370 0.793570 0.676160 -0.526907
C13   C     C_R   0.731459 0.380579 0.350337 0.559212
C14   C     C_R   0.269027 0.384352 0.650072 0.538251
C15   C     C_R   0.231457 0.880576 0.350339 0.559181
C16   C     C_R   0.769027 0.884354 0.650073 0.538241
O33   O     O_R   0.670190 0.410420 0.329080 -0.449521
O34   O     O_R   0.329810 0.410420 0.670920 -0.498043
O35   O     O_R   0.170190 0.910420 0.329080 -0.449568
O36   O     O_R   0.829810 0.910420 0.670920 -0.498005
O37   O     O_R   0.556610 0.252880 0.323980 -0.434815
O38   O     O_R   0.443390 0.252880 0.676020 -0.470032
O39   O     O_R   0.056610 0.752880 0.323980 -0.434804
O40   O     O_R   0.943390 0.752880 0.676020 -0.470087
C17   C     C_R   0.532497 0.158511 0.353651 0.569091
C18   C     C_R   0.467140 0.156032 0.646488 0.588738
C19   C     C_R   0.032493 0.658512 0.353648 0.569098
C20   C     C_R   0.967144 0.656032 0.646489 0.588628
O41   O     O_R   0.545950 0.051210 0.330860 -0.539152
O42   O     O_R   0.454050 0.051210 0.669140 -0.519341
O43   O     O_R   0.045950 0.551210 0.330860 -0.539159
O44   O     O_R   0.954050 0.551210 0.669140 -0.519320
O45   O     O_R   0.681390 0.959480 0.325510 -0.491731
O46   O     O_R   0.318610 0.959480 0.674490 -0.510709
O47   O     O_R   0.181390 0.459480 0.325510 -0.491742
O48   O     O_R   0.818610 0.459480 0.674490 -0.510689
C21   C     C_R   0.727351 0.022966 0.361223 0.555550
C22   C     C_R   0.259866 0.977393 0.643844 0.570037
C23   C     C_R   0.227352 0.522966 0.361223 0.555538
C24   C     C_R   0.759870 0.477409 0.643839 0.569943
Cr1   Cr    Cr6+3 0.772010 0.169670 0.250090 1.043306
Cr2   Cr    Cr6+3 0.227990 0.169670 0.749910 1.032693
Cr3   Cr    Cr6+3 0.272010 0.669670 0.250090 1.043308
Cr4   Cr    Cr6+3 0.727990 0.669670 0.749910 1.032717
Cr5   Cr    Cr6+3 0.615000 0.323260 0.249260 1.115890
Cr6   Cr    Cr6+3 0.385000 0.323260 0.750740 1.082216
Cr7   Cr    Cr6+3 0.115000 0.823260 0.249260 1.115887
Cr8   Cr    Cr6+3 0.885000 0.823260 0.750740 1.082207
Cr9   Cr    Cr6+3 0.616710 0.010760 0.250840 1.083331
Cr10  Cr    Cr6+3 0.383290 0.010760 0.749160 1.081726
Cr11  Cr    Cr6+3 0.116710 0.510760 0.250840 1.083323
Cr12  Cr    Cr6+3 0.883290 0.510760 0.749160 1.081732
O49   O     O_3   0.667900 0.167900 0.250060 -0.329012
O50   O     O_3   0.332100 0.167900 0.749940 -0.304130
O51   O     O_3   0.167900 0.667900 0.250060 -0.329008
O52   O     O_3   0.832100 0.667900 0.749940 -0.304119
H1    H     H_    0.496640 0.969283 0.063364 0.187483
H2    H     H_    0.502912 0.969082 0.937036 0.187388
H3    H     H_    0.996640 0.469283 0.063364 0.187483
H4    H     H_    0.002912 0.469082 0.937036 0.187388
C25   C     C_R   0.499154 0.165058 0.924938 0.004038
C26   C     C_R   0.500740 0.165284 0.075098 0.004291
C27   C     C_R   0.999153 0.665058 0.924938 0.004039
C28   C     C_R   0.000740 0.665284 0.075098 0.004291
C29   C     C_R   0.502572 0.277602 0.962049 0.012662
C30   C     C_R   0.497424 0.277730 0.037792 0.012017
C31   C     C_R   0.002572 0.777603 0.962049 0.012665
C32   C     C_R   0.997424 0.777730 0.037792 0.012017
C33   C     C_R   0.497654 0.056544 0.036701 -0.180103
C34   C     C_R   0.502013 0.056412 0.963538 -0.180701
C35   C     C_R   0.997654 0.556544 0.036701 -0.180103
C36   C     C_R   0.002013 0.556412 0.963538 -0.180699
C37   C     C_R   0.511166 0.389823 0.926086 -0.118850
C38   C     C_R   0.488901 0.390088 0.073562 -0.119087
C39   C     C_R   0.011165 0.889823 0.926086 -0.118849
C40   C     C_R   0.988901 0.890088 0.073562 -0.119087
C41   C     C_R   0.006970 0.999745 0.963242 -0.119355
C42   C     C_R   0.993109 0.999891 0.036201 -0.119521
C43   C     C_R   0.506970 0.499744 0.963242 -0.119357
C44   C     C_R   0.493109 0.499891 0.036201 -0.119521
H5    H     H_    0.523350 0.393923 0.869665 0.160026
H6    H     H_    0.476770 0.394395 0.129987 0.162862
H7    H     H_    0.023350 0.893923 0.869665 0.160002
H8    H     H_    0.976770 0.894395 0.129987 0.162864
H9    H     H_    0.013955 0.084798 0.935114 0.192174
H10   H     H_    0.986257 0.085076 0.064184 0.192521
H11   H     H_    0.513955 0.584797 0.935114 0.192175
H12   H     H_    0.486257 0.585076 0.064184 0.192521
C45   C     C_R   0.780172 0.837298 0.938844 -0.005318
C46   C     C_R   0.219806 0.837130 0.061181 -0.004782
C47   C     C_R   0.280172 0.337298 0.938844 -0.005318
C48   C     C_R   0.719806 0.337130 0.061181 -0.004781
C49   C     C_R   0.722476 0.791944 0.976614 -0.016817
C50   C     C_R   0.277577 0.791657 0.023495 -0.017361
C51   C     C_R   0.222476 0.291944 0.976614 -0.016817
C52   C     C_R   0.777577 0.291657 0.023495 -0.017361
C53   C     C_R   0.712408 0.824106 0.047855 0.068544
C54   C     C_R   0.287676 0.823883 0.952249 0.068802
C55   C     C_R   0.212408 0.324106 0.047855 0.068544
C56   C     C_R   0.787676 0.323883 0.952249 0.068800
C57   C     C_R   0.823175 0.922917 0.049869 -0.143861
C58   C     C_R   0.176804 0.922838 0.950066 -0.144203
C59   C     C_R   0.323175 0.422917 0.049869 -0.143862
C60   C     C_R   0.676804 0.422838 0.950066 -0.144199
C61   C     C_R   0.833274 0.891627 0.978599 -0.124265
C62   C     C_R   0.166687 0.891577 0.021356 -0.124209
C63   C     C_R   0.333274 0.391627 0.978599 -0.124266
C64   C     C_R   0.666687 0.391577 0.021356 -0.124209
C65   C     C_3   0.645921 0.797526 0.961149 -0.235227
C66   C     C_3   0.354123 0.797141 0.039000 -0.234931
C67   C     C_3   0.145921 0.297527 0.961149 -0.235227
C68   C     C_3   0.854123 0.297141 0.039000 -0.234931
C69   C     C_3   0.635781 0.835363 0.038988 0.090340
C70   C     C_3   0.364265 0.835124 0.961159 0.090902
C71   C     C_3   0.135781 0.335363 0.038988 0.090340
C72   C     C_3   0.864265 0.335124 0.961159 0.090902
C73   C     C_R   0.759650 0.898829 0.083703 -0.003127
C74   C     C_R   0.240386 0.898665 0.916308 -0.002589
C75   C     C_R   0.259650 0.398829 0.083703 -0.003128
C76   C     C_R   0.740386 0.398665 0.916308 -0.002589
H13   H     H_    0.861680 0.979129 0.075619 0.150584
H14   H     H_    0.138274 0.979156 0.924243 0.150000
H15   H     H_    0.361680 0.479129 0.075619 0.150584
H16   H     H_    0.638274 0.479156 0.924243 0.150003
H17   H     H_    0.879782 0.921014 0.952445 0.201182
H18   H     H_    0.120171 0.921117 0.047478 0.200674
H19   H     H_    0.379782 0.421014 0.952445 0.201181
H20   H     H_    0.620171 0.421117 0.047478 0.200674
H21   H     H_    0.124261 0.206496 0.947954 0.161712
H22   H     H_    0.875888 0.206065 0.052233 0.161496
H23   H     H_    0.624261 0.706496 0.947954 0.161712
H24   H     H_    0.375888 0.706066 0.052233 0.161496
H25   H     H_    0.632215 0.870868 0.922526 0.134879
H26   H     H_    0.367718 0.870389 0.077609 0.135363
H27   H     H_    0.132215 0.370868 0.922526 0.134880
H28   H     H_    0.867718 0.370389 0.077609 0.135364
H29   H     H_    0.617142 0.930225 0.045979 0.114694
H30   H     H_    0.382737 0.930010 0.954153 0.115131
H31   H     H_    0.117142 0.430225 0.045979 0.114695
H32   H     H_    0.882737 0.430010 0.954153 0.115131
C77   C     C_R   0.487491 0.160280 0.572515 -0.036244
C78   C     C_R   0.500519 0.175609 0.423528 -0.016382
C79   C     C_R   0.987484 0.660270 0.572511 -0.036224
C80   C     C_R   0.000508 0.675613 0.423523 -0.016352
C81   C     C_R   0.456893 0.074352 0.527308 -0.054399
C82   C     C_R   0.463110 0.080882 0.454585 -0.053283
C83   C     C_R   0.956874 0.574356 0.527304 -0.054394
C84   C     C_R   0.963096 0.580886 0.454579 -0.053290
C85   C     C_R   0.520294 0.276455 0.467879 0.157289
C86   C     C_R   0.517579 0.264436 0.543117 0.152246
C87   C     C_R   0.020289 0.776451 0.467877 0.157239
C88   C     C_R   0.017590 0.764405 0.543111 0.152349
C89   C     C_3   0.462256 0.938677 0.527837 -0.222465
C90   C     C_3   0.465878 0.944998 0.446953 -0.232570
C91   C     C_3   0.962241 0.438680 0.527829 -0.222452
C92   C     C_3   0.965866 0.445003 0.446946 -0.232568
H33   H     H_    0.914660 0.394367 0.548327 0.160538
H34   H     H_    0.015313 0.407694 0.425713 0.188168
H35   H     H_    0.414674 0.894371 0.548337 0.160528
H36   H     H_    0.515323 0.907687 0.425717 0.188168
H37   H     H_    0.511396 0.906193 0.552983 0.170415
H38   H     H_    0.418452 0.908773 0.420350 0.151091
H39   H     H_    0.011380 0.406200 0.552977 0.170447
H40   H     H_    0.918442 0.408776 0.420340 0.151093
C93   C     C_R   0.748568 0.948920 0.584695 0.012880
C94   C     C_R   0.255418 0.916973 0.419824 0.046144
C95   C     C_R   0.248566 0.448912 0.584694 0.012911
C96   C     C_R   0.755430 0.416978 0.419818 0.046220
C97   C     C_R   0.802351 0.998671 0.543673 -0.016238
C98   C     C_R   0.238670 0.027788 0.449033 0.008947
C99   C     C_R   0.302348 0.498673 0.543674 -0.016226
C100  C     C_R   0.738709 0.527812 0.449019 0.008933
C101  C     C_R   0.794048 0.016758 0.472199 -0.041883
C102  C     C_R   0.234651 0.041860 0.520711 0.031183
C103  C     C_R   0.294048 0.516773 0.472201 -0.041880
C104  C     C_R   0.734692 0.541900 0.520697 0.031190
C105  C     C_R   0.671805 0.979233 0.481871 -0.139898
C106  C     C_R   0.282737 0.843441 0.540406 -0.147860
C107  C     C_R   0.171806 0.479210 0.481867 -0.139876
C108  C     C_R   0.782729 0.343447 0.540404 -0.147931
C109  C     C_R   0.680818 0.950831 0.555384 -0.143078
C110  C     C_R   0.283478 0.827191 0.466080 -0.156393
C111  C     C_R   0.180818 0.450807 0.555379 -0.142997
C112  C     C_R   0.783472 0.327188 0.466079 -0.156347
C113  C     C_3   0.876465 0.959110 0.533133 -0.239215
C114  C     C_3   0.203103 0.144128 0.431568 -0.199721
C115  C     C_3   0.376463 0.459113 0.533137 -0.239222
C116  C     C_3   0.703139 0.644143 0.431544 -0.199738
C117  C     C_3   0.865545 0.974942 0.453301 -0.079595
C118  C     C_3   0.201689 0.164480 0.513276 -0.101147
C119  C     C_3   0.365548 0.474965 0.453306 -0.079584
C120  C     C_3   0.701737 0.664524 0.513249 -0.101165
C121  C     C_R   0.730531 0.002366 0.438356 -0.004635
C122  C     C_R   0.255319 0.951134 0.568887 0.061364
C123  C     C_R   0.230532 0.502365 0.438356 -0.004647
C124  C     C_R   0.755331 0.451161 0.568879 0.061277
H41   H     H_    0.620500 0.976238 0.458572 0.136712
H42   H     H_    0.302927 0.772541 0.575092 0.135605
H43   H     H_    0.120502 0.476199 0.458565 0.136723
H44   H     H_    0.802899 0.272537 0.575094 0.135594
H45   H     H_    0.636726 0.921443 0.586957 0.127092
H46   H     H_    0.302535 0.742408 0.444966 0.139386
H47   H     H_    0.136727 0.421402 0.586948 0.127135
H48   H     H_    0.802510 0.242390 0.444971 0.139380
H49   H     H_    0.885946 0.863763 0.550613 0.135805
H50   H     H_    0.151724 0.129189 0.405591 0.240826
H51   H     H_    0.385939 0.363760 0.550610 0.135757
H52   H     H_    0.651758 0.629186 0.405576 0.240830
H53   H     H_    0.912549 0.027824 0.555830 0.205985
H54   H     H_    0.237504 0.208390 0.402536 0.119783
H55   H     H_    0.412545 0.527817 0.555848 0.205956
H56   H     H_    0.737535 0.708393 0.402497 0.119831
H57   H     H_    0.897408 0.048593 0.428963 0.199270
H58   H     H_    0.238434 0.235025 0.531312 0.082945
H59   H     H_    0.397413 0.548624 0.428979 0.199256
H60   H     H_    0.738487 0.735074 0.531267 0.082910
N1    N     N_R   0.550053 0.384721 0.438312 0.119242
O53   O     O_R   0.607349 0.426799 0.464975 -0.307287
O54   O     O_R   0.516200 0.449689 0.391541 -0.294217
N2    N     N_R   0.549343 0.352791 0.589616 0.112951
O55   O     O_R   0.531576 0.466847 0.586269 -0.314123
O56   O     O_R   0.592890 0.317634 0.638958 -0.338320
N3    N     N_R   0.050012 0.884756 0.438312 0.119094
O57   O     O_R   0.107257 0.926967 0.465019 -0.307237
O58   O     O_R   0.016157 0.949637 0.391499 -0.294293
N4    N     N_R   0.049432 0.852665 0.589607 0.113074
O59   O     O_R   0.031482 0.966675 0.586527 -0.314438
O60   O     O_R   0.093210 0.817423 0.638723 -0.338372
C125  C     C_2   0.865268 0.855627 0.413361 0.271304
H61   H     H_    0.847848 0.772920 0.439585 0.073157
O61   O     O_2   0.884338 0.851015 0.351147 -0.446353
C126  C     C_2   0.129799 0.173097 0.545388 0.322169
H62   H     H_    0.123070 0.164167 0.602656 0.168639
O62   O     O_2   0.078794 0.194764 0.508321 -0.495774
C127  C     C_2   0.365279 0.355660 0.413355 0.271310
H63   H     H_    0.347836 0.272952 0.439562 0.073166
O63   O     O_2   0.384382 0.351060 0.351152 -0.446368
C128  C     C_2   0.629852 0.673175 0.545366 0.322176
H64   H     H_    0.623134 0.664355 0.602637 0.168551
O64   O     O_2   0.578839 0.694748 0.508299 -0.495636
N5    N     N_R   0.598575 0.745833 0.082446 0.072560
O65   O     O_R   0.545813 0.780272 0.121048 -0.365622
O66   O     O_R   0.624408 0.637548 0.092316 -0.347687
N6    N     N_R   0.401627 0.745707 0.917723 0.071858
O67   O     O_R   0.454348 0.780278 0.879150 -0.368702
O68   O     O_R   0.375844 0.637590 0.907662 -0.348492
N7    N     N_R   0.098575 0.245833 0.082446 0.072561
O69   O     O_R   0.045813 0.280272 0.121048 -0.365622
O70   O     O_R   0.124408 0.137548 0.092315 -0.347687
N8    N     N_R   0.901627 0.245707 0.917723 0.071858
O71   O     O_R   0.954348 0.280278 0.879150 -0.368702
O72   O     O_R   0.875844 0.137590 0.907662 -0.348493

loop_
_geom_bond_atom_site_label_1
_geom_bond_atom_site_label_2
_geom_bond_distance
_ccdc_geom_bond_type
C18   O42   1.251748 A    
C80   C87   1.434692 A    
C107  C111  1.418528 A    
C19   C80   1.455618 S    
O4    C12   1.271171 A    
C57   C61   1.389297 A    
C33   C34   1.369700 A    
O39   C19   1.263316 A    
O20   Cr12  2.070244 S    
C39   C41   1.395010 A    
O29   C13   1.259969 A    
C66   C70   1.525479 S    
N4    O60   1.301532 A    
C43   C44   1.389289 A    
C90   H38   1.110704 S    
C69   N5    1.462034 S    
C68   C72   1.525479 S    
C42   H10   1.079779 S    
O29   Cr1   1.940937 S    
N3    O58   1.300228 A    
C29   C30   1.418817 A    
C10   C74   1.461456 S    
O1    C9    1.272241 A    
C66   H26   1.111844 S    
C38   C44   1.395002 A    
C85   C86   1.412878 A    
C13   C96   1.434017 S    
O7    C3    1.302068 A    
C80   C84   1.391388 A    
C116  H56   1.108823 S    
N1    O53   1.292633 A    
C72   N8    1.461984 S    
C38   H6    1.081049 S    
C95   C111  1.410202 A    
C91   C92   1.514497 S    
O24   C12   1.284600 A    
C37   H5    1.081046 S    
C51   C55   1.391094 A    
C87   N3    1.430381 S    
C114  H54   1.108828 S    
C70   N6    1.461985 S    
C66   H24   1.110628 S    
C125  H61   1.084843 S    
C60   H16   1.076592 S    
C72   H32   1.108564 S    
C27   C31   1.418907 A    
O47   C23   1.307636 A    
C54   C70   1.484272 S    
C5    C26   1.468039 S    
C50   C54   1.391008 A    
C81   C89   1.492959 S    
C115  H51   1.110966 S    
C58   C74   1.399492 A    
O21   C9    1.285130 A    
O8    Cr4   1.947342 S    
C1    C48   1.464677 S    
O23   Cr11  1.949271 S    
C7    C28   1.468040 S    
C100  C116  1.483200 S    
C92   H34   1.107164 S    
O30   C14   1.294312 A    
N2    O55   1.298737 A    
C45   C61   1.395127 A    
O32   Cr4   1.939564 S    
C1    O9    1.310120 A    
O44   Cr12  2.069499 S    
C86   N2    1.438386 S    
C104  C124  1.398620 A    
C84   C92   1.499608 S    
N5    O66   1.300290 A    
C3    O11   1.310122 A    
C120  H60   1.100896 S    
C102  C122  1.398601 A    
C4    C45   1.464928 S    
C108  C112  1.400387 A    
C26   C33   1.394605 A    
C49   C65   1.498048 S    
C126  H62   1.082346 S    
C54   C74   1.394238 A    
N7    O69   1.299912 A    
C15   C94   1.434012 S    
C101  C121  1.381720 A    
O6    Cr2   1.947342 S    
C7    O19   1.276746 A    
O7    Cr3   1.945484 S    
O3    Cr3   2.060744 S    
Cr4   O52   1.997991 S    
C119  C127  1.508126 S    
O2    Cr2   2.059631 S    
C60   C64   1.389196 A    
C48   C52   1.405475 A    
C91   H39   1.111187 S    
C14   C95   1.464644 S    
O2    C10   1.271171 A    
O10   Cr6   2.069594 S    
C37   C43   1.395011 A    
C63   H19   1.068285 S    
O18   Cr10  2.070244 S    
C107  C123  1.413746 A    
C78   C82   1.391363 A    
Cr8   O52   1.986181 S    
C83   C91   1.492966 S    
C95   C99   1.397923 A    
C106  C122  1.399284 A    
O5    C1    1.302070 A    
C110  H46   1.075086 S    
C11   C75   1.461682 S    
C99   C115  1.499824 S    
C109  H45   1.081630 S    
O34   Cr6   2.062042 S    
C78   C85   1.434693 A    
Cr7   O51   1.983694 S    
C60   C76   1.399492 A    
C58   H14   1.076591 S    
C71   H31   1.108574 S    
C89   H35   1.104104 S    
C113  H53   1.108906 S    
O31   Cr3   1.940937 S    
O24   Cr12  1.949625 S    
C69   H29   1.108574 S    
C32   C40   1.412846 A    
N1    O54   1.300221 A    
O22   C10   1.284600 A    
C41   H9    1.079728 S    
O48   Cr12  1.950028 S    
O14   Cr6   1.945675 S    
C4    O12   1.310699 A    
C67   H21   1.110696 S    
C114  C118  1.543387 S    
C111  H47   1.081632 S    
C46   C62   1.394833 A    
C113  C117  1.515801 S    
C128  H64   1.082271 S    
C2    C47   1.464928 S    
C2    O10   1.310699 A    
C59   H15   1.076650 S    
H3    C35   1.079632 S    
C44   H12   1.079778 S    
O16   Cr8   1.945675 S    
C103  C119  1.489261 S    
C12   C76   1.461456 S    
C15   O35   1.282535 A    
C77   C81   1.396330 A    
C119  H59   1.111782 S    
O27   C23   1.307677 A    
C106  C110  1.400394 A    
C115  C119  1.515799 S    
O11   Cr7   2.069808 S    
C50   C66   1.498165 S    
C105  C109  1.418539 A    
O40   C20   1.281829 A    
C118  H58   1.100891 S    
O43   Cr11  2.069212 S    
O48   C24   1.278597 A    
O12   Cr8   2.069594 S    
C56   C72   1.484272 S    
O41   Cr9   2.069212 S    
C46   C50   1.405475 A    
O15   C7    1.274395 A    
C87   C88   1.412845 A    
O6    C2    1.303249 A    
C45   C49   1.405352 A    
C96   C100  1.371767 A    
O46   Cr10  1.950028 S    
O39   Cr7   1.951086 S    
O25   C21   1.307685 A    
C62   H18   1.068141 S    
C25   C29   1.418907 A    
C47   C51   1.405352 A    
C31   C32   1.418819 A    
C126  O62   1.221270 D    
O3    C11   1.272241 A    
O40   Cr8   1.950756 S    
O8    C4    1.303249 A    
Cr11  O51   1.986526 S    
C67   H27   1.111846 S    
C28   C35   1.394604 A    
O13   Cr5   1.947896 S    
C13   O33   1.282557 A    
N8    O71   1.299917 A    
C57   C73   1.399456 A    
C88   N4    1.438290 S    
C115  H55   1.108904 S    
C51   C67   1.498049 S    
O47   Cr11  1.948340 S    
Cr2   O50   1.997991 S    
C90   H36   1.107166 S    
O15   Cr7   1.947896 S    
C52   C68   1.498165 S    
C39   H7    1.081046 S    
C106  H42   1.083334 S    
O30   Cr2   1.939564 S    
C107  H43   1.076525 S    
C81   C82   1.366025 A    
C97   C101  1.359085 A    
C94   C98   1.371770 A    
C43   H11   1.079729 S    
Cr3   O51   1.998048 S    
O26   C22   1.260526 A    
N6    O68   1.300311 A    
C77   C86   1.394414 A    
C65   H23   1.110696 S    
C117  C125  1.508126 S    
O27   Cr3   2.063505 S    
C70   H30   1.108563 S    
O9    Cr5   2.069808 S    
C98   C102  1.350568 A    
O37   Cr5   1.951086 S    
C56   C76   1.394238 A    
C6    C25   1.468068 S    
C57   H13   1.076651 S    
C19   O43   1.279071 A    
C8    C27   1.468067 S    
C3    C46   1.464677 S    
C104  C120  1.492889 S    
C114  H50   1.110819 S    
C18   C77   1.437521 S    
C94   C110  1.415720 A    
C113  H49   1.110966 S    
C67   C71   1.525527 S    
C116  C120  1.543375 S    
C93   C109  1.410204 A    
C27   C36   1.394334 A    
C8    O20   1.276831 A    
C125  O61   1.220238 D    
O26   Cr2   2.065748 S    
O25   Cr1   2.063505 S    
C103  C123  1.381734 A    
C59   C75   1.399455 A    
C5    O17   1.276746 A    
C108  H44   1.083335 S    
C52   C56   1.391008 A    
C108  C124  1.399281 A    
O37   C17   1.263315 A    
O22   Cr10  1.949625 S    
O28   C24   1.260525 A    
H1    C33   1.079632 S    
C112  H48   1.075077 S    
O14   C6    1.273622 A    
H4    C36   1.079574 S    
C23   C123  1.459815 S    
C29   C37   1.412837 A    
C48   C64   1.394832 A    
O5    Cr1   1.945484 S    
C22   C122  1.432702 S    
C89   H37   1.111184 S    
C117  H57   1.111779 S    
O17   Cr9   2.068934 S    
C21   C121  1.459821 S    
C25   C34   1.394333 A    
C58   C62   1.389197 A    
C79   C83   1.396329 A    
C127  H63   1.084846 S    
C40   C42   1.395002 A    
C17   O41   1.279062 A    
C100  C104  1.350591 A    
C71   N7    1.462035 S    
N2    O56   1.301406 A    
C65   C69   1.525528 S    
C83   C84   1.366062 A    
N5    O65   1.299912 A    
C31   C39   1.412837 A    
C14   O34   1.262585 A    
N8    O72   1.300312 A    
C30   C38   1.412846 A    
C93   C97   1.397931 A    
C61   H17   1.068284 S    
C16   C93   1.464652 S    
C20   O44   1.251757 A    
C59   C63   1.389298 A    
O1    Cr1   2.060744 S    
C65   H25   1.111846 S    
C40   H8    1.081049 S    
H2    C34   1.079573 S    
O19   Cr11  2.068934 S    
N4    O59   1.298944 A    
C97   C113  1.499835 S    
Cr1   O49   1.998048 S    
C105  C121  1.413744 A    
O32   C16   1.294324 A    
C9    C73   1.461682 S    
C41   C42   1.389289 A    
C64   H20   1.068143 S    
Cr10  O50   1.984134 S    
C127  O63   1.220235 D    
C98   C114  1.483225 S    
C89   C90   1.514507 S    
O46   C22   1.278601 A    
Cr12  O52   1.984134 S    
C99   C103  1.359092 A    
C102  C118  1.492878 S    
O45   C21   1.307635 A    
C28   C32   1.418499 A    
O23   C11   1.285130 A    
C101  C117  1.489238 S    
C96   C112  1.415712 A    
C120  C128  1.508046 S    
O33   Cr5   2.064587 S    
C55   C75   1.394596 A    
C128  O64   1.221193 D    
C53   C69   1.484552 S    
N7    O70   1.300290 A    
O42   Cr10  2.069499 S    
O35   Cr7   2.064587 S    
O4    Cr4   2.059631 S    
C47   C63   1.395127 A    
C105  H41   1.076522 S    
Cr5   O49   1.983694 S    
C17   C78   1.455608 S    
C82   C90   1.499618 S    
C49   C53   1.391094 A    
C16   O36   1.262576 A    
O38   C18   1.281805 A    
N6    O67   1.299918 A    
C92   H40   1.110705 S    
C68   H22   1.110628 S    
Cr6   O50   1.986181 S    
C6    O18   1.276831 A    
O28   Cr4   2.065748 S    
C35   C36   1.369700 A    
C20   C79   1.437559 S    
C26   C30   1.418500 A    
O45   Cr9   1.948340 S    
C116  H52   1.110819 S    
C85   N1    1.430330 S    
C55   C71   1.484550 S    
C68   H28   1.111844 S    
O38   Cr6   1.950756 S    
C53   C73   1.394595 A    
O36   Cr8   2.062042 S    
O31   C15   1.259989 A    
C91   H33   1.104099 S    
O16   C8    1.273622 A    
Cr9   O49   1.986526 S    
O21   Cr9   1.949271 S    
N3    O57   1.292649 A    
C118  C126  1.508073 S    
C79   C88   1.394363 A    
C24   C124  1.432714 S    
O13   C5    1.274395 A    
