data_mof_unit_17441.cif
_audit_creation_date              2013-03-05T15:46:23-0500
_audit_creation_method            fapswitch 2.2
_symmetry_space_group_name_H-M    P1
_symmetry_Int_Tables_number       1
_space_group_crystal_system       triclinic
_cell_length_a                    10.9706
_cell_length_b                    11.036547
_cell_length_c                    18.724772
_cell_angle_alpha                 90.673114
_cell_angle_beta                  90.415793
_cell_angle_gamma                 59.302739
_cell_volume                      1949.33225313

loop_
_atom_site_label
_atom_site_type_symbol
_atom_site_description
_atom_site_fract_x
_atom_site_fract_y
_atom_site_fract_z
_atom_type_partial_charge
O1    O     O_R   0.748800 0.497470 0.428000 -0.510833
O2    O     O_R   0.476420 0.724060 0.429470 -0.442180
C1    C     C_R   0.359879 0.772253 0.397600 0.551292
O3    O     O_R   0.264580 0.744340 0.416750 -0.538563
O4    O     O_R   0.309380 0.472470 0.418200 -0.517336
C2    C     C_R   0.418093 0.377209 0.382090 0.550234
O5    O     O_R   0.501710 0.260430 0.414300 -0.416918
O6    O     O_R   0.728090 0.305600 0.428960 -0.498135
C3    C     C_R   0.778162 0.378262 0.403475 0.509255
O7    O     O_R   0.738760 0.495930 0.588610 -0.486213
O8    O     O_R   0.467110 0.722640 0.578360 -0.395923
C4    C     C_R   0.371731 0.707526 0.611349 0.582612
O9    O     O_R   0.254530 0.742800 0.577360 -0.533034
O10   O     O_R   0.300070 0.471040 0.567100 -0.540959
C5    C     C_R   0.366769 0.350256 0.594481 0.581708
O11   O     O_R   0.491670 0.258900 0.574910 -0.441403
O12   O     O_R   0.718780 0.304180 0.577850 -0.517500
C6    C     C_R   0.768134 0.373707 0.609107 0.543852
Cr1   Cr    Cr6+3 0.601770 0.606860 0.505860 1.119915
Cr2   Cr    Cr6+3 0.291380 0.601660 0.495070 0.998018
Cr3   Cr    Cr6+3 0.606880 0.291510 0.499120 1.096907
O13   O     O_3   0.500010 0.500010 0.500020 -0.325379
C7    C     C_R   0.818360 0.921802 0.058820 -0.164704
C8    C     C_R   0.779898 0.060430 0.044663 -0.089454
C9    C     C_R   0.685069 0.170204 0.089296 -0.086178
C10   C     C_R   0.623026 0.142341 0.147269 0.107600
C11   C     C_R   0.372168 0.348187 0.155029 -0.052656
C12   C     C_R   0.520805 0.269805 0.262172 0.172160
C13   C     C_R   0.506551 0.262485 0.187582 -0.070490
C14   C     C_R   0.078038 0.705737 0.301289 -0.038295
C15   C     C_R   0.968945 0.797649 0.346975 -0.047949
C16   C     C_R   0.657396 0.001424 0.159467 0.256867
C17   C     C_R   0.759492 0.892092 0.116866 -0.091164
C18   C     C_R   0.263716 0.460669 0.193876 0.231489
C19   C     C_R   0.271034 0.461784 0.268362 -0.054768
C20   C     C_R   0.917661 0.744455 0.398378 -0.019662
C21   C     C_R   0.970817 0.599629 0.401769 -0.049863
C22   C     C_R   0.077148 0.507701 0.354677 -0.032322
C23   C     C_R   0.138076 0.559781 0.307323 0.107030
C24   C     C_R   0.400788 0.366684 0.303762 -0.077709
H1    H     H_    0.787336 0.784271 0.126307 0.158926
H2    H     H_    0.928089 0.909562 0.344312 0.180118
H3    H     H_    0.891904 0.837470 0.023880 0.129251
H4    H     H_    0.821943 0.082548 0.998178 0.168215
H5    H     H_    0.654998 0.277526 0.076834 0.098279
H6    H     H_    0.119629 0.747413 0.263056 0.124970
H7    H     H_    0.837237 0.815348 0.435730 0.160180
H8    H     H_    0.933989 0.558245 0.442826 0.135967
H9    H     H_    0.122437 0.395320 0.360125 0.107040
C25   C     C_R   0.956508 0.283007 0.308034 -0.125561
H10   H     H_    0.041658 0.234026 0.346680 0.096751
C26   C     C_R   0.986515 0.273909 0.235753 -0.092482
H11   H     H_    0.096030 0.219947 0.218400 0.121265
C27   C     C_R   0.875539 0.333445 0.185886 0.072888
C28   C     C_R   0.734794 0.410160 0.207491 -0.087254
H12   H     H_    0.649376 0.458951 0.168930 0.068620
C29   C     C_R   0.704966 0.422952 0.279846 -0.007604
H13   H     H_    0.595626 0.483050 0.297300 0.067225
C30   C     C_R   0.815736 0.357108 0.329626 0.112895
C31   C     C_R   0.476955 0.782836 0.285330 0.203257
C32   C     C_R   0.463305 0.788639 0.210830 -0.130085
H14   H     H_    0.555722 0.746831 0.176714 0.151660
C33   C     C_R   0.329315 0.867702 0.181202 -0.019050
C34   C     C_R   0.208222 0.930183 0.225386 -0.159092
H15   H     H_    0.102070 0.992035 0.203862 0.180199
C35   C     C_R   0.219926 0.911729 0.297777 -0.191276
H16   H     H_    0.124718 0.954217 0.329823 0.142687
C36   C     C_R   0.352651 0.831665 0.327917 0.020741
C37   C     C_R   0.376271 0.198645 0.691966 0.188015
C38   C     C_R   0.371733 0.187698 0.765084 -0.166451
H17   H     H_    0.421543 0.082804 0.787428 0.152918
C39   C     C_R   0.301881 0.309209 0.808863 -0.027773
C40   C     C_R   0.226741 0.443462 0.778095 0.168952
C41   C     C_R   0.231418 0.453524 0.704315 -0.181586
H18   H     H_    0.180412 0.557347 0.680946 0.162610
C42   C     C_R   0.314829 0.332544 0.662141 -0.026381
C43   C     C_R   0.919427 0.379666 0.705541 -0.106383
H19   H     H_    0.941910 0.447595 0.673991 0.134321
C44   C     C_R   0.955538 0.362194 0.777244 -0.145507
H20   H     H_    0.003181 0.418332 0.800075 0.156858
C45   C     C_R   0.920962 0.281761 0.820556 0.017870
C46   C     C_R   0.859470 0.208878 0.790080 -0.132976
H21   H     H_    0.834564 0.143516 0.822298 0.140323
C47   C     C_R   0.819379 0.229464 0.718374 -0.127073
H22   H     H_    0.761530 0.181709 0.697002 0.157703
C48   C     C_R   0.842844 0.321095 0.676866 0.049027
C49   C     C_R   0.222916 0.790456 0.718594 -0.163488
H23   H     H_    0.133375 0.802370 0.687981 0.163253
C50   C     C_R   0.200013 0.831365 0.788943 -0.079166
H24   H     H_    0.093241 0.877645 0.809611 0.188554
C51   C     C_R   0.310812 0.820368 0.830765 0.007560
C52   C     C_R   0.446512 0.762724 0.802853 -0.132990
H25   H     H_    0.530393 0.750984 0.838071 0.114615
C53   C     C_R   0.471031 0.727322 0.729874 0.273147
C54   C     C_R   0.356106 0.742154 0.687631 0.038953
O14   O     O_R   0.186690 0.923650 0.086970 -0.542866
O15   O     O_R   0.957250 0.194250 0.084630 -0.510904
C55   C     C_R   0.911859 0.316239 0.111853 0.531276
O16   O     O_R   0.934970 0.407490 0.085330 -0.487797
O17   O     O_R   0.203780 0.365190 0.067090 -0.446352
C56   C     C_R   0.331691 0.298131 0.090198 0.560362
O18   O     O_R   0.417600 0.174890 0.067840 -0.522362
O19   O     O_R   0.375320 0.946260 0.070860 -0.484631
C57   C     C_R   0.305753 0.900859 0.105928 0.538830
O20   O     O_R   0.160600 0.919630 0.926660 -0.510779
O21   O     O_R   0.933060 0.190520 0.936020 -0.533393
C58   C     C_R   0.947717 0.280078 0.897126 0.556490
O22   O     O_R   0.908880 0.403460 0.925020 -0.509234
O23   O     O_R   0.179600 0.361450 0.918490 -0.477281
C59   C     C_R   0.294379 0.286072 0.884309 0.576158
O24   O     O_R   0.391510 0.170860 0.907530 -0.533670
O25   O     O_R   0.351130 0.942530 0.922260 -0.518996
C60   C     C_R   0.277458 0.890265 0.899357 0.550775
Cr4   Cr    Cr6+3 0.062440 0.063090 0.008210 0.988556
Cr5   Cr    Cr6+3 0.062880 0.375170 0.998920 1.072978
Cr6   Cr    Cr6+3 0.374700 0.061720 0.992470 1.018270
O26   O     O_3   0.166667 0.166667 0.999870 -0.285691
N1    N     N_R   0.651766 0.164176 0.295212 0.082134
O27   O     O_R   0.772445 0.138447 0.269335 -0.415025
O28   O     O_R   0.652235 0.065055 0.332348 -0.268318
N2    N     N_R   0.611501 0.747956 0.316281 0.101332
O29   O     O_R   0.727624 0.673803 0.279819 -0.356334
O30   O     O_R   0.613618 0.824285 0.369205 -0.276414
N3    N     N_R   0.449418 0.073827 0.648752 0.089384
O31   O     O_R   0.586438 0.994970 0.653819 -0.356570
O32   O     O_R   0.384399 0.055064 0.595187 -0.307602
N4    N     N_R   0.147804 0.569261 0.820444 0.074327
O33   O     O_R   0.201692 0.587604 0.878845 -0.348450
O34   O     O_R   0.026399 0.671012 0.797624 -0.410303
O35   O     O_3   0.603678 0.674595 0.698271 -0.535470
C61   C     C_3   0.691149 0.715544 0.734040 -0.043368
H26   H     H_    0.632062 0.827680 0.751647 0.152027
H27   H     H_    0.775050 0.702896 0.696761 0.180049
H28   H     H_    0.743905 0.646523 0.780526 0.126897
N5    N     N_R   0.584942 0.965917 0.210921 -0.174977
O36   O     O_R   0.453731 0.053116 0.228799 -0.000010
O37   O     O_R   0.453735 0.053110 0.228800 -0.000010
O38   O     O_3   0.141330 0.562197 0.160421 -0.543375
C62   C     C_3   0.174820 0.646647 0.118276 -0.094137
H29   H     H_    0.261542 0.659833 0.141147 0.094426
H30   H     H_    0.080116 0.753355 0.115277 0.159375
H31   H     H_    0.203304 0.603002 0.063209 0.157683

loop_
_geom_bond_atom_site_label_1
_geom_bond_atom_site_label_2
_geom_bond_distance
_ccdc_geom_bond_type
C35   C36   1.380433 A    
C49   H23   1.082844 S    
C45   C58   1.459826 S    
C10   C16   1.421779 A    
C56   O18   1.263742 A    
C15   H2    1.079273 S    
C11   C13   1.420006 A    
C40   C41   1.390667 A    
C1    C36   1.450595 S    
C28   H12   1.083312 S    
C61   H28   1.109523 S    
C45   C46   1.401928 A    
N5    O36   1.302036 A    
O4    Cr2   1.952476 S    
C43   H19   1.083153 S    
C4    O9    1.301036 A    
O8    Cr1   1.928506 S    
C6    C48   1.461174 S    
C41   C42   1.407834 A    
O21   Cr4   1.948964 S    
C25   C30   1.388921 A    
O22   Cr5   2.074667 S    
O20   C60   1.261478 A    
C12   C13   1.410233 A    
C47   C48   1.407214 A    
C37   C38   1.379327 A    
O16   Cr5   2.054904 S    
C14   C15   1.395738 A    
C62   H31   1.110032 S    
C29   C30   1.404104 A    
O21   C58   1.309234 A    
C12   C24   1.428723 A    
C5    O11   1.271398 A    
C7    H3    1.082553 S    
Cr6   O26   1.967560 S    
C20   H7    1.082167 S    
C18   C19   1.396746 A    
C32   C33   1.385603 A    
C59   O24   1.250693 A    
C52   H25   1.081642 S    
N1    O27   1.300153 A    
O6    C3    1.278735 A    
Cr5   O26   1.979290 S    
C49   C54   1.401811 A    
C25   C26   1.385554 A    
C7    C8    1.392090 A    
C4    C54   1.462700 S    
C38   H17   1.084439 S    
C50   C51   1.394027 A    
C5    C42   1.448454 S    
Cr3   O13   1.978596 S    
O14   Cr4   2.069698 S    
C31   N2    1.440651 S    
O17   Cr5   1.957475 S    
O25   C60   1.278680 A    
C26   C27   1.402510 A    
O15   C55   1.274164 A    
C43   C44   1.384617 A    
C11   C18   1.403249 A    
C22   C23   1.405783 A    
C39   C59   1.448913 S    
O1    Cr1   2.046790 S    
C41   H18   1.082199 S    
O10   Cr2   1.951894 S    
O20   Cr4   2.055355 S    
Cr1   O13   1.997050 S    
O1    C3    1.265234 A    
C8    C9    1.396604 A    
C51   C52   1.389466 A    
C22   H9    1.081040 S    
C39   C40   1.404618 A    
C37   N3    1.432113 S    
C7    C17   1.393088 A    
C9    C10   1.403040 A    
C40   N4    1.436271 S    
C18   O38   1.385245 S    
O12   Cr3   1.960615 S    
C1    O3    1.285845 A    
C51   C60   1.440122 S    
C31   C32   1.400636 A    
C3    C30   1.427925 S    
C34   C35   1.368437 A    
C19   C23   1.488539 S    
N4    O34   1.301348 A    
C21   C22   1.397577 A    
O35   C61   1.414230 S    
O7    Cr1   2.071361 S    
C58   O22   1.304898 A    
C52   C53   1.406375 A    
O12   C6    1.278118 A    
C53   C54   1.421240 A    
C25   H10   1.082729 S    
C53   O35   1.395082 S    
C47   H22   1.083304 S    
C21   H8    1.078896 S    
N2    O29   1.301471 A    
O24   Cr6   2.071377 S    
Cr2   O13   1.970653 S    
C43   C48   1.397064 A    
C55   O16   1.264701 A    
C46   C47   1.394430 A    
C28   C29   1.384674 A    
C8    H4    1.075069 S    
C2    C24   1.488349 S    
C44   H20   1.077480 S    
N4    O33   1.301519 A    
C9    H5    1.082891 S    
O25   Cr6   1.956355 S    
C26   H11   1.083652 S    
N3    O32   1.301251 A    
N5    O37   1.301999 A    
C27   C28   1.389566 A    
C20   C21   1.396091 A    
O9    Cr2   2.067319 S    
O2    Cr1   1.951664 S    
C15   C20   1.394991 A    
C14   H6    1.076584 S    
C33   C57   1.448336 S    
C61   H27   1.108966 S    
O6    Cr3   1.938962 S    
C16   N5    1.432371 S    
C62   H29   1.115222 S    
O11   Cr3   2.059975 S    
C2    O5    1.292074 A    
C44   C45   1.398152 A    
C17   H1    1.083333 S    
C16   C17   1.399026 A    
O14   C57   1.247129 A    
O2    C1    1.255282 A    
C50   H24   1.083422 S    
C12   N1    1.449113 S    
C35   H16   1.083202 S    
C34   H15   1.082873 S    
O5    Cr3   2.082313 S    
C62   H30   1.104979 S    
C29   H13   1.083465 S    
O4    C2    1.303721 A    
O7    C6    1.279559 A    
O19   Cr6   1.952774 S    
O17   C56   1.281580 A    
C11   C56   1.484237 S    
C14   C23   1.400484 A    
C19   C24   1.429855 A    
C32   H14   1.083401 S    
N1    O28   1.300905 A    
N2    O30   1.300886 A    
Cr4   O26   1.994966 S    
O18   Cr6   2.079031 S    
O38   C62   1.413352 S    
O23   Cr5   1.937880 S    
C33   C34   1.411385 A    
O3    Cr2   2.071738 S    
C37   C42   1.395352 A    
C31   C36   1.428750 A    
C10   C13   1.490418 S    
C46   H21   1.082967 S    
O19   C57   1.292346 A    
C49   C50   1.370099 A    
O10   C5    1.260944 A    
C27   C55   1.428653 S    
C38   C39   1.411275 A    
O15   Cr4   1.935063 S    
O23   C59   1.271588 A    
C61   H26   1.111284 S    
O8    C4    1.301644 A    
N3    O31   1.300064 A    
