data_mof_unit_67131.cif
_audit_creation_date              2013-03-05T15:58:42-0500
_audit_creation_method            fapswitch 2.2
_symmetry_space_group_name_H-M    P1
_symmetry_Int_Tables_number       1
_space_group_crystal_system       triclinic
_cell_length_a                    8.324709
_cell_length_b                    12.889171
_cell_length_c                    14.936226
_cell_angle_alpha                 96.571071
_cell_angle_beta                  97.888763
_cell_angle_gamma                 98.988372
_cell_volume                      1552.77994887

loop_
_atom_site_label
_atom_site_type_symbol
_atom_site_description
_atom_site_fract_x
_atom_site_fract_y
_atom_site_fract_z
_atom_type_partial_charge
P1    P     P_3+3 0.998770 0.403620 0.291990 0.467646
O1    O     O_2   0.827930 0.435360 0.277760 -0.346301
O2    O     O_3   0.100310 0.439010 0.391180 -0.408987
O3    O     O_3   0.625610 0.634200 0.333270 -0.332840
O4    O     O_2   0.691161 0.546117 0.177601 -0.406712
O5    O     O_3   0.923306 0.266716 0.274968 -0.549008
O6    O     O_3   0.664592 0.742528 0.179827 -0.547714
C1    C     C_3   0.574442 0.865475 0.084171 -0.942827
H1    H     H_    0.694875 0.920220 0.098374 0.268288
H2    H     H_    0.574103 0.807374 0.023362 0.210655
P2    P     P_3+3 0.687370 0.751000 0.571300 0.457307
P3    P     P_3+3 0.104996 0.826572 0.377021 0.488528
O7    O     O_2   0.857120 0.766320 0.543890 -0.380958
O8    O     O_3   0.056570 0.691100 0.379020 -0.403920
O9    O     O_2   0.983206 0.879160 0.428584 -0.339586
O10   O     O_3   0.727302 0.793643 0.689495 -0.538612
O11   O     O_3   0.057765 0.848832 0.263427 -0.510669
C2    C     C_3   0.064828 0.755522 0.206090 0.570160
H3    H     H_    0.965863 0.690563 0.214406 0.161807
H4    H     H_    0.186214 0.730552 0.221688 0.000676
C3    C     C_3   0.038253 0.773508 0.106642 -1.030860
H5    H     H_    0.019180 0.696738 0.061588 0.234195
H6    H     H_    0.927246 0.810087 0.091729 0.290132
C4    C     C_3   0.273439 0.777364 0.654119 0.332844
H7    H     H_    0.372558 0.743819 0.625271 0.072486
H8    H     H_    0.160405 0.763902 0.602341 0.113771
C5    C     C_3   0.328866 0.896124 0.684168 -0.487066
H9    H     H_    0.456344 0.911777 0.722546 0.201552
H10   H     H_    0.330898 0.937572 0.623102 0.157828
Ba1   Ba    Ba6+2 0.843760 0.550230 0.455610 1.567154
C6    C     C_3   0.040037 0.209819 0.311627 0.264533
H11   H     H_    0.010050 0.187501 0.377541 0.095753
H12   H     H_    0.165138 0.255101 0.323309 0.120422
C7    C     C_3   0.034483 0.109332 0.246143 -0.361830
H13   H     H_    0.906657 0.063648 0.230240 0.233003
H14   H     H_    0.115498 0.059955 0.280067 0.205670
C8    C     C_3   0.753409 0.710496 0.738517 0.415940
H15   H     H_    0.873314 0.688000 0.728166 0.062841
H16   H     H_    0.649828 0.643304 0.718616 0.116230
C9    C     C_3   0.758766 0.747353 0.839600 -0.956646
H17   H     H_    0.855868 0.818201 0.863380 0.289853
H18   H     H_    0.785025 0.682969 0.879883 0.213304
H19   H     H_    0.638129 0.768183 0.851474 0.255750
P4    P     P_3+3 0.190950 0.596470 0.708020 0.462100
O12   O     O_2   0.361790 0.564680 0.722290 -0.367339
O13   O     O_3   0.089410 0.561080 0.608830 -0.406145
O14   O     O_3   0.564100 0.365890 0.666740 -0.377163
O15   O     O_3   0.242151 0.732610 0.731619 -0.577267
P5    P     P_3+3 0.088709 0.169089 0.610494 0.468907
O16   O     O_3   0.601940 0.368260 0.453780 -0.430388
O17   O     O_3   0.133140 0.308990 0.620990 -0.380521
O18   O     O_2   0.219674 0.124313 0.561502 -0.373611
O19   O     O_3   0.139865 0.135433 0.719870 -0.551159
Ba2   Ba    Ba6+2 0.346080 0.449860 0.544400 1.539600
P6    P     P_3+3 0.581221 0.621949 0.213999 0.448208
C10   C     C_3   0.546277 0.809184 0.166969 0.861731
H20   H     H_    0.418042 0.765366 0.153139 -0.099992
H21   H     H_    0.474978 0.911779 0.067937 0.265811
O20   O     O_3   0.587770 0.631830 0.546230 -0.424962
C11   C     C_3   0.464295 0.303039 0.261374 0.392816
H22   H     H_    0.350369 0.336095 0.261577 -0.003470
H23   H     H_    0.566034 0.364434 0.297347 0.164592
C12   C     C_3   0.491845 0.281613 0.163152 -0.732104
H24   H     H_    0.383529 0.227804 0.122440 0.259710
H25   H     H_    0.507615 0.356677 0.133152 0.207841
H26   H     H_    0.603811 0.245338 0.160193 0.301420
P7    P     P_3+3 0.502992 0.234150 0.419436 0.445250
O21   O     O_2   0.332600 0.233710 0.456170 -0.391042
O22   O     O_3   0.451071 0.207806 0.299886 -0.529231
H27   H     H_    0.147740 0.824840 0.091048 0.251052
C13   C     C_3   0.038437 0.172555 0.779810 0.914837
H28   H     H_    0.937384 0.207013 0.745852 -0.200056
C14   C     C_3   0.144160 0.258298 0.852761 -0.844587
H29   H     H_    0.197141 0.326132 0.820207 0.259028
H30   H     H_    0.068514 0.287230 0.902588 0.205268
H31   H     H_    0.245857 0.225998 0.889998 0.275826
P8    P     P_3+3 0.603970 0.386611 0.786626 0.475617
C15   C     C_3   0.642999 0.201312 0.821034 0.234924
H32   H     H_    0.767250 0.238470 0.857792 0.082804
O23   O     O_2   0.492071 0.460908 0.821503 -0.370710
O24   O     O_3   0.530869 0.270671 0.828202 -0.494154
H33   H     H_    0.647948 0.175723 0.747851 0.053359
H34   H     H_    0.647822 0.038699 0.847822 0.154684
C16   C     C_3   0.581423 0.104401 0.863880 -0.059699
H35   H     H_    0.451174 0.078166 0.833681 0.148753
C17   C     C_R   0.362780 0.560787 0.169357 0.119083
H36   H     H_    0.324027 0.528509 0.303339 0.173047
H37   H     H_    0.510527 0.627135 0.030727 0.165572
C18   C     C_R   0.108538 0.465240 0.205148 0.262771
C19   C     C_R   0.914480 0.490807 0.767841 -0.223483
C20   C     C_R   0.817806 0.450066 0.829327 0.176354
C21   C     C_R   0.883079 0.456029 0.921177 -0.356183
C22   C     C_R   0.049908 0.500357 0.954019 0.056128
C23   C     C_R   0.146732 0.545633 0.891029 -0.039210
C24   C     C_R   0.122862 0.502217 0.047561 0.067200
C25   C     C_R   0.290636 0.551683 0.076416 0.029522
C26   C     C_R   0.381514 0.593685 0.012568 -0.211467
C27   C     C_R   0.309322 0.595387 0.923590 -0.084349
C28   C     C_R   0.035866 0.455929 0.113354 -0.299478
C29   C     C_R   0.268839 0.520667 0.232408 -0.475302
C30   C     C_R   0.078681 0.538398 0.796767 0.218809
H38   H     H_    0.912185 0.411998 0.095778 0.178087
H39   H     H_    0.800573 0.424090 0.964705 0.182810
H40   H     H_    0.385006 0.635544 0.880645 0.171967
C31   C     C_R   0.786317 0.166301 0.499030 -0.470307
C32   C     C_R   0.419359 0.809300 0.463875 -0.488206
C33   C     C_R   0.383966 0.985374 0.433246 -0.093909
C34   C     C_R   0.320242 0.878169 0.429001 0.186588
C35   C     C_R   0.579903 0.847098 0.510060 0.315046
C36   C     C_R   0.646747 0.957603 0.514360 -0.022444
C37   C     C_R   0.547935 0.026394 0.472409 -0.008519
C38   C     C_R   0.618045 0.133557 0.468422 0.284456
C39   C     C_R   0.878551 0.106400 0.550666 0.185978
C40   C     C_R   0.809086 0.001909 0.557854 -0.120539
H41   H     H_    0.305465 0.035113 0.402747 0.156579
H42   H     H_    0.884621 0.955814 0.595253 0.176695
H43   H     H_    0.846144 0.240541 0.483051 0.143790
H44   H     H_    0.367709 0.726074 0.459169 0.165339
N1    N     N_R   0.564524 0.888881 0.247059 0.213436
O25   O     O_R   0.467315 0.958641 0.248246 -0.447348
O26   O     O_R   0.688157 0.898373 0.312680 -0.356664
N2    N     N_2   0.217044 0.937820 0.739780 -0.054675
H45   H     H_    0.098219 0.928665 0.706035 0.246655
C41   C     C_3   0.228222 0.917494 0.834120 -0.588763
H46   H     H_    0.208303 0.988098 0.877743 0.253018
H47   H     H_    0.351224 0.900003 0.860492 0.218230
H48   H     H_    0.132185 0.849913 0.840521 0.226942
N3    N     N_2   0.091544 0.136269 0.163008 -0.102126
H49   H     H_    0.024671 0.184796 0.128961 0.249028
C42   C     C_3   0.122604 0.047846 0.103540 -0.657373
H50   H     H_    0.178075 0.077213 0.046017 0.274057
H51   H     H_    0.005437 0.992826 0.075848 0.249467
H52   H     H_    0.211459 0.006125 0.141006 0.273865
N4    N     N_R   0.961776 0.083185 0.820255 0.183851
O27   O     O_R   0.870035 0.002613 0.767238 -0.482499
O28   O     O_R   0.971827 0.085975 0.908182 -0.454442
N5    N     N_R   0.595763 0.129298 0.962603 0.276560
O29   O     O_R   0.469397 0.101251 0.002126 -0.452030
O30   O     O_R   0.738785 0.165523 0.012367 -0.391658
N6    N     N_2   0.848288 0.481566 0.673995 -0.097286
H53   H     H_    0.748511 0.515755 0.654118 0.192176
C43   C     C_3   0.859520 0.384022 0.620299 -0.522249
H54   H     H_    0.744584 0.345067 0.581243 0.217929
H55   H     H_    0.890024 0.325503 0.664610 0.166368
H56   H     H_    0.935558 0.398384 0.566822 0.258768

loop_
_geom_bond_atom_site_label_1
_geom_bond_atom_site_label_2
_geom_bond_distance
_ccdc_geom_bond_type
P5    C39   1.864416 S    
C4    H7    1.104482 S    
C12   H25   1.108958 S    
C22   C23   1.436055 A    
C5    H10   1.109299 S    
C2    C3    1.521078 S    
C14   H29   1.109543 S    
C24   C25   1.427082 A    
C4    C5    1.524021 S    
O6    P6    1.760497 S    
N3    H49   1.031319 S    
C1    C10   1.530558 S    
C13   N4    1.460984 S    
C26   C27   1.385441 A    
Ba1   Ba2   4.563258 S    
O16   Ba2   2.939471 S    
C18   C28   1.404330 A    
C11   C12   1.516761 S    
C31   C39   1.392639 A    
N6    C43   1.434993 S    
P1    O1    1.534242 D    
C8    C9    1.522471 S    
O2    Ba2   2.827536 S    
C24   C28   1.428521 A    
Ba2   O21   2.921036 S    
C23   C27   1.398746 A    
C10   H20   1.107076 S    
C11   H23   1.095710 S    
C7    H13   1.112790 S    
C36   C37   1.438392 A    
C21   C22   1.413064 A    
C21   H39   1.076752 S    
C1    H21   1.110410 S    
C39   C40   1.402354 A    
C9    H19   1.111014 S    
H34   C16   1.102891 S    
C23   C30   1.430507 A    
C1    H1    1.111013 S    
P5    O17   1.767468 S    
P3    O11   1.754735 S    
C33   C34   1.391551 A    
C6    H12   1.092046 S    
C17   C29   1.397543 A    
O16   P7    1.779255 S    
C36   C40   1.416845 A    
C2    H4    1.110465 S    
H37   C26   1.077727 S    
O10   C8    1.393045 S    
C9    H18   1.110536 S    
O5    C6    1.396581 S    
Ba1   O16   2.837118 S    
C12   H26   1.109990 S    
C22   C24   1.440952 A    
C3    H5    1.107404 S    
C32   H44   1.082067 S    
C14   H30   1.108150 S    
C43   H56   1.099517 S    
C31   H43   1.075475 S    
O6    C10   1.412573 S    
O8    Ba1   2.787563 S    
P2    O20   1.603803 S    
C5    N2    1.453172 S    
P4    O13   1.580694 S    
Ba2   O20   2.836490 S    
N1    O26   1.300459 A    
C18   C29   1.394028 A    
P7    O21   1.589003 D    
C4    O15   1.388945 S    
O7    Ba1   2.920764 S    
C16   H35   1.099888 S    
P2    Ba1   3.467586 S    
C20   C21   1.393357 A    
P3    C34   1.839408 S    
C15   H32   1.108979 S    
C2    H3    1.109739 S    
N4    O28   1.300433 A    
P1    O5    1.755030 S    
C11   H22   1.098982 S    
P1    O2    1.580693 S    
O2    Ba1   2.957608 S    
C42   H51   1.109660 S    
C19   C30   1.395230 A    
C8    H15   1.107639 S    
C15   C16   1.518390 S    
N5    O30   1.300764 A    
P2    O10   1.757534 S    
C15   H33   1.113287 S    
C19   N6    1.418397 S    
C6    H11   1.106410 S    
P3    O9    1.545997 D    
P8    O24   1.738125 S    
P4    C30   1.881322 S    
P5    O18   1.541468 D    
C25   C26   1.401109 A    
O13   Ba2   2.958447 S    
O11   C2    1.408375 S    
C6    C7    1.521596 S    
N6    H53   1.024147 S    
C33   H41   1.077787 S    
C17   C25   1.418935 A    
C41   H48   1.108821 S    
C7    N3    1.448138 S    
C9    H17   1.108950 S    
C31   C38   1.394527 A    
P3    O8    1.734256 S    
O12   Ba2   2.865511 S    
O14   Ba2   2.821439 S    
O3    P6    1.752643 S    
C14   H31   1.110516 S    
C43   H55   1.095180 S    
C42   H52   1.108602 S    
O14   P8    1.757163 S    
N2    C41   1.455652 S    
O19   C13   1.406793 S    
P2    C35   1.884706 S    
P4    O12   1.534543 D    
C13   C14   1.529863 S    
H36   C29   1.082156 S    
P8    O23   1.534245 D    
P8    C20   1.832641 S    
P1    C18   1.866178 S    
C37   C38   1.424260 A    
C33   C37   1.403363 A    
O4    P6    1.543692 D    
C4    H8    1.110020 S    
N3    C42   1.441581 S    
C16   N5    1.457031 S    
C40   H42   1.075498 S    
N1    O25   1.300502 A    
N4    O27   1.298755 A    
N5    O29   1.298560 A    
Ba1   O13   2.826930 S    
C3    H27   1.108081 S    
O1    Ba1   2.865096 S    
O17   Ba2   2.788201 S    
C41   H47   1.111848 S    
P6    C17   1.863272 S    
C3    H6    1.108845 S    
C42   H50   1.106081 S    
C13   H28   1.101530 S    
C8    H16   1.104222 S    
C35   C36   1.436690 A    
P2    O7    1.514474 D    
C15   O24   1.395802 S    
C19   C20   1.395723 A    
C32   C34   1.398855 A    
C11   O22   1.409419 S    
P5    O19   1.751381 S    
P1    Ba1   3.432084 S    
C10   N1    1.459248 S    
C7    H14   1.109403 S    
C12   H24   1.105163 S    
P4    Ba2   3.432641 S    
P7    C38   1.883217 S    
C28   H38   1.076685 S    
C1    H2    1.108468 S    
C5    H9    1.111358 S    
Ba1   O20   2.940384 S    
C43   H54   1.066541 S    
P7    O22   1.759012 S    
N2    H45   1.029322 S    
C27   H40   1.077639 S    
O3    Ba1   2.822102 S    
P4    O15   1.722939 S    
C41   H46   1.105126 S    
C32   C35   1.402129 A    
