data_mof_unit_46708.cif
_audit_creation_date              2012-12-10T17:20:54-0500
_audit_creation_method            fapswitch 2.2
_symmetry_space_group_name_H-M    P1
_symmetry_Int_Tables_number       1
_space_group_crystal_system       triclinic
_cell_length_a                    14.333725
_cell_length_b                    10.771556
_cell_length_c                    9.627838
_cell_angle_alpha                 90.540889
_cell_angle_beta                  89.571284
_cell_angle_gamma                 92.347315
_cell_volume                      1485.15375245

loop_
_atom_site_label
_atom_site_type_symbol
_atom_type_description
_atom_site_fract_x
_atom_site_fract_y
_atom_site_fract_z
_atom_type_partial_charge
C1    C     C_R   0.496195 0.262633 0.499604 0.781682
C2    C     C_1   0.771110 0.500529 0.498887 -0.182189
C3    C     C_R   0.350085 0.123150 0.653960 -0.179239
C4    C     C_R   0.282929 0.055448 0.730438 -0.137336
C5    C     C_R   0.283309 0.926404 0.731726 -0.125789
C6    C     C_R   0.350802 0.864227 0.656471 -0.166357
C7    C     C_R   0.420730 0.930972 0.580139 0.100261
C8    C     C_R   0.420477 0.062275 0.579023 0.103124
C9    C     C_R   0.488850 0.128438 0.498863 -0.100868
C10   C     C_R   0.552573 0.065977 0.416541 -0.183605
C11   C     C_R   0.552655 0.938002 0.417345 -0.170679
C12   C     C_R   0.331244 0.499625 0.500459 0.777592
C13   C     C_R   0.489090 0.870459 0.500620 -0.080503
C14   C     C_R   0.644815 0.626568 0.144904 -0.124980
C15   C     C_R   0.731689 0.641357 0.081738 -0.227646
C16   C     C_R   0.739557 0.620412 0.940316 -0.206492
C17   C     C_R   0.657690 0.610641 0.862484 0.208151
C18   C     C_R   0.573690 0.560247 0.926082 0.157182
C19   C     C_R   0.571142 0.562703 0.075193 0.185514
C20   C     C_R   0.431324 0.440876 0.073769 -0.047851
C21   C     C_R   0.430798 0.442014 0.926201 -0.053374
C22   C     C_R   0.495673 0.736904 0.500336 0.800462
C23   C     C_R   0.668737 0.500144 0.499549 0.824956
C24   C     C_1   0.228880 0.499981 0.501251 -0.203088
C25   C     C_1   0.143427 0.500312 0.501189 -0.010592
C26   C     C_1   0.042728 0.500638 0.500586 0.003591
C27   C     C_1   0.957268 0.500790 0.499899 0.005171
C28   C     C_1   0.856568 0.500760 0.499148 -0.003140
Cu1   Cu    Cu3+1 0.499990 0.499990 0.640660 0.953772
Cu2   Cu    Cu3+1 0.500010 0.500010 0.359340 0.938117
H1    H     H_    0.604173 0.116810 0.354037 0.156899
H2    H     H_    0.805887 0.644970 0.890842 0.174762
H3    H     H_    0.374338 0.393646 0.871554 0.130155
H4    H     H_    0.344705 0.222890 0.652160 0.136982
H5    H     H_    0.229551 0.103295 0.787360 0.135413
H6    H     H_    0.230237 0.874108 0.789677 0.138689
H7    H     H_    0.346104 0.763890 0.656893 0.147395
H8    H     H_    0.604249 0.891364 0.355193 0.147095
H9    H     H_    0.375291 0.391482 0.128488 0.136600
H10   H     H_    0.638010 0.665017 0.247152 0.187184
H11   H     H_    0.791216 0.677578 0.140165 0.166483
N1    N     N_R   0.500820 0.501210 0.147910 -0.184980
N2    N     N_R   0.500850 0.501290 0.852040 -0.184904
O1    O     O_R   0.499990 0.319640 0.618810 -0.569352
O2    O     O_R   0.500000 0.319660 0.381240 -0.568049
O3    O     O_R   0.376050 0.499990 0.618810 -0.578295
O4    O     O_R   0.376060 0.500010 0.381240 -0.557423
O5    O     O_R   0.500000 0.680340 0.618760 -0.546993
O6    O     O_R   0.500010 0.680360 0.381190 -0.593102
O7    O     O_R   0.623940 0.499990 0.618760 -0.545916
O8    O     O_R   0.623950 0.500010 0.381190 -0.576295
I1    I     I_    0.667368 0.778762 0.748095 -0.388193

loop_
_geom_bond_atom_site_label_1
_geom_bond_atom_site_label_2
_ccdc_geom_bond_type
C11   H8    S    
C22   O5    A    
Cu2   O8    S    
C24   C25   T    
C6    C7    A    
C16   H2    S    
C9    C10   A    
C12   C24   S    
C1    O1    A    
C20   N1    A    
C19   N1    A    
Cu1   O3    S    
C17   C18   A    
C6    H7    S    
C7    C8    A    
C18   N2    A    
Cu1   N2    S    
C11   C13   A    
C1    O2    A    
C26   C27   T    
Cu1   Cu2   S    
C12   O4    A    
C4    C5    A    
C10   H1    S    
C17   I1    S    
Cu2   O6    S    
C13   C22   S    
C3    C8    A    
Cu1   O7    S    
C22   O6    A    
Cu1   O1    S    
C5    C6    A    
C4    H5    S    
C21   H3    S    
C10   C11   A    
Cu1   O5    S    
C14   H10   S    
C3    C4    A    
C5    H6    S    
Cu2   O4    S    
C7    C13   A    
C1    C9    S    
C20   C21   A    
C15   H11   S    
C12   O3    A    
C18   C19   A    
C2    C23   S    
C20   H9    S    
C14   C15   A    
C16   C17   A    
C23   O7    A    
C2    C28   T    
Cu2   O2    S    
C3    H4    S    
C25   C26   S    
C21   N2    A    
C23   O8    A    
C14   C19   A    
Cu2   N1    S    
C15   C16   A    
C8    C9    A    
C27   C28   S    
