data_mof_unit_67527.cif
_audit_creation_date              2012-12-10T16:47:28-0500
_audit_creation_method            fapswitch 2.2
_symmetry_space_group_name_H-M    P1
_symmetry_Int_Tables_number       1
_space_group_crystal_system       triclinic
_cell_length_a                    10.719542
_cell_length_b                    8.75709
_cell_length_c                    7.5505
_cell_angle_alpha                 102.08024
_cell_angle_beta                  96.300409
_cell_angle_gamma                 93.990813
_cell_volume                      685.767614588

loop_
_atom_site_label
_atom_site_type_symbol
_atom_type_description
_atom_site_fract_x
_atom_site_fract_y
_atom_site_fract_z
_atom_type_partial_charge
C1    C     C_R   0.496061 0.201202 0.455525 0.865791
C2    C     C_R   0.504008 0.798820 0.544492 0.865953
C3    C     C_R   0.260183 0.500772 0.499489 0.816729
C4    C     C_R   0.739849 0.498328 0.500296 0.814739
C5    C     C_3   0.055659 0.516441 0.668499 0.137590
C6    C     C_3   0.944779 0.481320 0.330421 0.143667
C7    C     C_3   0.959099 0.378822 0.570028 0.136648
C8    C     C_3   0.041292 0.619026 0.429154 0.145611
C9    C     C_3   0.875937 0.496959 0.500742 -0.146739
C10   C     C_3   0.124182 0.500916 0.498382 -0.114421
C11   C     C_3   0.973110 0.634722 0.601453 0.108310
C12   C     C_3   0.027269 0.363235 0.397874 0.142401
C13   C     C_2   0.471087 0.035927 0.437377 -0.009642
C14   C     C_2   0.529008 0.964133 0.562679 -0.011279
Cu1   Cu    Cu3+1 0.514140 0.517380 0.684380 0.933278
Cu2   Cu    Cu3+1 0.485860 0.482620 0.315620 0.931371
N1    N     N_2   0.464560 0.456420 0.038510 -0.050819
N2    N     N_2   0.535440 0.543580 0.961490 -0.055839
O1    O     O_R   0.509190 0.286130 0.619780 -0.609036
O2    O     O_R   0.490810 0.713870 0.380220 -0.605848
O3    O     O_R   0.485310 0.256770 0.308360 -0.592114
O4    O     O_R   0.514690 0.743230 0.691640 -0.589995
O5    O     O_R   0.328790 0.514640 0.655680 -0.586714
O6    O     O_R   0.671210 0.485360 0.344320 -0.610491
O7    O     O_R   0.304910 0.485280 0.344260 -0.576505
O8    O     O_R   0.695090 0.514720 0.655740 -0.577920
C15   C     C_3   0.918894 0.242240 0.652216 -0.858565
H1    H     H_    0.002680 0.182758 0.690375 0.244742
H2    H     H_    0.874397 0.286388 0.776336 0.254232
H3    H     H_    0.851850 0.157357 0.549839 0.222959
C16   C     C_3   0.082280 0.756690 0.349250 -0.887769
H4    H     H_    0.998731 0.816051 0.309776 0.235114
H5    H     H_    0.148384 0.841362 0.453341 0.232148
H6    H     H_    0.128506 0.713867 0.226668 0.244899
N3    N     N_3   0.117152 0.534756 0.854489 -0.560832
H7    H     H_    0.046301 0.544175 0.939173 0.255340
H8    H     H_    0.172258 0.642442 0.888683 0.226411
N4    N     N_3   0.887034 0.459568 0.141912 -0.589865
H9    H     H_    0.840736 0.558632 0.130400 0.222883
H10   H     H_    0.819255 0.363210 0.114547 0.237853
C17   C     C_3   0.945786 0.789271 0.718509 -0.889216
H11   H     H_    0.035668 0.857707 0.786074 0.236699
H12   H     H_    0.895902 0.857470 0.629675 0.232531
H13   H     H_    0.886804 0.766897 0.824026 0.239206
C18   C     C_3   0.054401 0.208596 0.280870 -0.857610
H14   H     H_    0.964476 0.140991 0.212017 0.235196
H15   H     H_    0.114387 0.230771 0.176403 0.247724
H16   H     H_    0.103048 0.139667 0.369979 0.221659
C19   C     C_3   0.402001 0.308166 0.936170 -0.338116
H17   H     H_    0.471470 0.221930 0.908908 0.172109
H18   H     H_    0.336413 0.262817 0.020971 0.157882
H19   H     H_    0.342477 0.318174 0.812071 0.200130
C20   C     C_3   0.596281 0.692798 0.063568 -0.381734
H20   H     H_    0.662942 0.738093 0.980112 0.154407
H21   H     H_    0.525767 0.778073 0.087950 0.187544
H22   H     H_    0.654163 0.684365 0.189696 0.185228
C21   C     C_3   0.363630 0.961478 0.288845 -0.918032
H23   H     H_    0.282529 0.032498 0.303938 0.222193
H24   H     H_    0.392182 0.962523 0.152287 0.238785
H25   H     H_    0.327065 0.841854 0.291781 0.262511
C22   C     C_3   0.636254 0.038799 0.711530 -0.916095
H26   H     H_    0.607113 0.038806 0.847987 0.239161
H27   H     H_    0.717189 0.967325 0.697685 0.222596
H28   H     H_    0.673330 0.158105 0.707829 0.260966

loop_
_geom_bond_atom_site_label_1
_geom_bond_atom_site_label_2
_ccdc_geom_bond_type
C2    O4    A    
C22   H28   S    
C4    O8    A    
C6    N4    S    
C1    O3    A    
Cu2   O3    S    
Cu2   O7    S    
C18   H14   S    
C15   H2    S    
C17   H12   S    
C17   H11   S    
Cu1   N2    S    
C3    O5    A    
C16   H4    S    
Cu2   O2    S    
C19   H19   S    
C20   H22   S    
C6    C9    S    
Cu1   O5    S    
N1    N2    D    
C16   H6    S    
C7    C15   S    
C5    C10   S    
Cu2   O6    S    
C3    C10   S    
C13   C14   D    
C15   H3    S    
N4    H10   S    
C9    C11   S    
C21   H23   S    
C7    C12   S    
C10   C12   S    
C8    C11   S    
C2    C14   S    
C5    N3    S    
C8    C10   S    
N3    H8    S    
C5    C11   S    
C20   H21   S    
C6    C12   S    
C22   H26   S    
C4    O6    A    
C17   H13   S    
C1    O1    A    
C21   H24   S    
C16   H5    S    
C2    O2    A    
Cu1   Cu2   S    
C7    C9    S    
C1    C13   S    
C3    O7    A    
C13   C21   S    
C18   H15   S    
C5    C7    S    
C19   H17   S    
C11   C17   S    
N1    C19   S    
C15   H1    S    
C22   H27   S    
C12   C18   S    
Cu1   O8    S    
C6    C8    S    
C18   H16   S    
N2    C20   S    
C19   H18   S    
C4    C9    S    
Cu1   O1    S    
C14   C22   S    
Cu1   O4    S    
C8    C16   S    
N3    H7    S    
C20   H20   S    
Cu2   N1    S    
C21   H25   S    
N4    H9    S    
