data_mof_unit_32653.cif
_audit_creation_date              2012-12-11T14:42:08-0500
_audit_creation_method            fapswitch 2.2
_symmetry_space_group_name_H-M    P1
_symmetry_Int_Tables_number       1
_space_group_crystal_system       triclinic
_cell_length_a                    18.943574
_cell_length_b                    10.949126
_cell_length_c                    18.786321
_cell_angle_alpha                 89.997578
_cell_angle_beta                  90.443474
_cell_angle_gamma                 89.887453
_cell_volume                      3896.45139742

loop_
_atom_site_label
_atom_site_type_symbol
_atom_type_description
_atom_site_fract_x
_atom_site_fract_y
_atom_site_fract_z
_atom_type_partial_charge
C1    C     C_R   0.727442 0.952694 0.852749 0.550459
C2    C     C_R   0.272996 0.952708 0.146788 0.560089
C3    C     C_R   0.227310 0.452808 0.852844 0.545635
C4    C     C_R   0.772964 0.452702 0.146676 0.566833
C5    C     C_R   0.690943 0.434254 0.043920 -0.158627
C6    C     C_R   0.305867 0.444567 0.958205 -0.180784
C7    C     C_R   0.191940 0.936683 0.043534 -0.157232
C8    C     C_R   0.805665 0.946885 0.958437 -0.183292
C9    C     C_R   0.752398 0.393712 0.079144 -0.008963
C10   C     C_R   0.244074 0.405908 0.923615 0.000640
C11   C     C_R   0.252810 0.894514 0.079144 -0.011086
C12   C     C_R   0.744616 0.905765 0.923410 0.003008
C13   C     C_R   0.797994 0.308162 0.044007 0.259262
C14   C     C_R   0.190489 0.346565 0.963372 0.236672
C15   C     C_R   0.298454 0.808724 0.044259 0.246827
C16   C     C_R   0.691646 0.844224 0.962698 0.251559
C17   C     C_R   0.783608 0.278568 0.973679 -0.107988
C18   C     C_R   0.192336 0.356830 0.036471 -0.129583
C19   C     C_R   0.284166 0.779615 0.973769 -0.111864
C20   C     C_R   0.693009 0.853970 0.035871 -0.117106
C21   C     C_R   0.727654 0.331942 0.936474 -0.037645
C22   C     C_R   0.253885 0.395334 0.071507 -0.017462
C23   C     C_R   0.228380 0.833578 0.936402 -0.039946
C24   C     C_R   0.753785 0.895115 0.071382 -0.022414
C25   C     C_R   0.457161 0.273774 0.551211 -0.126022
C26   C     C_R   0.438107 0.276195 0.480131 -0.131799
C27   C     C_R   0.957162 0.773772 0.551211 -0.126008
C28   C     C_R   0.938108 0.776194 0.480131 -0.131810
C29   C     C_R   0.446133 0.171440 0.438563 0.027869
C30   C     C_R   0.486145 0.166998 0.580754 0.030183
C31   C     C_R   0.946137 0.671440 0.438562 0.028361
C32   C     C_R   0.986148 0.666997 0.580753 0.030175
C33   C     C_R   0.466168 0.060440 0.470416 -0.129515
C34   C     C_R   0.486416 0.058331 0.541483 -0.136921
C35   C     C_R   0.966176 0.560441 0.470414 -0.129558
C36   C     C_R   0.986424 0.558331 0.541481 -0.136955
C37   C     C_R   0.810991 0.368926 0.539445 -0.136782
C38   C     C_R   0.213962 0.307696 0.472004 -0.126067
C39   C     C_R   0.310987 0.868910 0.539442 -0.136807
C40   C     C_R   0.713963 0.807693 0.472005 -0.125961
C41   C     C_R   0.814477 0.374133 0.466724 -0.135113
C42   C     C_R   0.211712 0.322052 0.544696 -0.133101
C43   C     C_R   0.314472 0.874116 0.466720 -0.135190
C44   C     C_R   0.711713 0.822049 0.544697 -0.132969
C45   C     C_R   0.529354 0.178193 0.850295 0.540275
C46   C     C_R   0.469706 0.177636 0.149033 0.557637
C47   C     C_R   0.031322 0.677582 0.851639 0.537425
C48   C     C_R   0.971402 0.678491 0.150140 0.563595
C49   C     C_R   0.758831 0.425266 0.426951 0.036109
C50   C     C_R   0.248038 0.418501 0.576501 0.030851
C51   C     C_R   0.258828 0.925258 0.426949 0.035726
C52   C     C_R   0.748038 0.918499 0.576502 0.031120
C53   C     C_R   0.698102 0.467280 0.461392 -0.140004
C54   C     C_R   0.290742 0.495793 0.535231 -0.138726
C55   C     C_R   0.198102 0.967280 0.461390 -0.140043
C56   C     C_R   0.790742 0.995791 0.535232 -0.138675
C57   C     C_R   0.693167 0.456643 0.535013 -0.137620
C58   C     C_R   0.293631 0.480343 0.461910 -0.152106
C59   C     C_R   0.193168 0.956643 0.535012 -0.137610
C60   C     C_R   0.793632 0.980340 0.461910 -0.152147
C61   C     C_R   0.749529 0.405807 0.574141 0.031377
C62   C     C_R   0.254031 0.387606 0.429984 0.032295
C63   C     C_R   0.249528 0.905801 0.574139 0.031238
C64   C     C_R   0.754032 0.887602 0.429985 0.032379
C65   C     C_R   0.723591 0.310773 0.859669 0.568539
C66   C     C_R   0.262277 0.361006 0.145874 0.574071
C67   C     C_R   0.223782 0.811286 0.859767 0.563921
C68   C     C_R   0.762255 0.860965 0.145831 0.573857
C69   C     C_R   0.728199 0.955367 0.647602 0.550544
C70   C     C_R   0.272944 0.956661 0.353404 0.540322
C71   C     C_R   0.228199 0.455367 0.647602 0.550469
C72   C     C_R   0.772945 0.456663 0.353405 0.539469
C73   C     C_R   0.527460 0.176173 0.645968 0.547035
C74   C     C_R   0.435122 0.180542 0.362175 0.556426
C75   C     C_R   0.027461 0.676173 0.645969 0.548034
C76   C     C_R   0.935123 0.680542 0.362175 0.556020
C77   C     C_R   0.739314 0.362557 0.646252 0.562816
C78   C     C_R   0.261532 0.358152 0.355281 0.543819
C79   C     C_R   0.239314 0.862556 0.646251 0.562286
C80   C     C_R   0.761533 0.858149 0.355282 0.543778
C81   C     C_2   0.493889 0.172216 0.918713 -0.117460
C82   C     C_2   0.501362 0.167419 0.078768 -0.118241
C83   C     C_2   0.004314 0.666441 0.923903 -0.096973
C84   C     C_2   0.007064 0.676773 0.081600 -0.124536
C85   C     C_2   0.479484 0.078623 0.034669 -0.147646
C86   C     C_2   0.500781 0.074339 0.960448 -0.155409
C87   C     C_2   0.016383 0.575501 0.043731 -0.146168
C88   C     C_2   0.033214 0.582431 0.967871 -0.128409
C89   C     C_R   0.678431 0.403051 0.972928 -0.103167
C90   C     C_R   0.312138 0.431937 0.031631 -0.097410
C91   C     C_R   0.179604 0.905982 0.972536 -0.106338
C92   C     C_R   0.811643 0.934613 0.031917 -0.103831
Cr1   Cr    Cr6+3 0.769270 0.163730 0.750710 1.018982
Cr2   Cr    Cr6+3 0.230730 0.163730 0.249290 1.023060
Cr3   Cr    Cr6+3 0.269270 0.663730 0.750710 1.016327
Cr4   Cr    Cr6+3 0.730730 0.663730 0.249290 1.025498
Cr5   Cr    Cr6+3 0.612620 0.009790 0.748780 1.070715
Cr6   Cr    Cr6+3 0.387380 0.009790 0.251220 1.071124
Cr7   Cr    Cr6+3 0.112620 0.509790 0.748780 1.072745
Cr8   Cr    Cr6+3 0.887380 0.509790 0.251220 1.070666
Cr9   Cr    Cr6+3 0.614160 0.322500 0.747710 1.051744
Cr10  Cr    Cr6+3 0.385840 0.322500 0.252290 1.060413
Cr11  Cr    Cr6+3 0.114160 0.822500 0.747710 1.053251
Cr12  Cr    Cr6+3 0.885840 0.822500 0.252290 1.060624
H1    H     H_    0.442917 0.009574 0.052075 0.225271
H2    H     H_    0.523358 0.990435 0.940879 0.229871
H3    H     H_    0.013086 0.486872 0.068407 0.210003
H4    H     H_    0.071637 0.517685 0.948340 0.203219
H5    H     H_    0.862574 0.341863 0.442178 0.130150
H6    H     H_    0.178686 0.261449 0.575551 0.130616
H7    H     H_    0.362567 0.841838 0.442174 0.130153
H8    H     H_    0.678687 0.761447 0.575552 0.130478
H9    H     H_    0.655122 0.508797 0.431666 0.124496
H10   H     H_    0.318771 0.571961 0.558899 0.134986
H11   H     H_    0.155123 0.008804 0.431666 0.124528
H12   H     H_    0.818771 0.071959 0.558899 0.135029
H13   H     H_    0.644742 0.484165 0.560818 0.130297
H14   H     H_    0.326199 0.540509 0.430332 0.123804
H15   H     H_    0.144744 0.984172 0.560818 0.130437
H16   H     H_    0.826200 0.040506 0.430333 0.123718
H17   H     H_    0.535536 0.239956 0.059812 0.116081
H18   H     H_    0.470124 0.255295 0.939522 0.124874
H19   H     H_    0.017992 0.764929 0.057339 0.123510
H20   H     H_    0.967526 0.734635 0.943472 0.113620
H21   H     H_    0.632080 0.438093 0.945793 0.210229
H22   H     H_    0.362467 0.448148 0.057250 0.217566
H23   H     H_    0.133674 0.942271 0.945213 0.211281
H24   H     H_    0.861477 0.953211 0.057921 0.218682
H25   H     H_    0.654406 0.495132 0.070249 0.184975
H26   H     H_    0.348942 0.484198 0.928544 0.164149
H27   H     H_    0.155668 0.998351 0.069624 0.185976
H28   H     H_    0.848361 0.988340 0.929071 0.165882
H29   H     H_    0.818256 0.216178 0.946133 0.180093
H30   H     H_    0.148180 0.321122 0.066197 0.180886
H31   H     H_    0.318384 0.716299 0.946377 0.181667
H32   H     H_    0.649345 0.815768 0.065254 0.187534
H33   H     H_    0.454625 0.358099 0.581273 0.132658
H34   H     H_    0.421067 0.361613 0.456664 0.131426
H35   H     H_    0.954623 0.858096 0.581273 0.132955
H36   H     H_    0.921066 0.861611 0.456664 0.131482
H37   H     H_    0.470751 0.977236 0.439654 0.131782
H38   H     H_    0.507451 0.974430 0.563744 0.129748
H39   H     H_    0.970763 0.477239 0.439651 0.131611
H40   H     H_    0.007461 0.474432 0.563740 0.129883
H41   H     H_    0.855352 0.329184 0.567983 0.130079
H42   H     H_    0.184670 0.232585 0.448873 0.135764
H43   H     H_    0.355348 0.829162 0.567978 0.129855
H44   H     H_    0.684671 0.732581 0.448874 0.135751
O1    O     O_R   0.784320 0.290430 0.830510 -0.503551
O2    O     O_R   0.215680 0.290430 0.169490 -0.523991
O3    O     O_R   0.284320 0.790430 0.830510 -0.505378
O4    O     O_R   0.715680 0.790430 0.169490 -0.521882
O5    O     O_R   0.554640 0.080370 0.673500 -0.502834
O6    O     O_R   0.445360 0.080370 0.326500 -0.506751
O7    O     O_R   0.054640 0.580370 0.673500 -0.502240
O8    O     O_R   0.945360 0.580370 0.326500 -0.509878
O9    O     O_R   0.543920 0.282180 0.666790 -0.525112
O10   O     O_R   0.456080 0.282180 0.333210 -0.511560
O11   O     O_R   0.043920 0.782180 0.666790 -0.524258
O12   O     O_R   0.956080 0.782180 0.333210 -0.512210
O13   O     O_R   0.679040 0.374160 0.674430 -0.493753
O14   O     O_R   0.320960 0.374160 0.325570 -0.516890
O15   O     O_R   0.179040 0.874160 0.674430 -0.493382
O16   O     O_R   0.820960 0.874160 0.325570 -0.517266
O17   O     O_3   0.665350 0.165340 0.749070 -0.285688
O18   O     O_3   0.334650 0.165340 0.250930 -0.291420
O19   O     O_3   0.165350 0.665340 0.749070 -0.286569
O20   O     O_3   0.834650 0.665340 0.250930 -0.289898
O21   O     O_R   0.762640 0.040960 0.825200 -0.540714
O22   O     O_R   0.237360 0.040960 0.174800 -0.510136
O23   O     O_R   0.262640 0.540960 0.825200 -0.539448
O24   O     O_R   0.737360 0.540960 0.174800 -0.510970
O25   O     O_R   0.667400 0.923970 0.829950 -0.422708
O26   O     O_R   0.332600 0.923970 0.170050 -0.419614
O27   O     O_R   0.167400 0.423970 0.829950 -0.427423
O28   O     O_R   0.832600 0.423970 0.170050 -0.412395
O29   O     O_R   0.553960 0.081340 0.821780 -0.476132
O30   O     O_R   0.446040 0.081340 0.178220 -0.469529
O31   O     O_R   0.053960 0.581340 0.821780 -0.472359
O32   O     O_R   0.946040 0.581340 0.178220 -0.464547
O33   O     O_R   0.543180 0.283240 0.826740 -0.523227
O34   O     O_R   0.456820 0.283240 0.173260 -0.501630
O35   O     O_R   0.043180 0.783240 0.826740 -0.520325
O36   O     O_R   0.956820 0.783240 0.173260 -0.505465
O37   O     O_R   0.678360 0.375140 0.822710 -0.458368
O38   O     O_R   0.321640 0.375140 0.177290 -0.466399
O39   O     O_R   0.178360 0.875140 0.822710 -0.461024
O40   O     O_R   0.821640 0.875140 0.177290 -0.467566
O41   O     O_R   0.785050 0.289380 0.670560 -0.522851
O42   O     O_R   0.214950 0.289380 0.329440 -0.521931
O43   O     O_R   0.285050 0.789380 0.670560 -0.523101
O44   O     O_R   0.714950 0.789380 0.329440 -0.521397
O45   O     O_R   0.763320 0.039990 0.676930 -0.509494
O46   O     O_R   0.236680 0.039990 0.323070 -0.510957
O47   O     O_R   0.263320 0.539990 0.676930 -0.509380
O48   O     O_R   0.736680 0.539990 0.323070 -0.511644
O49   O     O_R   0.668130 0.922920 0.670000 -0.512581
O50   O     O_R   0.331870 0.922920 0.330000 -0.527217
O51   O     O_R   0.168130 0.422920 0.670000 -0.512114
O52   O     O_R   0.831870 0.422920 0.330000 -0.528878
S1    S     S_3+6 0.873580 0.233252 0.082311 0.010456
O53   O     O_2   0.850273 0.159327 0.145292 -0.298610
O54   O     O_2   0.907986 0.150801 0.028847 -0.321082
O55   O     O_3   0.935897 0.332197 0.108800 -0.494469
H45   H     H_    0.972373 0.281570 0.132795 0.357305
S2    S     S_3+6 0.126460 0.244247 0.926469 0.005577
O56   O     O_2   0.160860 0.167888 0.869941 -0.273788
O57   O     O_2   0.098596 0.162029 0.983735 -0.319206
O58   O     O_3   0.057468 0.319391 0.890345 -0.501282
H46   H     H_    0.025577 0.254730 0.872180 0.368617
S3    S     S_3+6 0.372287 0.729384 0.083754 -0.000286
O59   O     O_2   0.345682 0.653002 0.144321 -0.294108
O60   O     O_2   0.406739 0.648217 0.029666 -0.324202
O61   O     O_3   0.436245 0.821812 0.114684 -0.501807
H47   H     H_    0.471745 0.766612 0.136613 0.364877
S4    S     S_3+6 0.630706 0.737223 0.925070 0.008122
O62   O     O_2   0.669105 0.658769 0.872276 -0.275709
O63   O     O_2   0.601000 0.657819 0.982705 -0.322215
O64   O     O_3   0.562555 0.806022 0.883538 -0.509717
H48   H     H_    0.533111 0.738484 0.864739 0.363441

loop_
_geom_bond_atom_site_label_1
_geom_bond_atom_site_label_2
_ccdc_geom_bond_type
C58   C62   A    
C87   C88   S    
Cr6   O6    S    
Cr11  O19   S    
C73   O5    A    
C55   C59   A    
S1    O54   D    
S1    O53   D    
C14   C18   A    
Cr1   O1    S    
C35   C36   A    
C28   H36   S    
C84   C87   D    
C6    H26   S    
Cr11  O11   S    
Cr10  O10   S    
C32   C75   S    
C31   C76   S    
C45   O33   A    
C21   C89   A    
C85   C86   S    
C84   H19   S    
C7    C11   A    
C78   O42   A    
Cr1   O21   S    
C50   C54   A    
C91   H23   S    
C46   O30   A    
Cr11  O35   S    
C32   C36   A    
S4    O63   D    
C66   O2    A    
Cr6   O26   S    
S2    O57   D    
Cr12  O20   S    
C19   H31   S    
Cr4   O4    S    
C73   O9    A    
C8    H28   S    
C58   H14   S    
C74   O6    A    
C23   C67   S    
C57   C61   A    
C16   S4    S    
C9    C13   A    
C22   C66   S    
C15   S3    S    
C52   C69   S    
C46   C82   S    
C52   C56   A    
C11   C15   A    
C89   H21   S    
C38   H42   S    
C12   C16   A    
C29   C33   A    
C67   O39   A    
C49   C72   S    
Cr7   O7    S    
Cr8   O28   S    
C59   H15   S    
Cr4   O20   S    
C60   H16   S    
C8    C92   A    
C51   C70   S    
Cr5   O5    S    
C83   H20   S    
Cr6   O30   S    
C18   C22   A    
C82   H17   S    
C7    H27   S    
C81   C86   D    
C2    O26   A    
Cr10  O14   S    
C71   O47   A    
C88   H4    S    
C70   O46   A    
C44   C52   A    
C5    H25   S    
C83   C88   D    
Cr1   O17   S    
Cr10  O18   S    
C79   O43   A    
C69   O49   A    
C64   C80   S    
Cr2   O18   S    
C86   H2    S    
C1    C12   S    
C43   H7    S    
Cr12  O12   S    
Cr9   O37   S    
C2    C11   S    
C92   H24   S    
C41   C49   A    
C53   H9    S    
O58   H46   S    
Cr7   O19   S    
C77   O13   A    
Cr12  O40   S    
C65   O37   A    
Cr5   O25   S    
Cr6   O50   S    
C67   O3    A    
Cr10  O34   S    
Cr5   O49   S    
Cr11  O39   S    
S4    O62   D    
C47   O35   A    
C10   C14   A    
Cr2   O46   S    
C61   C77   S    
O64   H48   S    
C48   O36   A    
C30   C73   S    
C30   C34   A    
S2    O56   D    
C63   C79   S    
C29   C74   S    
C85   H1    S    
C51   C55   A    
C33   H37   S    
C25   C26   A    
C6    C90   A    
C24   C68   S    
C76   O8    A    
C80   O16   A    
C25   H33   S    
C56   C60   A    
Cr3   O19   S    
Cr7   O31   S    
C15   C19   A    
C50   C71   S    
Cr2   O42   S    
C5    C9    A    
C68   O4    A    
C75   O7    A    
C72   O52   A    
C34   H38   S    
C22   C90   A    
Cr5   O29   S    
S3    O59   D    
Cr4   O48   S    
C16   C20   A    
C1    O25   A    
C69   O45   A    
C33   C34   A    
C56   H12   S    
Cr7   O27   S    
Cr10  O38   S    
C20   H32   S    
C74   O10   A    
Cr9   O17   S    
C68   O40   A    
Cr6   O18   S    
C47   O31   A    
C42   C50   A    
Cr8   O52   S    
C3    O27   A    
S3    O60   D    
C2    O22   A    
C78   O14   A    
C47   C83   S    
C66   O38   A    
C17   H29   S    
C24   C92   A    
S1    O55   S    
C23   C91   A    
Cr3   O3    S    
Cr8   O8    S    
C39   H43   S    
Cr8   O32   S    
C44   H8    S    
C7    C91   A    
C48   O32   A    
Cr9   O33   S    
C19   C23   A    
C57   H13   S    
C54   C58   A    
C75   O11   A    
C25   C30   A    
C76   O12   A    
C40   H44   S    
Cr3   O47   S    
Cr3   O43   S    
C4    O24   A    
C21   C65   S    
C27   C32   A    
O61   H47   S    
C59   C63   A    
C62   C78   S    
C28   C31   A    
Cr1   O45   S    
C79   O15   A    
C26   H34   S    
C53   C57   A    
Cr4   O24   S    
C72   O48   A    
C37   C61   A    
C71   O51   A    
Cr1   O41   S    
Cr2   O2    S    
C82   C85   D    
C39   C63   A    
Cr11  O15   S    
C40   C64   A    
C60   C64   A    
C81   H18   S    
Cr8   O20   S    
S4    O64   S    
C77   O41   A    
C46   O34   A    
Cr9   O13   S    
C42   H6    S    
C3    C10   S    
Cr2   O22   S    
C45   O29   A    
S2    O58   S    
C3    O23   A    
Cr12  O16   S    
C55   H11   S    
C43   C51   A    
Cr5   O17   S    
C14   S2    S    
C54   H10   S    
C31   C35   A    
C1    O21   A    
C13   S1    S    
C18   H30   S    
C45   C81   S    
C37   C41   A    
Cr4   O44   S    
C27   H35   S    
C49   C53   A    
C6    C10   A    
C80   O44   A    
Cr9   O9    S    
C13   C17   A    
C38   C42   A    
C48   C84   S    
C90   H22   S    
C40   C44   A    
S3    O61   S    
C87   H3    S    
O55   H45   S    
C39   C43   A    
C26   C29   A    
C70   O50   A    
C4    O28   A    
Cr7   O51   S    
C27   C28   A    
C65   O1    A    
Cr12  O36   S    
C41   H5    S    
C37   H41   S    
C4    C9    S    
C36   H40   S    
Cr3   O23   S    
C20   C24   A    
C5    C89   A    
C8    C12   A    
C35   H39   S    
C38   C62   A    
C17   C21   A    
