data_mof_unit_11013.cif
_audit_creation_date              2012-12-10T16:32:39-0500
_audit_creation_method            fapswitch 2.2
_symmetry_space_group_name_H-M    P1
_symmetry_Int_Tables_number       1
_space_group_crystal_system       triclinic
_cell_length_a                    16.928876
_cell_length_b                    16.912956
_cell_length_c                    16.933276
_cell_angle_alpha                 65.663974
_cell_angle_beta                  65.523389
_cell_angle_gamma                 65.576473
_cell_volume                      3844.38882921

loop_
_atom_site_label
_atom_site_type_symbol
_atom_type_description
_atom_site_fract_x
_atom_site_fract_y
_atom_site_fract_z
_atom_type_partial_charge
C1    C     C_R   0.588031 0.044596 0.586862 0.190167
C2    C     C_R   0.821477 0.564223 0.033345 0.908311
C3    C     C_R   0.435048 0.968459 0.178184 0.903725
C4    C     C_R   0.564385 0.032983 0.821619 0.912350
C5    C     C_R   0.564150 0.821642 0.033493 0.912805
C6    C     C_R   0.435408 0.178297 0.967816 0.910819
C7    C     C_R   0.033947 0.563999 0.821544 0.912095
C8    C     C_R   0.967833 0.435419 0.178209 0.912389
C9    C     C_R   0.821594 0.034010 0.564011 0.912077
C10   C     C_R   0.178322 0.966906 0.435759 0.909861
C11   C     C_R   0.542018 0.028816 0.538619 -0.287765
C12   C     C_R   0.407896 0.970191 0.408826 0.216715
C13   C     C_R   0.453781 0.990543 0.453828 -0.284958
C14   C     C_R   0.030814 0.538619 0.540837 -0.295244
C15   C     C_R   0.993261 0.454513 0.451542 -0.285928
C16   C     C_R   0.538784 0.542647 0.027205 -0.290408
C17   C     C_R   0.452669 0.455873 0.989013 -0.292331
C18   C     C_R   0.455677 0.086291 0.529072 0.399430
C19   C     C_R   0.541745 0.935788 0.459329 0.385748
C20   C     C_R   0.951229 0.511134 0.579270 0.398415
C21   C     C_R   0.072166 0.483333 0.411832 0.382673
C22   C     C_R   0.518313 0.462227 0.090223 0.400797
C23   C     C_R   0.048348 0.585454 0.586967 0.215836
C24   C     C_R   0.467920 0.538958 0.928779 0.382839
C25   C     C_R   0.411137 0.066233 0.488489 0.380019
C26   C     C_R   0.583607 0.952479 0.505492 0.368623
C27   C     C_R   0.476200 0.418717 0.070718 0.377969
C28   C     C_R   0.514448 0.580037 0.946082 0.364461
C29   C     C_R   0.932299 0.469753 0.534860 0.386734
C30   C     C_R   0.092261 0.522661 0.458191 0.372999
C31   C     C_R   0.547284 0.045140 0.677470 -0.166960
C32   C     C_R   0.448659 0.967415 0.318976 -0.160458
C33   C     C_R   0.049069 0.676070 0.546244 -0.163923
C34   C     C_R   0.975032 0.407620 0.406140 0.213497
C35   C     C_R   0.969472 0.318791 0.448332 -0.134296
C36   C     C_R   0.677045 0.546753 0.045822 -0.161143
C37   C     C_R   0.319479 0.450792 0.963484 -0.176354
C38   C     C_R   0.319649 0.962838 0.451105 -0.141854
C39   C     C_R   0.677728 0.047956 0.546136 -0.148645
C40   C     C_R   0.450006 0.319995 0.964603 -0.131477
C41   C     C_R   0.546626 0.678145 0.045829 -0.159893
C42   C     C_R   0.967847 0.449528 0.318091 -0.178328
C43   C     C_R   0.049886 0.545297 0.677125 -0.148961
C44   C     C_R   0.596453 0.049791 0.724905 -0.091200
C45   C     C_R   0.586875 0.588048 0.043872 0.203476
C46   C     C_R   0.402009 0.955387 0.274132 -0.084903
C47   C     C_R   0.051475 0.724365 0.596013 -0.088662
C48   C     C_R   0.956820 0.273944 0.401894 -0.093309
C49   C     C_R   0.724589 0.596131 0.050267 -0.090798
C50   C     C_R   0.274444 0.402967 0.953334 -0.078856
C51   C     C_R   0.274445 0.952939 0.403214 -0.096032
C52   C     C_R   0.724868 0.051331 0.596071 -0.093924
C53   C     C_R   0.402739 0.274480 0.954092 -0.097343
C54   C     C_R   0.596189 0.725009 0.050350 -0.087045
C55   C     C_R   0.955923 0.402258 0.273776 -0.081842
C56   C     C_R   0.408418 0.409497 0.968551 0.235210
C57   C     C_R   0.051968 0.595757 0.724708 -0.097530
C58   C     C_R   0.681962 0.059149 0.682075 -0.264440
C59   C     C_R   0.318175 0.942365 0.318328 -0.264751
C60   C     C_R   0.059428 0.681977 0.682005 -0.262460
C61   C     C_R   0.944529 0.317790 0.317825 -0.271851
C62   C     C_R   0.681782 0.681873 0.059184 -0.270289
C63   C     C_R   0.318421 0.318290 0.942145 -0.263319
C64   C     C_3   0.648901 0.824396 0.600590 -0.291015
C65   C     C_3   0.325027 0.186428 0.404282 -0.252591
C66   C     C_3   0.241517 0.468442 0.449837 -0.286994
C67   C     C_R   0.968535 0.178204 0.435170 0.907995
C68   C     C_3   0.787499 0.503385 0.533758 -0.267536
C69   C     C_3   0.619748 0.632523 0.819825 -0.270965
C70   C     C_3   0.370476 0.354312 0.187335 -0.255140
C71   C     C_3   0.662550 0.866580 0.357684 -0.259812
C72   C     C_3   0.451216 0.230549 0.508141 -0.297359
C73   C     C_3   0.376091 0.657752 0.847704 -0.244710
C74   C     C_3   0.480955 0.470423 0.233141 -0.298050
C75   C     C_3   0.142286 0.544057 0.261751 -0.290426
C76   C     C_3   0.832996 0.607886 0.654426 -0.304313
C77   C     C_R   0.033506 0.821467 0.564158 0.904776
C78   C     C_R   0.178319 0.435517 0.967386 0.906102
H1    H     H_    0.480008 0.036635 0.711928 0.179418
H2    H     H_    0.478649 0.712619 0.039230 0.167418
H3    H     H_    0.974686 0.517341 0.283380 0.157757
H4    H     H_    0.044258 0.476949 0.711256 0.180668
H5    H     H_    0.718847 0.062787 0.719180 0.188628
H6    H     H_    0.283004 0.933543 0.282968 0.184194
H7    H     H_    0.061631 0.719614 0.719335 0.185482
H8    H     H_    0.934771 0.282663 0.283025 0.185894
H9    H     H_    0.718746 0.718721 0.063199 0.184329
H10   H     H_    0.283101 0.282704 0.933785 0.185689
H11   H     H_    0.622645 0.777877 0.593752 0.190078
H12   H     H_    0.514031 0.980014 0.282687 0.160646
H13   H     H_    0.601307 0.852079 0.658490 0.166035
H14   H     H_    0.713844 0.784439 0.616839 0.164362
H15   H     H_    0.359821 0.157417 0.346099 0.147838
H16   H     H_    0.357465 0.235522 0.396270 0.159941
H17   H     H_    0.254135 0.224699 0.402586 0.198094
H18   H     H_    0.254609 0.413704 0.421733 0.183178
H19   H     H_    0.225491 0.442718 0.525063 0.167304
H20   H     H_    0.305115 0.487516 0.422921 0.167294
H21   H     H_    0.796954 0.487519 0.472467 0.166192
H22   H     H_    0.785052 0.575515 0.515398 0.130280
H23   H     H_    0.041522 0.710145 0.478678 0.162543
H24   H     H_    0.720400 0.496307 0.581542 0.195953
H25   H     H_    0.613835 0.602211 0.776123 0.195219
H26   H     H_    0.673818 0.584998 0.852804 0.167692
H27   H     H_    0.641021 0.694328 0.775724 0.157788
H28   H     H_    0.320779 0.409634 0.152208 0.143000
H29   H     H_    0.365683 0.369970 0.246949 0.172209
H30   H     H_    0.349894 0.291919 0.212393 0.176996
H31   H     H_    0.721161 0.836236 0.385246 0.208293
H32   H     H_    0.660186 0.937555 0.313804 0.130070
H33   H     H_    0.674346 0.826766 0.313586 0.168761
H34   H     H_    0.979442 0.283703 0.514883 0.177482
H35   H     H_    0.399165 0.296088 0.514738 0.174669
H36   H     H_    0.477562 0.234698 0.434723 0.138543
H37   H     H_    0.506658 0.223565 0.531577 0.178841
H38   H     H_    0.405627 0.714597 0.821077 0.210145
H39   H     H_    0.325069 0.658561 0.915430 0.114875
H40   H     H_    0.339223 0.669780 0.800920 0.175648
H41   H     H_    0.483108 0.424742 0.302123 0.175199
H42   H     H_    0.409346 0.493374 0.232122 0.133881
H43   H     H_    0.501228 0.529589 0.222135 0.174588
H44   H     H_    0.197115 0.565182 0.259897 0.205977
H45   H     H_    0.711225 0.479097 0.038133 0.171620
H46   H     H_    0.077760 0.600804 0.265708 0.134320
H47   H     H_    0.162317 0.530212 0.196412 0.168302
H48   H     H_    0.862607 0.661475 0.598614 0.144325
H49   H     H_    0.812068 0.624830 0.718228 0.178248
H50   H     H_    0.771399 0.610098 0.644248 0.166764
H51   H     H_    0.283754 0.517317 0.973657 0.146238
H52   H     H_    0.285031 0.969361 0.519107 0.184002
H53   H     H_    0.711876 0.043112 0.477496 0.176481
H54   H     H_    0.516925 0.285048 0.973840 0.175649
O1    O     O_R   0.982940 0.138950 0.510160 -0.630043
O2    O     O_R   0.982940 0.510160 0.138950 -0.644036
O3    O     O_R   0.861050 0.017060 0.489840 -0.631068
O4    O     O_R   0.138950 0.982940 0.510160 -0.630767
O5    O     O_R   0.867700 0.025880 0.612340 -0.629189
O6    O     O_R   0.132300 0.974120 0.387660 -0.630693
O7    O     O_R   0.025880 0.612340 0.867700 -0.632274
O8    O     O_R   0.974120 0.387660 0.132300 -0.627995
O9    O     O_R   0.612340 0.867700 0.025880 -0.633038
O10   O     O_R   0.387660 0.132300 0.974120 -0.628742
O11   O     O_R   0.387660 0.974120 0.132300 -0.631970
O12   O     O_R   0.017060 0.861050 0.489840 -0.634235
O13   O     O_R   0.612340 0.025880 0.867700 -0.629723
O14   O     O_R   0.132300 0.387660 0.974120 -0.628639
O15   O     O_R   0.867700 0.612340 0.025880 -0.632180
O16   O     O_R   0.974120 0.132300 0.387660 -0.631675
O17   O     O_R   0.025880 0.867700 0.612340 -0.632207
O18   O     O_3   0.665873 0.893458 0.518621 -0.597662
O19   O     O_3   0.323080 0.118299 0.488055 -0.567077
O20   O     O_3   0.172066 0.545914 0.422585 -0.596890
O21   O     O_3   0.855090 0.441189 0.576265 -0.559971
O22   O     O_3   0.535606 0.657927 0.883681 -0.598086
O23   O     O_R   0.138950 0.510160 0.982940 -0.645069
O24   O     O_3   0.461053 0.337413 0.130809 -0.571414
O25   O     O_3   0.581295 0.859672 0.428665 -0.585405
O26   O     O_3   0.410748 0.159875 0.563664 -0.559691
O27   O     O_3   0.445321 0.574273 0.848539 -0.581942
O28   O     O_3   0.542784 0.422399 0.169598 -0.559678
O29   O     O_3   0.133808 0.463262 0.332627 -0.599479
O30   O     O_3   0.893859 0.519434 0.663812 -0.555254
O31   O     O_R   0.861050 0.489840 0.017060 -0.629707
O32   O     O_R   0.510160 0.982940 0.138950 -0.638700
O33   O     O_R   0.489840 0.017060 0.861050 -0.631648
O34   O     O_R   0.489840 0.861050 0.017060 -0.632531
O35   O     O_R   0.510160 0.138950 0.982940 -0.631979
O36   O     O_R   0.017060 0.489840 0.861050 -0.626061
Zn1   Zn    Zn3+2 0.004880 0.004880 0.583590 0.968986
Zn2   Zn    Zn3+2 0.995120 0.995120 0.416410 0.955758
Zn3   Zn    Zn3+2 0.004880 0.583590 0.004880 0.928588
Zn4   Zn    Zn3+2 0.995120 0.416410 0.995120 0.971455
Zn5   Zn    Zn3+2 0.583590 0.004880 0.004880 0.954713
Zn6   Zn    Zn3+2 0.416410 0.995120 0.995120 0.959656

loop_
_geom_bond_atom_site_label_1
_geom_bond_atom_site_label_2
_ccdc_geom_bond_type
C8    O8    A    
C16   C28   A    
O9    Zn5   S    
C7    O36   A    
C11   C18   A    
O14   Zn4   S    
C63   H10   S    
O6    Zn2   S    
C75   H44   S    
C76   H48   S    
C76   O30   S    
C34   C42   A    
C41   H2    S    
C24   O27   S    
C23   C43   A    
O10   Zn6   S    
C74   H41   S    
C9    C52   S    
C72   H37   S    
C73   H38   S    
C39   H53   S    
C33   H23   S    
C38   H52   S    
C66   H19   S    
C66   H18   S    
C67   O1    A    
C68   H24   S    
C70   H29   S    
C46   C59   A    
C78   O23   A    
C35   C48   A    
C71   H32   S    
O12   Zn2   S    
C1    C31   A    
C72   H36   S    
C72   O26   S    
C4    O33   A    
C34   C35   A    
O3    Zn2   S    
C19   C26   A    
O1    Zn1   S    
C47   C60   A    
C37   C56   A    
C9    O5    A    
C32   H12   S    
C44   C58   A    
C40   C56   A    
C71   H33   S    
O16   Zn2   S    
O7    Zn3   S    
C49   C62   A    
C6    O10   A    
C15   C34   S    
O5    Zn1   S    
O35   Zn5   S    
C64   H14   S    
C65   H15   S    
C39   C52   A    
C40   H54   S    
O8    Zn4   S    
C12   C32   A    
C28   O22   S    
C50   C63   A    
C13   C25   A    
C18   C25   A    
C64   H11   S    
C14   C30   A    
C42   H3    S    
C10   C51   S    
C50   C78   S    
C8    C55   S    
O15   Zn3   S    
C15   C29   A    
C20   C29   A    
C69   H25   S    
C71   O25   S    
O34   Zn6   S    
C17   C24   A    
C73   H39   S    
C31   C44   A    
C13   C19   A    
C65   H17   S    
C8    O2    A    
C75   H46   S    
C17   C27   A    
C14   C20   A    
C5    C54   S    
C26   O18   S    
C36   H45   S    
C21   O29   S    
C59   H6    S    
C68   O21   S    
C70   H28   S    
C77   O17   A    
C69   H27   S    
C57   C60   A    
C38   C51   A    
C4    C44   S    
C11   C26   A    
C23   C33   A    
O33   Zn6   S    
C72   H35   S    
C64   O18   S    
C75   H47   S    
C19   O25   S    
C14   C23   S    
C65   O19   S    
C68   H22   S    
C66   O20   S    
C18   O26   S    
C2    C49   S    
C42   C55   A    
C30   O20   S    
C15   C21   A    
C20   O30   S    
C43   C57   A    
C3    O11   A    
O32   Zn5   S    
C5    O34   A    
O4    Zn1   S    
O31   Zn4   S    
C17   C56   S    
O17   Zn1   S    
C52   C58   A    
C3    O32   A    
C35   H34   S    
C9    O3    A    
C65   H16   S    
O13   Zn5   S    
C36   C45   A    
O2    Zn3   S    
C22   C27   A    
C76   H50   S    
C70   O24   S    
C51   C59   A    
C47   C77   S    
C6    C53   S    
C55   C61   A    
C74   H42   S    
C29   O21   S    
C62   H9    S    
C69   H26   S    
C27   O24   S    
C76   H49   S    
C6    O35   A    
C16   C22   A    
C73   H40   S    
C32   C46   A    
C5    O9    A    
C24   C28   A    
C10   O4    A    
C2    O31   A    
C60   H7    S    
C31   H1    S    
C74   O28   S    
C78   O14   A    
C54   C62   A    
C21   C30   A    
C73   O27   S    
C3    C46   S    
C69   O22   S    
C64   H13   S    
C75   O29   S    
C25   O19   S    
C66   H20   S    
C2    O15   A    
C77   O12   A    
C70   H30   S    
C58   H5    S    
C7    O7    A    
C37   C50   A    
C53   C63   A    
C48   C61   A    
C22   O28   S    
C33   C47   A    
C4    O13   A    
C71   H31   S    
C37   H51   S    
C48   C67   S    
C12   C38   A    
C41   C54   A    
C68   H21   S    
C61   H8    S    
C1    C39   A    
C16   C45   S    
O23   Zn3   S    
O36   Zn4   S    
C74   H43   S    
C12   C13   S    
C40   C53   A    
C67   O16   A    
C43   H4    S    
C41   C45   A    
C1    C11   S    
C10   O6    A    
O11   Zn6   S    
C7    C57   S    
C36   C49   A    
