data_mof_unit_21189.cif
_audit_creation_date              2012-12-10T18:06:01-0500
_audit_creation_method            fapswitch 2.2
_symmetry_space_group_name_H-M    P1
_symmetry_Int_Tables_number       1
_space_group_crystal_system       triclinic
_cell_length_a                    12.725959
_cell_length_b                    13.106551
_cell_length_c                    14.982841
_cell_angle_alpha                 93.879848
_cell_angle_beta                  102.269458
_cell_angle_gamma                 81.370598
_cell_volume                      2412.65847034

loop_
_atom_site_label
_atom_site_type_symbol
_atom_type_description
_atom_site_fract_x
_atom_site_fract_y
_atom_site_fract_z
_atom_type_partial_charge
C1    C     C_R   0.438958 0.691350 0.493256 0.858173
C2    C     C_R   0.402522 0.549282 0.798975 -0.053347
C3    C     C_R   0.498259 0.507766 0.768701 -0.089710
C4    C     C_R   0.500136 0.501926 0.672610 0.886602
C5    C     C_R   0.592572 0.470923 0.829707 -0.261775
C6    C     C_R   0.702379 0.071095 0.628949 -0.168116
C7    C     C_R   0.597975 0.201080 0.527598 -0.035328
C8    C     C_R   0.304375 0.833562 0.424284 -0.176466
C9    C     C_R   0.280589 0.935201 0.398134 -0.139801
C10   C     C_R   0.354825 0.003631 0.430392 -0.168897
C11   C     C_R   0.451930 0.972699 0.494772 0.074702
C12   C     C_R   0.593910 0.473572 0.107562 0.118957
C13   C     C_R   0.466218 0.874533 0.532548 0.040561
C14   C     C_R   0.533917 0.036661 0.524643 0.075956
C15   C     C_R   0.623219 0.006093 0.596709 0.144650
C16   C     C_R   0.560839 0.309270 0.511582 0.876555
C17   C     C_R   0.627754 0.915376 0.640874 -0.258802
C18   C     C_R   0.547305 0.852556 0.612584 -0.016563
C19   C     C_R   0.528266 0.131857 0.486677 -0.231499
C20   C     C_R   0.688522 0.169729 0.595701 -0.201177
C21   C     C_R   0.399438 0.801614 0.488148 -0.103217
C22   C     C_R   0.084574 0.383157 0.340318 -0.302238
C23   C     C_R   0.299710 0.553716 0.015776 -0.252217
C24   C     C_R   0.799890 0.626033 0.615754 -0.109150
C25   C     C_R   0.901768 0.657493 0.637978 0.613152
C26   C     C_R   0.981460 0.613794 0.590764 -0.277314
C27   C     C_R   0.959535 0.538512 0.520018 -0.089841
C28   C     C_R   0.498949 0.499945 0.327146 0.889733
C29   C     C_R   0.853180 0.509520 0.497262 0.158718
C30   C     C_R   0.039784 0.490684 0.471340 0.029072
C31   C     C_R   0.008609 0.431652 0.390064 0.178194
C32   C     C_R   0.903307 0.413548 0.362328 -0.322974
C33   C     C_R   0.831179 0.437821 0.420437 -0.004998
C34   C     C_R   0.297773 0.559167 0.922991 -0.015819
C35   C     C_R   0.150917 0.496072 0.500747 -0.042224
C36   C     C_R   0.192588 0.390046 0.373706 0.010900
C37   C     C_R   0.594446 0.475860 0.199973 -0.238960
C38   C     C_R   0.497144 0.499571 0.230756 -0.067266
C39   C     C_R   0.398666 0.523976 0.169569 -0.251350
C40   C     C_R   0.397343 0.526587 0.076937 0.102191
C41   C     C_R   0.495026 0.500766 0.045451 0.072273
C42   C     C_1   0.538375 0.779721 0.677413 0.174778
C43   C     C_1   0.753899 0.366121 0.400775 0.262682
C44   C     C_1   0.191795 0.577742 0.863777 0.183262
C45   C     C_R   0.396434 0.537642 0.890362 0.009814
C46   C     C_1   0.320721 0.618180 0.740357 0.203269
C47   C     C_R   0.494373 0.503141 0.952353 0.032954
C48   C     C_R   0.592698 0.472467 0.921893 0.131818
C49   C     C_R   0.689800 0.442688 0.983863 -0.200701
C50   C     C_R   0.690728 0.444798 0.076659 -0.212680
F1    F     F_    0.922844 0.731504 0.704460 -0.660652
H1    H     H_    0.670757 0.458427 0.247458 0.158454
H2    H     H_    0.060926 0.338304 0.277661 0.143833
H3    H     H_    0.323668 0.543409 0.194281 0.159262
H4    H     H_    0.183070 0.539262 0.561448 0.142013
H5    H     H_    0.737691 0.659726 0.652249 0.167595
H6    H     H_    0.058417 0.642599 0.608504 0.186317
H7    H     H_    0.224420 0.570209 0.040462 0.153254
H8    H     H_    0.666319 0.442096 0.805279 0.159196
H9    H     H_    0.765177 0.419212 0.960618 0.149491
H10   H     H_    0.766772 0.423166 0.124137 0.144709
H11   H     H_    0.743688 0.223351 0.627394 0.157768
H12   H     H_    0.690626 0.896589 0.701115 0.178900
H13   H     H_    0.770442 0.048503 0.684209 0.156930
H14   H     H_    0.465687 0.157781 0.429077 0.141052
H15   H     H_    0.251161 0.778876 0.391108 0.160640
H16   H     H_    0.332401 0.080454 0.404974 0.129759
H17   H     H_    0.207081 0.959718 0.348823 0.145828
H18   H     H_    0.253192 0.354642 0.336068 0.134690
H19   H     H_    0.882528 0.365242 0.300770 0.144167
N1    N     N_R   0.222190 0.444670 0.452360 -0.108876
N2    N     N_R   0.776970 0.554790 0.547140 -0.163413
N3    N     N_1   0.531910 0.723820 0.731738 -0.206460
N4    N     N_1   0.697047 0.303959 0.377034 -0.237545
N5    N     N_1   0.106528 0.592123 0.816931 -0.142266
N6    N     N_1   0.256930 0.674530 0.693879 -0.204270
O1    O     O_R   0.366740 0.627160 0.477250 -0.612923
O2    O     O_R   0.544830 0.662520 0.507680 -0.603375
O3    O     O_R   0.410940 0.482340 0.616930 -0.617281
O4    O     O_R   0.589030 0.517700 0.647360 -0.619458
O5    O     O_R   0.455170 0.337480 0.492320 -0.615710
O6    O     O_R   0.633260 0.372840 0.522750 -0.617945
O7    O     O_R   0.410970 0.482300 0.352640 -0.630560
O8    O     O_R   0.589060 0.517660 0.383070 -0.616705
Zn1   Zn    Zn3+2 0.381090 0.476390 0.479680 0.950162
Zn2   Zn    Zn3+2 0.618910 0.523610 0.520320 0.956879

loop_
_geom_bond_atom_site_label_1
_geom_bond_atom_site_label_2
_ccdc_geom_bond_type
C23   H7    S    
C1    C21   S    
C28   O8    A    
C1    O1    A    
C46   N6    T    
C10   H16   S    
C2    C46   S    
C8    H15   S    
C26   C27   A    
C37   C38   A    
C49   H9    S    
C13   C18   A    
O8    Zn2   S    
C4    O4    A    
C18   C42   S    
C30   C31   A    
C11   C14   A    
C39   H3    S    
C27   C29   A    
C23   C40   A    
C29   C33   A    
C6    H13   S    
C12   C37   A    
O4    Zn2   S    
C6    C15   A    
N1    Zn1   S    
C47   C48   A    
C8    C9    A    
C9    C10   A    
C36   N1    A    
C29   N2    A    
O2    Zn2   S    
C43   N4    T    
O1    Zn1   S    
C28   O7    A    
C1    O2    A    
C8    C21   A    
C22   H2    S    
C45   C47   A    
C2    C45   A    
C5    C48   A    
C22   C31   A    
C5    H8    S    
C35   H4    S    
C33   C43   S    
C34   C44   S    
C24   C25   A    
C4    O3    A    
C39   C40   A    
C37   H1    S    
C32   H19   S    
C25   C26   A    
O6    Zn2   S    
C44   N5    T    
C25   F1    S    
C12   C41   A    
C12   C50   A    
C31   C32   A    
C28   C38   S    
C23   C34   A    
C16   O6    A    
C17   C18   A    
C41   C47   A    
C13   C21   A    
C34   C45   A    
C30   C35   A    
C7    C16   S    
O7    Zn1   S    
C49   C50   A    
C7    C19   A    
C3    C4    S    
O3    Zn1   S    
C22   C36   A    
C36   H18   S    
C24   N2    A    
C15   C17   A    
C40   C41   A    
C42   N3    T    
C14   C19   A    
C3    C5    A    
N2    Zn2   S    
C24   H5    S    
C6    C20   A    
C32   C33   A    
C2    C3    A    
C9    H17   S    
C17   H12   S    
C11   C13   A    
C38   C39   A    
C48   C49   A    
C16   O5    A    
C19   H14   S    
C20   H11   S    
C26   H6    S    
C10   C11   A    
C35   N1    A    
C7    C20   A    
C50   H10   S    
C14   C15   A    
O5    Zn1   S    
C27   C30   A    
