data_mof_unit_23434.cif
_audit_creation_date              2012-12-10T17:52:20-0500
_audit_creation_method            fapswitch 2.2
_symmetry_space_group_name_H-M    P1
_symmetry_Int_Tables_number       1
_space_group_crystal_system       triclinic
_cell_length_a                    19.084387
_cell_length_b                    10.626426
_cell_length_c                    9.908217
_cell_angle_alpha                 89.949732
_cell_angle_beta                  89.432704
_cell_angle_gamma                 91.947595
_cell_volume                      2008.11410435

loop_
_atom_site_label
_atom_site_type_symbol
_atom_type_description
_atom_site_fract_x
_atom_site_fract_y
_atom_site_fract_z
_atom_type_partial_charge
C1    C     C_R   0.501667 0.260697 0.500004 0.844346
C2    C     C_R   0.289018 0.485460 0.504601 -0.130549
C3    C     C_R   0.927180 0.407171 0.520751 0.321960
C4    C     C_R   0.068666 0.412691 0.520680 0.318363
C5    C     C_R   0.817835 0.482579 0.624134 -0.131912
C6    C     C_R   0.747567 0.509227 0.615714 -0.290558
C7    C     C_R   0.709792 0.477900 0.499337 -0.139344
C8    C     C_R   0.743386 0.420133 0.389202 0.531329
C9    C     C_R   0.814077 0.391778 0.399698 -0.250816
C10   C     C_R   0.851670 0.424290 0.516036 0.034593
C11   C     C_R   0.618225 0.138906 0.625861 -0.281940
C12   C     C_R   0.365306 0.499429 0.500960 0.878744
C13   C     C_R   0.672313 0.077083 0.691389 0.600212
C14   C     C_R   0.672668 0.945887 0.688192 -0.209100
C15   C     C_R   0.618584 0.876747 0.626136 -0.282679
C16   C     C_R   0.562413 0.938154 0.565152 0.100703
C17   C     C_R   0.562263 0.069930 0.564993 0.036870
C18   C     C_R   0.506779 0.128746 0.499477 -0.045179
C19   C     C_R   0.454592 0.061358 0.430888 -0.216124
C20   C     C_R   0.454798 0.932864 0.430844 -0.185428
C21   C     C_R   0.507153 0.872150 0.499462 -0.066999
C22   C     C_R   0.409033 0.332541 0.141633 -0.135627
C23   C     C_R   0.502367 0.739506 0.499895 0.875696
C24   C     C_R   0.364432 0.249692 0.072266 -0.204352
C25   C     C_R   0.364417 0.249837 0.932593 -0.207753
C26   C     C_R   0.408889 0.333041 0.861533 -0.115603
C27   C     C_R   0.455178 0.417617 0.928527 0.148305
C28   C     C_R   0.455224 0.417520 0.073045 0.073781
C29   C     C_R   0.543302 0.579302 0.071403 0.499191
C30   C     C_R   0.543084 0.578651 0.927149 -0.258391
C31   C     C_R   0.634525 0.496844 0.499308 0.871534
C32   C     C_R   0.250954 0.519030 0.621173 0.530058
C33   C     C_R   0.178407 0.494163 0.624762 -0.279422
C34   C     C_R   0.144725 0.433012 0.516849 0.026031
C35   C     C_R   0.183276 0.400152 0.402091 -0.159712
C36   C     C_R   0.254790 0.426989 0.395688 -0.294253
H1    H     H_    0.621486 0.240304 0.619756 0.162852
H2    H     H_    0.715354 0.897032 0.733772 0.160397
H3    H     H_    0.622050 0.775400 0.624519 0.164856
H4    H     H_    0.413164 0.880351 0.379794 0.154067
H5    H     H_    0.405535 0.327387 0.248660 0.191321
H6    H     H_    0.329462 0.185375 0.127441 0.146981
H7    H     H_    0.329319 0.185834 0.878776 0.154279
H8    H     H_    0.404997 0.329010 0.754568 0.198417
H9    H     H_    0.148073 0.525535 0.710375 0.160545
H10   H     H_    0.577954 0.642373 0.871081 0.147054
H11   H     H_    0.158232 0.354024 0.316962 0.160697
H12   H     H_    0.283555 0.399139 0.306515 0.170818
H13   H     H_    0.845748 0.509435 0.714843 0.155407
H14   H     H_    0.722603 0.553956 0.700970 0.163087
H15   H     H_    0.839323 0.343904 0.316953 0.162695
H16   H     H_    0.412793 0.108486 0.379919 0.136280
N1    N     N_R   0.033130 0.382920 0.406658 -0.178021
N2    N     N_R   0.963534 0.380309 0.406683 -0.178814
N3    N     N_R   0.962736 0.432242 0.635813 -0.177259
N4    N     N_R   0.032226 0.434835 0.635793 -0.179923
N5    N     N_R   0.499340 0.498800 0.142780 -0.126201
N6    N     N_R   0.499320 0.498720 0.857170 -0.124814
O1    O     O_R   0.500000 0.316780 0.614690 -0.650242
O2    O     O_R   0.499990 0.316750 0.385360 -0.623979
O3    O     O_R   0.398140 0.500000 0.614700 -0.583157
O4    O     O_R   0.398130 0.499970 0.385370 -0.653583
O5    O     O_R   0.500010 0.683250 0.614640 -0.609666
O6    O     O_R   0.500000 0.683220 0.385310 -0.566003
O7    O     O_R   0.601870 0.500030 0.614630 -0.651190
O8    O     O_R   0.601860 0.500000 0.385300 -0.517585
Zn1   Zn    Zn3+2 0.500000 0.500020 0.653130 0.944094
Zn2   Zn    Zn3+2 0.500000 0.499980 0.346870 1.006871
O9    O     O_3   0.284760 0.586431 0.723369 -0.593990
C37   C     C_3   0.266648 0.537330 0.852099 -0.280336
H17   H     H_    0.260657 0.432656 0.852626 0.150665
H18   H     H_    0.218146 0.580215 0.890693 0.164373
H19   H     H_    0.309380 0.563268 0.923007 0.199918
O10   O     O_3   0.728876 0.142188 0.748156 -0.601783
C38   C     C_3   0.705422 0.227775 0.846339 -0.301710
H20   H     H_    0.665342 0.183783 0.915816 0.167157
H21   H     H_    0.684945 0.313391 0.798477 0.170896
H22   H     H_    0.750831 0.258585 0.908605 0.197111
O11   O     O_3   0.587323 0.660326 0.141921 -0.737994
H23   H     H_    0.615841 0.711620 0.076698 0.303407
O12   O     O_3   0.705407 0.379161 0.278297 -0.590630
C39   C     C_3   0.725691 0.452766 0.165031 -0.277734
H24   H     H_    0.723009 0.555425 0.186409 0.180011
H25   H     H_    0.688743 0.430900 0.081858 0.181962
H26   H     H_    0.779072 0.429664 0.129040 0.142417

loop_
_geom_bond_atom_site_label_1
_geom_bond_atom_site_label_2
_ccdc_geom_bond_type
C31   O8    A    
O8    Zn2   S    
N3    N4    A    
C16   C21   A    
C4    N1    A    
C33   H9    S    
C35   C36   A    
C9    H15   S    
C2    C12   S    
C25   H7    S    
O12   C39   S    
C26   H8    S    
C7    C8    A    
N1    N2    A    
C1    C18   S    
O6    Zn2   S    
C18   C19   A    
C1    O1    A    
C5    C6    A    
C20   H4    S    
C3    N2    A    
C22   H5    S    
C15   C16   A    
C24   H6    S    
C2    C32   A    
C34   C35   A    
C11   H1    S    
O1    Zn1   S    
C3    N3    A    
C19   H16   S    
C19   C20   A    
C8    C9    A    
O7    Zn1   S    
C37   H17   S    
C9    C10   A    
C23   O5    A    
C35   H11   S    
C22   C28   A    
C13   C14   A    
C4    N4    A    
C5    H13   S    
C33   C34   A    
O5    Zn1   S    
C4    C34   S    
C7    C31   S    
O10   C38   S    
C8    O12   S    
C24   C25   A    
C1    O2    A    
C16   C17   A    
C25   C26   A    
C28   N5    A    
C38   H20   S    
C29   C30   A    
C14   H2    S    
C12   O4    A    
O3    Zn1   S    
C29   O11   S    
C20   C21   A    
C37   H19   S    
C17   C18   A    
C26   C27   A    
C6    H14   S    
C38   H21   S    
C15   H3    S    
C32   O9    S    
C23   O6    A    
C29   N5    A    
C39   H25   S    
C21   C23   S    
C22   C24   A    
N5    Zn2   S    
C2    C36   A    
C31   O7    A    
C11   C17   A    
C30   H10   S    
C27   N6    A    
C6    C7    A    
C39   H26   S    
O4    Zn2   S    
C32   C33   A    
C5    C10   A    
C3    C10   S    
C12   O3    A    
C11   C13   A    
C30   N6    A    
C36   H12   S    
O9    C37   S    
C38   H22   S    
O11   H23   S    
N6    Zn1   S    
C13   O10   S    
O2    Zn2   S    
C39   H24   S    
C27   C28   A    
C14   C15   A    
C37   H18   S    
