data_mof_unit_9148.cif
_audit_creation_date              2012-10-26T18:55:39-0400
_audit_creation_method            fapswitch 2.2
_symmetry_space_group_name_H-M    P1
_symmetry_Int_Tables_number       1
_space_group_crystal_system       triclinic
_cell_length_a                    12.740767
_cell_length_b                    13.861942
_cell_length_c                    27.80517
_cell_angle_alpha                 90.530047
_cell_angle_beta                  92.932624
_cell_angle_gamma                 98.019595
_cell_volume                      4855.66041385

loop_
_atom_site_label
_atom_site_type_symbol
_atom_type_description
_atom_site_fract_x
_atom_site_fract_y
_atom_site_fract_z
_atom_type_partial_charge
C1    C     C_R   0.483458 0.315802 0.499036 0.533248
C2    C     C_R   0.531772 0.432877 0.871555 -0.034749
C3    C     C_R   0.501249 0.499524 0.353821 -0.064159
C4    C     C_R   0.499760 0.508679 0.645322 -0.053186
C5    C     C_R   0.516823 0.419896 0.972750 -0.030348
C6    C     C_R   0.491773 0.588438 0.025498 -0.016086
C7    C     C_R   0.468705 0.584841 0.974878 -0.021871
C8    C     C_R   0.499868 0.412888 0.022969 -0.029927
C9    C     C_R   0.493498 0.504288 0.948410 -0.050932
C10   C     C_R   0.499385 0.500177 0.049735 -0.048603
C11   C     C_R   0.560630 0.348188 0.946419 0.266062
C12   C     C_R   0.516540 0.684219 0.500555 0.549768
C13   C     C_R   0.512446 0.677140 0.052345 0.239549
C14   C     C_R   0.558270 0.349906 0.896055 0.283925
C15   C     C_R   0.518297 0.676543 0.102886 0.284709
C16   C     C_R   0.500487 0.500471 0.407167 0.556083
C17   C     C_R   0.499702 0.502111 0.592538 0.571951
C18   C     C_R   0.482166 0.323297 0.047498 0.000534
C19   C     C_R   0.420670 0.657113 0.949790 -0.000206
C20   C     C_1   0.526283 0.787613 0.500660 -0.013256
C21   C     C_1   0.473685 0.212512 0.496469 -0.051804
C22   C     C_2   0.544942 0.980038 0.500535 0.283526
C23   C     C_R   0.505317 0.499105 0.100717 -0.138042
C24   C     C_2   0.456124 0.020348 0.490988 0.282993
C25   C     C_1   0.464720 0.125406 0.493903 -0.036535
C26   C     C_1   0.535350 0.874822 0.500674 -0.004894
C27   C     C_2   0.028428 0.463580 0.493863 -0.055894
C28   C     C_2   0.971594 0.536010 0.506241 -0.060084
C29   C     C_1   0.854537 0.522626 0.507242 0.152162
C30   C     C_1   0.145462 0.477157 0.492788 0.162477
C31   C     C_R   0.499446 0.410587 0.175773 0.451975
C32   C     C_R   0.460577 0.587938 0.822211 0.405053
C33   C     C_R   0.523584 0.584272 0.177994 0.410921
C34   C     C_R   0.495464 0.508489 0.897648 -0.137872
C35   C     C_R   0.543084 0.443949 0.821765 0.438921
C36   C     C_R   0.588908 0.464790 0.280803 0.295759
C37   C     C_R   0.431966 0.444656 0.720501 0.291450
C38   C     C_R   0.583998 0.461867 0.331056 0.222363
C39   C     C_R   0.434042 0.438184 0.670253 0.229280
C40   C     C_R   0.419259 0.533881 0.325121 -0.110469
C41   C     C_R   0.567147 0.583486 0.671099 -0.106696
C42   C     C_R   0.420730 0.529691 0.274574 -0.033350
C43   C     C_R   0.568305 0.587078 0.721739 -0.027091
C44   C     C_R   0.506373 0.496488 0.252501 0.166488
C45   C     C_R   0.500150 0.409563 0.125040 0.012510
C46   C     C_R   0.500675 0.517520 0.746311 0.168834
C47   C     C_1   0.334795 0.576241 0.346924 0.244074
C48   C     C_1   0.633883 0.657427 0.645654 0.237772
C49   C     C_1   0.025713 0.632508 0.518384 0.204617
C50   C     C_1   0.974667 0.366721 0.482285 0.189727
C51   C     C_1   0.334070 0.559100 0.244902 0.252407
C52   C     C_1   0.640512 0.660317 0.748825 0.258162
C53   C     C_3   0.584061 0.201884 0.122737 0.034226
C54   C     C_3   0.574512 0.097871 0.141232 -0.247170
C55   C     C_3   0.682408 0.061774 0.145216 -0.487167
C56   C     C_R   0.461375 0.588378 0.872989 0.024155
C57   C     C_3   0.456973 0.828258 0.884897 0.017991
C58   C     C_3   0.547958 0.838583 0.850441 -0.251746
C59   C     C_3   0.619803 0.935718 0.858138 -0.482085
C60   C     C_3   0.426317 0.281539 0.644452 0.030290
C61   C     C_3   0.356002 0.196637 0.618588 -0.264607
C62   C     C_3   0.410978 0.105589 0.617831 -0.477892
C63   C     C_3   0.633204 0.323348 0.362299 0.024851
C64   C     C_3   0.716991 0.282604 0.394300 -0.235257
C65   C     C_3   0.690994 0.172398 0.399069 -0.464072
C66   C     C_3   0.271952 0.403279 0.752931 0.018439
C67   C     C_R   0.490202 0.321649 0.098017 0.240651
C68   C     C_3   0.215602 0.336065 0.789687 -0.270699
C69   C     C_3   0.107828 0.365181 0.800223 -0.468443
C70   C     C_3   0.755490 0.506040 0.255499 0.020121
C71   C     C_3   0.843442 0.468821 0.228326 -0.265403
C72   C     C_3   0.937840 0.548422 0.223658 -0.468280
C73   C     C_3   0.496822 0.214134 0.849206 0.035082
C74   C     C_3   0.433758 0.149152 0.885042 -0.280113
C75   C     C_3   0.342960 0.081640 0.859278 -0.489579
C76   C     C_3   0.435617 0.806680 0.123855 0.052929
C77   C     C_3   0.418967 0.856888 0.171486 -0.259361
C78   C     C_R   0.425051 0.663723 0.899433 0.255696
C79   C     C_3   0.324032 0.912898 0.167241 -0.482676
C80   C     C_3   0.710674 0.314943 0.988681 0.003613
C81   C     C_3   0.794661 0.308679 0.951674 -0.243415
C82   C     C_3   0.906409 0.339908 0.973846 -0.488279
C83   C     C_3   0.638957 0.785761 0.019456 0.012203
C84   C     C_3   0.666704 0.894991 0.011211 -0.251844
C85   C     C_3   0.780841 0.920847 0.996581 -0.486116
C86   C     C_1   0.438739 0.232931 0.022801 0.286487
C87   C     C_1   0.351552 0.714781 0.973705 0.279072
C88   C     C_3   0.278365 0.007031 0.459736 0.018267
C89   C     C_R   0.515867 0.587576 0.127352 -0.004946
C90   C     C_3   0.209799 0.042263 0.498189 -0.269313
C91   C     C_3   0.118233 0.089334 0.475524 -0.469607
C92   C     C_3   0.731938 0.995648 0.506271 -0.003461
C93   C     C_3   0.768445 0.950206 0.553199 -0.258420
C94   C     C_3   0.866332 0.900452 0.546299 -0.449896
Cu1   Cu    Cu3+1 0.395330 0.493960 0.496930 1.041272
Cu2   Cu    Cu3+1 0.604670 0.506040 0.503070 1.024566
H1    H     H_    0.639482 0.250518 0.147671 0.155275
H2    H     H_    0.596361 0.778611 0.856431 0.177728
H3    H     H_    0.514841 0.833951 0.812617 0.222469
H4    H     H_    0.574336 0.997057 0.850555 0.149983
H5    H     H_    0.685680 0.939933 0.833262 0.175207
H6    H     H_    0.654214 0.942678 0.895705 0.148843
H7    H     H_    0.447207 0.258599 0.681653 0.175794
H8    H     H_    0.500320 0.298993 0.624623 0.128277
H9    H     H_    0.280535 0.180038 0.637171 0.181634
H10   H     H_    0.336871 0.217779 0.581070 0.175566
H11   H     H_    0.487221 0.120570 0.599805 0.174033
H12   H     H_    0.617624 0.202284 0.086467 0.114295
H13   H     H_    0.359143 0.045853 0.597829 0.165634
H14   H     H_    0.426828 0.081353 0.655141 0.157601
H15   H     H_    0.627920 0.286506 0.326277 0.172011
H16   H     H_    0.555228 0.307271 0.379184 0.115072
H17   H     H_    0.795776 0.299981 0.378583 0.187330
H18   H     H_    0.721312 0.317420 0.430659 0.211441
H19   H     H_    0.613402 0.153307 0.415520 0.162998
H20   H     H_    0.753459 0.145262 0.422395 0.175169
H21   H     H_    0.688010 0.135990 0.363175 0.142655
H22   H     H_    0.222567 0.398405 0.718544 0.169235
H23   H     H_    0.540104 0.095086 0.177217 0.191681
H24   H     H_    0.281006 0.479459 0.767435 0.161516
H25   H     H_    0.204241 0.259759 0.775652 0.173418
H26   H     H_    0.265727 0.339584 0.823774 0.162305
H27   H     H_    0.117706 0.440568 0.815337 0.166769
H28   H     H_    0.069085 0.314838 0.826930 0.152487
H29   H     H_    0.055777 0.360952 0.766760 0.163091
H30   H     H_    0.787986 0.531686 0.292098 0.166956
H31   H     H_    0.728889 0.568324 0.235395 0.153579
H32   H     H_    0.870600 0.406355 0.247814 0.182242
H33   H     H_    0.811732 0.443035 0.191739 0.165395
H34   H     H_    0.520553 0.049044 0.115993 0.172038
H35   H     H_    0.912833 0.611003 0.203558 0.153763
H36   H     H_    0.000090 0.519032 0.203725 0.171525
H37   H     H_    0.972061 0.573993 0.259858 0.169196
H38   H     H_    0.525103 0.166893 0.821571 0.167311
H39   H     H_    0.443178 0.259231 0.829665 0.160673
H40   H     H_    0.487204 0.105046 0.905201 0.200957
H41   H     H_    0.399284 0.195684 0.910936 0.185509
H42   H     H_    0.286666 0.124997 0.840554 0.150876
H43   H     H_    0.299485 0.034645 0.885981 0.172660
H44   H     H_    0.374111 0.034484 0.832483 0.149091
H45   H     H_    0.718659 0.064767 0.109674 0.143032
H46   H     H_    0.363319 0.752772 0.114780 0.134102
H47   H     H_    0.443609 0.861944 0.095063 0.180377
H48   H     H_    0.405188 0.801214 0.199826 0.217043
H49   H     H_    0.491261 0.908032 0.182677 0.174303
H50   H     H_    0.336293 0.969954 0.139509 0.167870
H51   H     H_    0.314520 0.948648 0.202344 0.163547
H52   H     H_    0.250302 0.862432 0.157357 0.162601
H53   H     H_    0.728985 0.270038 0.020067 0.134223
H54   H     H_    0.715297 0.391213 0.002694 0.113915
H55   H     H_    0.788416 0.232522 0.937778 0.193427
H56   H     H_    0.672528 0.985158 0.157416 0.175736
H57   H     H_    0.780781 0.356810 0.920954 0.190453
H58   H     H_    0.914740 0.416334 0.987467 0.153210
H59   H     H_    0.965235 0.335147 0.946103 0.156407
H60   H     H_    0.923528 0.291436 0.003988 0.148965
H61   H     H_    0.652307 0.744817 0.986205 0.130465
H62   H     H_    0.692689 0.765422 0.049555 0.143027
H63   H     H_    0.612130 0.918246 0.982573 0.167410
H64   H     H_    0.656082 0.935513 0.044888 0.179948
H65   H     H_    0.837051 0.900490 0.025339 0.155765
H66   H     H_    0.798044 0.000556 0.990865 0.151401
H67   H     H_    0.736456 0.107290 0.171726 0.153812
H68   H     H_    0.792647 0.882198 0.962523 0.152805
H69   H     H_    0.227046 0.952507 0.436257 0.169726
H70   H     H_    0.308527 0.066951 0.435446 0.117849
H71   H     H_    0.177128 0.979435 0.520053 0.188743
H72   H     H_    0.258838 0.096295 0.522554 0.158711
H73   H     H_    0.149239 0.153466 0.454181 0.167433
H74   H     H_    0.070380 0.114087 0.504310 0.163726
H75   H     H_    0.065995 0.036046 0.451760 0.148065
H76   H     H_    0.796215 0.053606 0.496452 0.164619
H77   H     H_    0.721753 0.942110 0.475647 0.120158
H78   H     H_    0.489559 0.836053 0.922849 0.127962
H79   H     H_    0.787674 0.008134 0.581448 0.179852
H80   H     H_    0.704053 0.895653 0.565915 0.190055
H81   H     H_    0.847979 0.840589 0.519024 0.169732
H82   H     H_    0.891447 0.869083 0.580914 0.181013
H83   H     H_    0.932865 0.953876 0.534411 0.144605
H84   H     H_    0.410585 0.889473 0.878938 0.158495
N1    N     N_R   0.510943 0.496953 0.200845 -0.393946
N2    N     N_1   0.698270 0.718782 0.770450 -0.307453
N3    N     N_1   0.403613 0.160064 0.003820 -0.306512
N4    N     N_1   0.296215 0.760757 0.992711 -0.295527
N5    N     N_R   0.503186 0.517697 0.798088 -0.390489
N6    N     N_1   0.238040 0.484880 0.492320 -0.176561
N7    N     N_1   0.761960 0.515120 0.507680 -0.183472
N8    N     N_1   0.267385 0.610117 0.364216 -0.270125
N9    N     N_1   0.687083 0.716387 0.625341 -0.299824
N10   N     N_1   0.068974 0.709817 0.528086 -0.287406
N11   N     N_1   0.931953 0.288981 0.473138 -0.338889
N12   N     N_1   0.265010 0.582603 0.221192 -0.314471
O1    O     O_R   0.399110 0.356330 0.497030 -0.500690
O2    O     O_2   0.416478 0.655809 0.796827 -0.468567
O3    O     O_2   0.594149 0.382275 0.796929 -0.455729
O4    O     O_2   0.543143 0.667299 0.204619 -0.474959
O5    O     O_3   0.482648 0.232559 0.120676 -0.521524
O6    O     O_3   0.386820 0.740431 0.875673 -0.516440
O7    O     O_3   0.370680 0.362793 0.645474 -0.548438
O8    O     O_3   0.663066 0.424757 0.357925 -0.543701
O9    O     O_3   0.370928 0.372947 0.745052 -0.563495
O10   O     O_3   0.671034 0.429333 0.258909 -0.542409
O11   O     O_3   0.587683 0.270667 0.871912 -0.516667
O12   O     O_R   0.600890 0.643670 0.502970 -0.496236
O13   O     O_3   0.530435 0.764104 0.128430 -0.520059
O14   O     O_3   0.608662 0.275857 0.969068 -0.555674
O15   O     O_3   0.530937 0.766210 0.030017 -0.577595
O16   O     O_3   0.359784 0.959378 0.481314 -0.582209
O17   O     O_3   0.640268 0.040512 0.512942 -0.594850
O18   O     O_R   0.575890 0.366530 0.502210 -0.491785
O19   O     O_R   0.424110 0.633470 0.497790 -0.474117
O20   O     O_R   0.411620 0.494910 0.427670 -0.494872
O21   O     O_R   0.588380 0.505090 0.572330 -0.495010
O22   O     O_R   0.588400 0.505120 0.432860 -0.453834
O23   O     O_R   0.411600 0.494880 0.567140 -0.458803
O24   O     O_2   0.485400 0.326377 0.200076 -0.434847

loop_
_geom_bond_atom_site_label_1
_geom_bond_atom_site_label_2
_ccdc_geom_bond_type
C70   H31   S    
C2    C35   A    
C40   C47   S    
C80   O14   S    
C24   C25   S    
C34   C56   A    
C93   C94   S    
C23   C45   A    
C57   O6    S    
C57   H84   S    
C85   H65   S    
C73   C74   S    
C66   C68   S    
Cu1   Cu2   S    
C58   H2    S    
C81   C82   S    
C84   H64   S    
Cu2   O22   S    
C55   H56   S    
C53   C54   S    
C1    C21   S    
C73   O11   S    
C21   C25   T    
C18   C86   S    
C36   O10   S    
C32   N5    A    
C55   H45   S    
Cu1   O20   S    
C30   N6    T    
C28   C29   S    
C52   N2    T    
C5    C11   A    
C19   C87   S    
C75   H44   S    
C90   H71   S    
C11   C14   A    
C43   C52   S    
C71   H33   S    
C4    C41   A    
C69   H27   S    
C22   O17   S    
C81   H57   S    
C63   O8    S    
C94   H82   S    
C63   H16   S    
C31   O24   S    
C83   O15   S    
C60   O7    S    
C66   O9    S    
C17   O23   A    
C73   H39   S    
C33   O4    S    
C68   C69   S    
C74   H40   S    
C45   C67   A    
C13   O15   S    
C72   H36   S    
C70   C71   S    
C11   O14   S    
C60   H7    S    
C61   H9    S    
C56   C78   A    
C27   C50   S    
C35   O3    S    
C42   C51   S    
C82   H60   S    
C2    C34   A    
C40   C42   A    
C69   H29   S    
Cu1   O1    S    
C66   H24   S    
C54   H23   S    
C31   N1    A    
C27   C30   S    
C85   H66   S    
C41   C43   A    
Cu2   N7    S    
C92   O17   S    
C42   C44   A    
C88   O16   S    
C17   O21   A    
C84   H63   S    
Cu2   O12   S    
C79   H50   S    
C77   C79   S    
C80   H53   S    
C54   H34   S    
C74   H41   S    
Cu2   O18   S    
C74   C75   S    
C91   H73   S    
C63   C64   S    
C59   H5    S    
C16   O20   A    
C64   H18   S    
C84   C85   S    
C3    C38   A    
C32   O2    S    
C59   H4    S    
C68   H26   S    
C87   N4    T    
C79   H51   S    
C49   N10   T    
C69   H28   S    
C53   H1    S    
C18   C67   A    
C81   H55   S    
C72   H37   S    
C70   O10   S    
C93   H79   S    
C8    C18   A    
Cu2   O21   S    
C29   N7    T    
C60   C61   S    
C94   H81   S    
C65   H19   S    
C19   C78   A    
C80   H54   S    
C5    C9    A    
C61   H10   S    
C33   C89   A    
C15   C89   A    
C28   C49   S    
C83   C84   S    
C83   H61   S    
C4    C39   A    
C35   N5    A    
C14   O11   S    
C12   C20   S    
C23   C89   A    
C76   C77   S    
C16   O22   A    
C50   N11   T    
C48   N9    T    
C15   O13   S    
C4    C17   S    
C88   C90   S    
C3    C40   A    
C7    C19   A    
C13   C15   A    
C22   C26   S    
C86   N3    T    
C92   H77   S    
C65   H20   S    
C38   O8    S    
C71   H32   S    
C36   C44   A    
C82   H59   S    
C90   C91   S    
C77   H49   S    
C76   O13   S    
C72   H35   S    
C7    C9    A    
C39   O7    S    
C54   C55   S    
C37   O9    S    
C64   H17   S    
C91   H74   S    
C90   H72   S    
C1    O18   A    
C59   H6    S    
C58   H3    S    
C12   O19   A    
C80   C81   S    
C67   O5    S    
C75   H42   S    
C68   H25   S    
C6    C10   A    
C5    C8    A    
C31   C45   A    
C6    C7    A    
C62   H11   S    
C10   C23   A    
C83   H62   S    
C93   H80   S    
C88   H70   S    
C91   H75   S    
C53   O5    S    
C64   C65   S    
C36   C38   A    
C58   C59   S    
C77   H48   S    
Cu1   O19   S    
C71   C72   S    
C37   C39   A    
C75   H43   S    
C6    C13   A    
C33   N1    A    
C53   H12   S    
C70   H30   S    
C57   C58   S    
C9    C34   A    
C62   H13   S    
C20   C26   T    
C62   H14   S    
C92   H76   S    
Cu1   O23   S    
C92   C93   S    
C37   C46   A    
C41   C48   S    
C24   O16   S    
C79   H52   S    
C22   C24   D    
C94   H83   S    
C12   O12   A    
C46   N5    S    
C63   H15   S    
C61   C62   S    
C2    C14   A    
C43   C46   A    
C3    C16   S    
C55   H67   S    
C57   H78   S    
C82   H58   S    
C76   H47   S    
C73   H38   S    
C8    C10   A    
C88   H69   S    
C66   H22   S    
C27   C28   D    
C85   H68   S    
C65   H21   S    
C1    O1    A    
C78   O6    S    
C47   N8    T    
C60   H8    S    
C44   N1    S    
C32   C56   A    
C51   N12   T    
Cu1   N6    S    
C76   H46   S    
