data_mof_unit_37145.cif
_audit_creation_date              2013-03-05T15:51:39-0500
_audit_creation_method            fapswitch 2.2
_symmetry_space_group_name_H-M    P1
_symmetry_Int_Tables_number       1
_space_group_crystal_system       triclinic
_cell_length_a                    10.680385
_cell_length_b                    10.898087
_cell_length_c                    9.615232
_cell_angle_alpha                 87.549868
_cell_angle_beta                  89.088679
_cell_angle_gamma                 92.468876
_cell_volume                      1116.93467194

loop_
_atom_site_label
_atom_site_type_symbol
_atom_site_description
_atom_site_fract_x
_atom_site_fract_y
_atom_site_fract_z
_atom_type_partial_charge
O1    O     O_R   0.499990 0.319640 0.618810 -0.633256
O2    O     O_R   0.500000 0.319660 0.381240 -0.544954
C1    C     C_R   0.510568 0.262995 0.503516 0.858254
O3    O     O_R   0.316850 0.499960 0.618770 -0.596702
O4    O     O_R   0.316860 0.499980 0.381190 -0.546666
C2    C     C_R   0.259404 0.500077 0.500414 0.878470
Cu1   Cu    Cu3+1 0.499990 0.499990 0.640660 0.959880
Cu2   Cu    Cu3+1 0.500010 0.500010 0.359340 1.030702
O5    O     O_R   0.500000 0.680340 0.618760 -0.620545
O6    O     O_R   0.500010 0.680360 0.381190 -0.553802
O7    O     O_R   0.683140 0.500020 0.618810 -0.594750
O8    O     O_R   0.683150 0.500040 0.381230 -0.590779
C3    C     C_R   0.492346 0.737715 0.497265 0.795800
C4    C     C_R   0.739669 0.494747 0.499688 0.845873
C5    C     C_3   0.037819 0.385509 0.549340 0.217822
C6    C     C_3   0.955890 0.402402 0.418793 -0.181443
H1    H     H_    0.919557 0.328174 0.352762 0.222955
C7    C     C_3   0.875476 0.489961 0.499866 -0.163267
C8    C     C_3   0.955156 0.471659 0.629710 -0.078006
C9    C     C_3   0.039251 0.583187 0.579745 0.159895
C10   C     C_3   0.958623 0.601538 0.449175 -0.206665
C11   C     C_3   0.041356 0.514380 0.369585 0.306597
C12   C     C_3   0.122165 0.497335 0.499836 -0.190105
H2    H     H_    0.924271 0.690721 0.409457 0.212393
C13   C     C_R   0.473638 0.102005 0.767293 -0.199393
H3    H     H_    0.522043 0.185421 0.796491 0.197259
C14   C     C_R   0.406098 0.036795 0.873477 -0.148088
H4    H     H_    0.395778 0.075943 0.974451 0.191214
C15   C     C_R   0.350229 0.922925 0.848436 0.379925
C16   C     C_R   0.374397 0.868783 0.722802 -0.139879
H5    H     H_    0.332336 0.778798 0.708886 0.210429
C17   C     C_R   0.447812 0.931384 0.615778 0.019669
C18   C     C_R   0.482524 0.056121 0.631581 0.069666
C19   C     C_R   0.524945 0.128854 0.512164 -0.132444
C20   C     C_R   0.561827 0.071193 0.390721 0.172115
C21   C     C_R   0.533800 0.945886 0.377331 -0.055908
C22   C     C_R   0.484356 0.873247 0.493146 -0.119014
H6    H     H_    0.351342 0.371247 0.142775 0.188958
C23   C     C_R   0.674470 0.654481 0.133666 -0.175692
H7    H     H_    0.675472 0.666874 0.242540 0.194612
C24   C     C_R   0.763324 0.727034 0.056702 0.254448
C25   C     C_R   0.761748 0.728877 0.913418 -0.204765
H8    H     H_    0.828146 0.788181 0.853062 0.229813
C26   C     C_R   0.673397 0.656945 0.846278 -0.211046
H9    H     H_    0.678079 0.669969 0.736396 0.216215
C27   C     C_R   0.585843 0.576217 0.920196 0.225448
C28   C     C_R   0.586006 0.575718 0.069583 0.207073
N1    N     N_R   0.501210 0.501210 0.147910 -0.206828
C29   C     C_R   0.417451 0.429299 0.080632 0.080428
C30   C     C_R   0.415672 0.428899 0.932931 0.028960
N2    N     N_R   0.501250 0.501290 0.852040 -0.236911
Br1   Br    Br    0.241841 0.840684 0.985822 -0.256523
C31   C     C_2   0.547420 0.897335 0.236875 0.415387
H10   H     H_    0.631221 0.918844 0.174493 0.131196
O9    O     O_2   0.460711 0.840108 0.185239 -0.483054
Br2   Br    Br    0.884053 0.829613 0.146841 -0.395756
C32   C     C_2   0.318271 0.348659 0.870504 0.402677
H11   H     H_    0.325131 0.322426 0.764636 0.154420
O10   O     O_2   0.227173 0.308324 0.939159 -0.493852
Br3   Br    Br    0.094199 0.227177 0.616142 -0.387449
C33   C     C_2   0.909502 0.445714 0.776804 0.533199
H12   H     H_    0.933023 0.509685 0.856705 0.119162
O11   O     O_2   0.845612 0.352625 0.807287 -0.477256
Br4   Br    Br    0.081009 0.719785 0.693263 -0.472293
Br5   Br    Br    0.095813 0.544994 0.177434 -0.345972
Br6   Br    Br    0.659819 0.161364 0.244100 -0.467854

loop_
_geom_bond_atom_site_label_1
_geom_bond_atom_site_label_2
_geom_bond_distance
_ccdc_geom_bond_type
C9    Br4   1.924465 S    
O4    Cu2   1.964022 S    
C16   C17   1.416845 A    
Cu2   N1    2.032264 S    
C24   Br2   1.912530 S    
C31   H10   1.081027 S    
C15   C16   1.392191 A    
C14   C15   1.385768 A    
C7    C10   1.532094 S    
C24   C25   1.377372 A    
C4    C7    1.453677 S    
C3    C22   1.482047 S    
C8    C9    1.535292 S    
C20   Br6   1.947972 S    
C9    C12   1.536595 S    
Cu2   O8    1.970611 S    
C17   C18   1.408721 A    
C33   H12   1.084531 S    
C5    C12   1.538009 S    
O2    C1    1.313215 A    
C13   H3    1.076308 S    
Cu1   N2    2.033378 S    
Cu1   Cu2   2.704944 S    
C11   Br5   1.938945 S    
H6    C29   1.082399 S    
C17   C22   1.419391 A    
C9    C10   1.544507 S    
Cu1   O7    1.964021 S    
C30   C32   1.481059 S    
C32   H11   1.071278 S    
O4    C2    1.291707 A    
C25   C26   1.385875 A    
C20   C21   1.397169 A    
C8    C33   1.500021 S    
O3    Cu1   1.970611 S    
C2    C12   1.464894 S    
O1    C1    1.297439 A    
C6    C7    1.539069 S    
C21   C22   1.419688 A    
O8    C4    1.297803 A    
C29   C30   1.420803 A    
C11   C12   1.541492 S    
C31   O9    1.218383 D    
C16   H5    1.075446 S    
C19   C20   1.408190 A    
O7    C4    1.290875 A    
C32   O10   1.222116 D    
O3    C2    1.301413 A    
C13   C14   1.392187 A    
C25   H8    1.082942 S    
C5    C6    1.550565 S    
C5    C8    1.539428 S    
C23   H7    1.061406 S    
C18   C19   1.423615 A    
C26   H9    1.060095 S    
C23   C24   1.391541 A    
C7    C8    1.532912 S    
C5    Br3   1.938985 S    
C10   H2    1.108394 S    
C14   H4    1.082990 S    
Cu1   O5    1.967741 S    
O5    C3    1.306651 A    
C27   C28   1.436197 A    
N1    C29   1.354353 A    
C6    C11   1.545071 S    
C21   C31   1.478685 S    
C26   C27   1.417078 A    
C1    C19   1.475445 S    
C30   N2    1.387639 A    
C10   C11   1.543247 S    
O1    Cu1   1.985577 S    
C23   C28   1.415285 A    
C27   N2    1.383313 A    
O6    C3    1.305455 A    
Cu2   O6    1.985577 S    
O2    Cu2   1.967743 S    
C28   N1    1.381817 A    
C13   C18   1.420482 A    
C6    H1    1.110317 S    
C33   O11   1.220380 D    
C15   Br1   1.910278 S    
