data_mof_unit_52251.cif
_audit_creation_date              2013-03-05T16:03:41-0500
_audit_creation_method            fapswitch 2.2
_symmetry_space_group_name_H-M    P1
_symmetry_Int_Tables_number       1
_space_group_crystal_system       triclinic
_cell_length_a                    8.79693
_cell_length_b                    10.832144
_cell_length_c                    9.52193
_cell_angle_alpha                 90.102242
_cell_angle_beta                  97.966599
_cell_angle_gamma                 90.362393
_cell_volume                      898.56308358

loop_
_atom_site_label
_atom_site_type_symbol
_atom_site_description
_atom_site_fract_x
_atom_site_fract_y
_atom_site_fract_z
_atom_type_partial_charge
O1    O     O_R   0.499990 0.319660 0.618740 -0.611256
O2    O     O_R   0.500010 0.680340 0.381260 -0.611256
O3    O     O_R   0.499990 0.319630 0.381170 -0.535902
O4    O     O_R   0.500010 0.680370 0.618830 -0.535900
C1    C     C_R   0.499866 0.262086 0.499872 0.799206
C2    C     C_R   0.500134 0.737914 0.500127 0.799209
O5    O     O_R   0.274840 0.500010 0.591370 -0.566587
O6    O     O_R   0.725160 0.499990 0.408630 -0.566586
O7    O     O_R   0.274830 0.499980 0.353800 -0.503756
O8    O     O_R   0.725170 0.500020 0.646200 -0.503755
C3    C     C_R   0.204159 0.500084 0.464030 0.833051
C4    C     C_R   0.795841 0.499917 0.535970 0.833044
Cu1   Cu    Cu3+1 0.500000 0.500020 0.640660 1.062219
Cu2   Cu    Cu3+1 0.500000 0.499980 0.359340 1.062219
N1    N     N_R   0.500040 0.500030 0.852080 -0.190754
N2    N     N_R   0.499960 0.499970 0.147920 -0.190754
C5    C     C_2   0.039761 0.485672 0.445835 0.020653
C6    C     C_2   0.960239 0.514331 0.554165 0.020648
C7    C     C_R   0.501095 0.063641 0.372461 -0.126409
C8    C     C_R   0.498905 0.936359 0.627539 -0.126407
H1    H     H_    0.501982 0.111502 0.272775 0.175128
H2    H     H_    0.498018 0.888498 0.727225 0.175129
C9    C     C_R   0.501283 0.935924 0.372592 -0.176932
C10   C     C_R   0.498717 0.064076 0.627408 -0.176933
H3    H     H_    0.502345 0.887718 0.272960 0.158824
H4    H     H_    0.497655 0.112281 0.727040 0.158824
C11   C     C_R   0.500146 0.871770 0.500127 -0.017121
C12   C     C_R   0.499854 0.128230 0.499873 -0.017122
C13   C     C_R   0.402106 0.424007 0.062144 0.554251
C14   C     C_R   0.597894 0.575993 0.937856 0.554253
C15   C     C_R   0.402711 0.424640 0.912497 -0.162742
C16   C     C_R   0.597288 0.575360 0.087503 -0.162736
H5    H     H_    0.325499 0.364661 0.844760 0.152626
H6    H     H_    0.674500 0.635339 0.155240 0.152629
N3    N     N_R   0.969583 0.423873 0.318818 0.135331
O9    O     O_R   0.986085 0.468287 0.194921 -0.299711
O10   O     O_R   0.908092 0.314972 0.327049 -0.355807
N4    N     N_R   0.030416 0.576136 0.681177 0.135328
O11   O     O_R   0.013903 0.531734 0.805078 -0.299702
O12   O     O_R   0.091916 0.685032 0.672938 -0.355810
O13   O     O_3   0.304383 0.347356 0.123340 -0.660716
H7    H     H_    0.241417 0.298990 0.047799 0.316396
O14   O     O_3   0.695616 0.652645 0.876660 -0.660713
H8    H     H_    0.758582 0.701011 0.952201 0.316398

loop_
_geom_bond_atom_site_label_1
_geom_bond_atom_site_label_2
_geom_bond_distance
_ccdc_geom_bond_type
C14   C16   1.425706 A    
O7    Cu2   1.974186 S    
C15   H5    1.082111 S    
N1    C15   1.363918 A    
C8    C11   1.400794 A    
C9    C11   1.401437 A    
N2    C16   1.363918 A    
C1    C12   1.449949 S    
O13   H7    0.991577 S    
C7    C9    1.383468 A    
N3    O9    1.301130 A    
O6    C4    1.283688 A    
O14   H8    0.991577 S    
C13   O13   1.378225 S    
Cu1   N1    2.013078 S    
C5    C6    1.360657 D    
C6    N4    1.441146 S    
C13   C15   1.425706 A    
Cu1   Cu2   2.678709 S    
N4    O12   1.301644 A    
C7    C12   1.400793 A    
O7    C3    1.291913 A    
O2    C2    1.291182 A    
O3    Cu2   1.964974 S    
O8    C4    1.291916 A    
O1    C1    1.291182 A    
C7    H1    1.083315 S    
C8    H2    1.083315 S    
O5    C3    1.283688 A    
C9    H3    1.083283 S    
N4    O11   1.301125 A    
O2    Cu2   1.964432 S    
Cu2   N2    2.013077 S    
C14   O14   1.378224 S    
O1    Cu1   1.964431 S    
C10   C12   1.401437 A    
O5    Cu1   1.971251 S    
N1    C14   1.370734 A    
O4    C2    1.291861 A    
C4    C6    1.439951 S    
O4    Cu1   1.964975 S    
C8    C10   1.383468 A    
C3    C5    1.439949 S    
O6    Cu2   1.971250 S    
C5    N3    1.441148 S    
N3    O10   1.301648 A    
N2    C13   1.370735 A    
C2    C11   1.449948 S    
C10   H4    1.083283 S    
O3    C1    1.291861 A    
O8    Cu1   1.974184 S    
C16   H6    1.082111 S    
