data_mof_unit_6706.cif
_audit_creation_date              2012-10-26T19:41:54-0400
_audit_creation_method            fapswitch 2.2
_symmetry_space_group_name_H-M    P1
_symmetry_Int_Tables_number       1
_space_group_crystal_system       triclinic
_cell_length_a                    10.644324
_cell_length_b                    10.807171
_cell_length_c                    9.609333
_cell_angle_alpha                 90.786689
_cell_angle_beta                  90.228679
_cell_angle_gamma                 93.433548
_cell_volume                      1103.30878173

loop_
_atom_site_label
_atom_site_type_symbol
_atom_type_description
_atom_site_fract_x
_atom_site_fract_y
_atom_site_fract_z
_atom_type_partial_charge
C1    C     C_R   0.498925 0.262454 0.498682 0.604314
C2    C     C_R   0.388528 0.059014 0.556237 0.028424
C3    C     C_R   0.490265 0.127901 0.494491 0.003465
C4    C     C_R   0.259387 0.502514 0.499817 0.592096
C5    C     C_R   0.587936 0.067868 0.431240 -0.170240
C6    C     C_R   0.588112 0.939864 0.432844 -0.153861
C7    C     C_R   0.494865 0.870935 0.505075 0.012788
C8    C     C_R   0.669571 0.665042 0.146816 -0.083000
C9    C     C_R   0.752536 0.745430 0.075935 -0.173829
C10   C     C_R   0.752043 0.745610 0.932416 -0.171930
C11   C     C_R   0.668571 0.665384 0.858845 -0.088237
C12   C     C_3   0.960004 0.520659 0.631561 -0.129722
C13   C     C_R   0.582980 0.581280 0.926686 0.154021
C14   C     C_R   0.583202 0.581139 0.076211 0.161096
C15   C     C_R   0.420768 0.422765 0.072339 -0.007563
C16   C     C_R   0.499066 0.737299 0.501304 0.520811
C17   C     C_R   0.420832 0.422763 0.924488 -0.004564
C18   C     C_R   0.740464 0.502141 0.500356 0.530295
C19   C     C_3   0.038654 0.488510 0.368987 -0.115517
C20   C     C_3   0.962794 0.597362 0.421096 -0.120755
C21   C     C_3   0.877205 0.504431 0.501035 0.048734
C22   C     C_3   0.950656 0.395656 0.449143 -0.122591
C23   C     C_3   0.048194 0.613193 0.551463 -0.142619
C24   C     C_3   0.035639 0.411706 0.579784 -0.100241
C25   C     C_3   0.192030 0.193247 0.398739 -0.131775
C26   C     C_3   0.121957 0.504232 0.499607 0.052664
C27   C     C_R   0.274650 0.113111 0.591777 0.283876
C28   C     C_R   0.184620 0.047406 0.671826 -0.103944
C29   C     C_R   0.200547 0.924528 0.704663 -0.186786
C30   C     C_R   0.302371 0.864423 0.650717 -0.133028
C31   C     C_R   0.396539 0.930158 0.573052 -0.010976
Cu1   Cu    Cu3+1 0.499990 0.499990 0.640660 0.938195
Cu2   Cu    Cu3+1 0.500010 0.500010 0.359340 0.929308
H1    H     H_    0.929855 0.673457 0.356384 0.097665
H2    H     H_    0.355917 0.359372 0.868079 0.127311
H3    H     H_    0.072818 0.475617 0.261044 0.110068
H4    H     H_    0.907785 0.306521 0.407345 0.097372
H5    H     H_    0.065714 0.336468 0.647398 0.150154
H6    H     H_    0.925392 0.534218 0.739233 0.122555
H7    H     H_    0.089007 0.702722 0.592741 0.104184
H8    H     H_    0.664473 0.120455 0.380986 0.114914
H9    H     H_    0.099165 0.089920 0.702241 0.109589
H10   H     H_    0.098161 0.142929 0.407311 0.102953
H11   H     H_    0.255761 0.138569 0.333715 0.114634
H12   H     H_    0.129642 0.873484 0.764956 0.110917
H13   H     H_    0.179520 0.280052 0.342218 0.140114
H14   H     H_    0.304827 0.766490 0.669794 0.156035
H15   H     H_    0.663413 0.894443 0.381016 0.103740
H16   H     H_    0.355813 0.359420 0.126216 0.105065
H17   H     H_    0.677361 0.672976 0.256753 0.174472
H18   H     H_    0.817539 0.808317 0.133136 0.106597
H19   H     H_    0.816692 0.808579 0.877369 0.112908
H20   H     H_    0.675149 0.673328 0.749091 0.181713
N1    N     N_R   0.501210 0.501210 0.147910 -0.244450
N2    N     N_R   0.501250 0.501290 0.852040 -0.248887
O1    O     O_R   0.499990 0.319640 0.618810 -0.476229
O2    O     O_R   0.500000 0.319660 0.381240 -0.497154
O3    O     O_R   0.316850 0.499960 0.618770 -0.490379
O4    O     O_R   0.316860 0.499980 0.381190 -0.505238
O5    O     O_R   0.500000 0.680340 0.618760 -0.536613
O6    O     O_R   0.500010 0.680360 0.381190 -0.517526
O7    O     O_R   0.683140 0.500020 0.618810 -0.528226
O8    O     O_R   0.683150 0.500040 0.381230 -0.525273
O9    O     O_3   0.242980 0.222370 0.532254 -0.581895

loop_
_geom_bond_atom_site_label_1
_geom_bond_atom_site_label_2
_ccdc_geom_bond_type
C8    C9    A    
C24   H5    S    
C15   C17   A    
C6    C7    A    
C1    O2    A    
C18   C21   S    
C9    C10   A    
C17   N2    A    
Cu1   N2    S    
C4    C26   S    
C19   C20   S    
C11   H20   S    
C20   C23   S    
Cu1   O3    S    
C30   C31   A    
Cu2   O8    S    
C2    C27   A    
C20   H1    S    
Cu1   Cu2   S    
C25   H10   S    
C12   H6    S    
C2    C3    A    
C3    C5    A    
C10   H19   S    
Cu2   O2    S    
Cu2   O4    S    
C21   C22   S    
C11   C13   A    
C12   C23   S    
C29   C30   A    
C6    H15   S    
C25   H13   S    
C4    O4    A    
C28   H9    S    
C28   C29   A    
C14   N1    A    
C1    O1    A    
C24   C26   S    
C19   H3    S    
C15   H16   S    
C16   O5    A    
C5    C6    A    
C22   C24   S    
C18   O8    A    
C7    C31   A    
C10   C11   A    
Cu1   O5    S    
Cu1   O7    S    
C23   H7    S    
C15   N1    A    
C8    H17   S    
C30   H14   S    
C27   C28   A    
C19   C22   S    
C20   C21   S    
C25   H11   S    
Cu2   O6    S    
C12   C24   S    
C16   O6    A    
C23   C26   S    
C4    O3    A    
Cu2   N1    S    
C27   O9    S    
C19   C26   S    
C5    H8    S    
C7    C16   S    
C8    C14   A    
C17   H2    S    
C13   N2    A    
C13   C14   A    
C22   H4    S    
C12   C21   S    
Cu1   O1    S    
C18   O7    A    
C29   H12   S    
C2    C31   A    
C1    C3    S    
C25   O9    S    
C9    H18   S    
