data_mof_unit_10401.cif
_audit_creation_date              2012-12-11T15:26:44-0500
_audit_creation_method            fapswitch 2.2
_symmetry_space_group_name_H-M    P1
_symmetry_Int_Tables_number       1
_space_group_crystal_system       triclinic
_cell_length_a                    7.201298
_cell_length_b                    11.774512
_cell_length_c                    29.663621
_cell_angle_alpha                 89.732739
_cell_angle_beta                  89.998523
_cell_angle_gamma                 90.00015
_cell_volume                      2515.20355636

loop_
_atom_site_label
_atom_site_type_symbol
_atom_type_description
_atom_site_fract_x
_atom_site_fract_y
_atom_site_fract_z
_atom_type_partial_charge
O1    O     O_R   0.647170 0.849180 0.201220 -0.534619
O2    O     O_R   0.352830 0.150820 0.798780 -0.536178
O3    O     O_R   0.352830 0.150820 0.701220 -0.536872
O4    O     O_R   0.647170 0.849180 0.298780 -0.536265
O5    O     O_R   0.147170 0.650820 0.298780 -0.534619
O6    O     O_R   0.852830 0.349180 0.701220 -0.536192
O7    O     O_R   0.852830 0.349180 0.798780 -0.536858
O8    O     O_R   0.147170 0.650820 0.201220 -0.536266
O9    O     O_R   0.317430 0.862210 0.298450 -0.540969
O10   O     O_R   0.682570 0.137790 0.701550 -0.540344
O11   O     O_R   0.682570 0.137790 0.798450 -0.540772
O12   O     O_R   0.317430 0.862210 0.201550 -0.540571
O13   O     O_R   0.817430 0.637790 0.201550 -0.540969
O14   O     O_R   0.182570 0.362210 0.798450 -0.540339
O15   O     O_R   0.182570 0.362210 0.701550 -0.540755
O16   O     O_R   0.817430 0.637790 0.298450 -0.540573
H1    H     H_    0.934372 0.212364 0.457199 0.141310
H2    H     H_    0.081328 0.776346 0.539116 0.141668
H3    H     H_    0.018873 0.780865 0.957401 0.139987
H4    H     H_    0.983881 0.213212 0.044856 0.139879
H5    H     H_    0.434534 0.287650 0.042805 0.141307
H6    H     H_    0.581297 0.723651 0.960881 0.141659
H7    H     H_    0.518933 0.719120 0.542608 0.139992
H8    H     H_    0.483726 0.286766 0.455152 0.139879
C1    C     C_R   0.485579 0.886907 0.314316 0.721762
C2    C     C_R   0.514604 0.114500 0.685196 0.724414
C3    C     C_R   0.515448 0.112475 0.814451 0.720918
C4    C     C_R   0.484859 0.889156 0.186146 0.710193
C5    C     C_R   0.985583 0.613090 0.185685 0.721759
C6    C     C_R   0.014598 0.385513 0.814800 0.724441
C7    C     C_R   0.015456 0.387511 0.685544 0.720919
C8    C     C_R   0.984855 0.610842 0.313853 0.710194
H9    H     H_    0.853355 0.257933 0.380366 0.143824
H10   H     H_    0.147670 0.735866 0.616165 0.136587
H11   H     H_    0.076277 0.743395 0.879802 0.135046
H12   H     H_    0.919820 0.253056 0.122404 0.131474
H13   H     H_    0.353427 0.242074 0.119634 0.143823
H14   H     H_    0.647434 0.764079 0.883824 0.136616
H15   H     H_    0.576473 0.756628 0.620205 0.135053
H16   H     H_    0.419710 0.246924 0.377603 0.131479
O17   O     O_3   0.480630 0.680630 0.250000 -0.374622
O18   O     O_3   0.519370 0.319370 0.750000 -0.376114
O19   O     O_3   0.980630 0.819370 0.250000 -0.374622
O20   O     O_3   0.019370 0.180630 0.750000 -0.376109
V1    V     V_3+5 0.205800 0.762860 0.250000 1.394232
V2    V     V_3+5 0.794200 0.237140 0.750000 1.394005
V3    V     V_3+5 0.705800 0.737140 0.250000 1.394233
V4    V     V_3+5 0.294200 0.262860 0.750000 1.394013
H17   H     H_    0.003612 0.273339 0.532382 0.149380
H18   H     H_    0.015510 0.713901 0.464097 0.149698
H19   H     H_    0.970545 0.716870 0.033164 0.150945
H20   H     H_    0.032549 0.276156 0.968987 0.150278
H21   H     H_    0.503818 0.226679 0.967624 0.149377
H22   H     H_    0.515564 0.786108 0.035902 0.149700
H23   H     H_    0.470549 0.783103 0.466844 0.150946
H24   H     H_    0.532402 0.223825 0.531021 0.150281
C9    C     C_R   0.985445 0.528309 0.352552 -0.063089
C10   C     C_R   0.016898 0.466499 0.645549 -0.066545
C11   C     C_R   0.009190 0.464005 0.854388 -0.060433
C12   C     C_R   0.991935 0.532748 0.146823 -0.061595
C13   C     C_R   0.485465 0.971688 0.147448 -0.063091
C14   C     C_R   0.516863 0.033483 0.854444 -0.066472
C15   C     C_R   0.509216 0.036004 0.645610 -0.060451
C16   C     C_R   0.491913 0.967245 0.353179 -0.061598
C17   C     C_R   0.904991 0.343798 0.384824 -0.180323
C18   C     C_R   0.102095 0.648634 0.612076 -0.169793
C19   C     C_R   0.052565 0.653305 0.885185 -0.172273
C20   C     C_R   0.948281 0.342549 0.116848 -0.173116
C21   C     C_R   0.405058 0.156207 0.115176 -0.180326
C22   C     C_R   0.601970 0.851333 0.887916 -0.169809
C23   C     C_R   0.552659 0.846704 0.614819 -0.172273
C24   C     C_R   0.448193 0.157434 0.383159 -0.173124
C25   C     C_R   0.899311 0.419955 0.348662 0.122359
C26   C     C_R   0.095976 0.576344 0.649352 0.122342
C27   C     C_R   0.055752 0.579620 0.848609 0.121842
C28   C     C_R   0.939928 0.417904 0.152937 0.124747
C29   C     C_R   0.399342 0.080046 0.151336 0.122349
C30   C     C_R   0.595802 0.923600 0.850635 0.122357
C31   C     C_R   0.555912 0.920413 0.651389 0.121698
C32   C     C_R   0.439880 0.082085 0.347067 0.124753
C33   C     C_R   0.058774 0.560190 0.395264 0.056679
C34   C     C_R   0.957567 0.429204 0.602217 0.059170
C35   C     C_R   0.959086 0.424412 0.898166 0.057263
C36   C     C_R   0.048537 0.569986 0.103229 0.055077
C37   C     C_R   0.558818 0.939809 0.104736 0.056682
C38   C     C_R   0.457662 0.070816 0.897782 0.059170
C39   C     C_R   0.459002 0.075566 0.601836 0.057257
C40   C     C_R   0.548499 0.930004 0.396774 0.055081
C41   C     C_R   0.014937 0.493053 0.434417 0.069806
C42   C     C_R   0.004180 0.495197 0.562730 0.070421
C43   C     C_R   0.993879 0.495232 0.936719 0.069243
C44   C     C_R   0.013702 0.498648 0.064963 0.067496
C45   C     C_R   0.515018 0.006953 0.065583 0.069806
C46   C     C_R   0.504270 0.004816 0.937269 0.070418
C47   C     C_R   0.493807 0.004748 0.563285 0.069254
C48   C     C_R   0.513633 0.001335 0.435041 0.067495
C49   C     C_R   0.960414 0.379333 0.427399 0.059149
C50   C     C_R   0.056149 0.609800 0.569386 0.058182
C51   C     C_R   0.022414 0.612643 0.928670 0.057257
C52   C     C_R   0.983322 0.381700 0.073307 0.056464
C53   C     C_R   0.460511 0.120674 0.072602 0.059151
C54   C     C_R   0.556157 0.890198 0.930611 0.058180
C55   C     C_R   0.522408 0.887345 0.571336 0.057263
C56   C     C_R   0.483223 0.118281 0.426699 0.056466
C57   C     C_R   0.019767 0.533071 0.480044 0.066973
C58   C     C_R   0.001228 0.454557 0.517023 0.066084
C59   C     C_R   0.000480 0.456487 0.982788 0.067092
C60   C     C_R   0.006948 0.537066 0.018951 0.068162
C61   C     C_R   0.519862 0.966937 0.019956 0.066970
C62   C     C_R   0.501355 0.045457 0.982977 0.066091
C63   C     C_R   0.500384 0.043492 0.517217 0.067088
C64   C     C_R   0.506883 0.962914 0.481054 0.068162
C65   C     C_R   0.991356 0.338105 0.506845 -0.203927
C66   C     C_R   0.028671 0.649567 0.489864 -0.203884
C67   C     C_R   0.994000 0.652995 0.007979 -0.203801
C68   C     C_R   0.011396 0.340513 0.993998 -0.203036
C69   C     C_R   0.491525 0.161909 0.993158 -0.203924
C70   C     C_R   0.528736 0.850441 0.010135 -0.203883
C71   C     C_R   0.493980 0.846983 0.492028 -0.203802
C72   C     C_R   0.511266 0.159467 0.506008 -0.203044
C73   C     C_R   0.959636 0.301858 0.463116 -0.178914
C74   C     C_R   0.058575 0.686488 0.533432 -0.184185
C75   C     C_R   0.014015 0.690214 0.963965 -0.186920
C76   C     C_R   0.990975 0.303731 0.038134 -0.182333
C77   C     C_R   0.459781 0.198154 0.036886 -0.178907
C78   C     C_R   0.558593 0.813514 0.966566 -0.184188
C79   C     C_R   0.514024 0.809770 0.536042 -0.186936
C80   C     C_R   0.490842 0.196248 0.461873 -0.182334
C81   C     C_3   0.157034 0.623714 0.693578 -0.807535
H25   H     H_    0.030957 0.634241 0.714065 0.207306
H26   H     H_    0.259712 0.566933 0.709942 0.222964
H27   H     H_    0.223271 0.708546 0.690057 0.216815
C82   C     C_3   0.802850 0.378473 0.307023 -0.803799
H28   H     H_    0.791226 0.444264 0.280915 0.219247
H29   H     H_    0.878743 0.304272 0.293218 0.215401
H30   H     H_    0.659293 0.351610 0.315664 0.215258
C83   C     C_3   0.883745 0.372636 0.198097 -0.812905
H31   H     H_    0.994907 0.391584 0.222863 0.201535
H32   H     H_    0.750456 0.412781 0.207808 0.220132
H33   H     H_    0.861907 0.279221 0.197858 0.211004
C84   C     C_3   0.088721 0.628489 0.802854 -0.813059
H34   H     H_    0.208124 0.584843 0.787007 0.223045
H35   H     H_    0.959258 0.616056 0.783344 0.196268
H36   H     H_    0.119878 0.720900 0.803689 0.216231
C85   C     C_3   0.656572 0.876134 0.806401 -0.807701
H37   H     H_    0.530307 0.865174 0.786019 0.207368
H38   H     H_    0.758700 0.933045 0.789916 0.222983
H39   H     H_    0.723402 0.791481 0.809949 0.216842
C86   C     C_3   0.302854 0.121525 0.192973 -0.803740
H40   H     H_    0.291246 0.055738 0.219084 0.219234
H41   H     H_    0.378720 0.195741 0.206778 0.215391
H42   H     H_    0.159285 0.148367 0.184330 0.215244
C87   C     C_3   0.383705 0.127355 0.301907 -0.812901
H43   H     H_    0.494880 0.108421 0.277141 0.201532
H44   H     H_    0.250430 0.087202 0.292193 0.220134
H45   H     H_    0.361847 0.220767 0.302148 0.211001
C88   C     C_3   0.589226 0.871621 0.697139 -0.812716
H46   H     H_    0.708961 0.915155 0.712880 0.223030
H47   H     H_    0.460068 0.884310 0.716730 0.196237
H48   H     H_    0.620010 0.779158 0.696324 0.216197
C89   C     C_3   0.819851 0.332487 0.600413 -0.797690
H49   H     H_    0.742230 0.332014 0.568309 0.206746
H50   H     H_    0.890123 0.249858 0.606373 0.203544
H51   H     H_    0.710774 0.344563 0.626299 0.221059
C90   C     C_3   0.204317 0.652802 0.396795 -0.792730
H52   H     H_    0.140545 0.737318 0.390597 0.203810
H53   H     H_    0.281931 0.652395 0.428980 0.204501
H54   H     H_    0.312077 0.636645 0.370904 0.223182
C91   C     C_3   0.173659 0.673331 0.100080 -0.790579
H55   H     H_    0.247465 0.678830 0.067396 0.209175
H56   H     H_    0.093747 0.752209 0.106344 0.202450
H57   H     H_    0.286882 0.666768 0.125299 0.221676
C92   C     C_3   0.836829 0.319916 0.901146 -0.795421
H58   H     H_    0.918857 0.241697 0.895329 0.201718
H59   H     H_    0.761625 0.314675 0.933589 0.209771
H60   H     H_    0.724624 0.324777 0.875620 0.220867
C93   C     C_3   0.320049 0.167587 0.899595 -0.797709
H61   H     H_    0.242424 0.168069 0.931700 0.206751
H62   H     H_    0.390408 0.250190 0.893641 0.203542
H63   H     H_    0.210958 0.155570 0.873711 0.221067
C94   C     C_3   0.704353 0.847190 0.103207 -0.792731
H64   H     H_    0.640570 0.762676 0.109405 0.203808
H65   H     H_    0.781978 0.847595 0.071023 0.204495
H66   H     H_    0.812105 0.863344 0.129099 0.223184
C95   C     C_3   0.673636 0.826668 0.399923 -0.790588
H67   H     H_    0.747444 0.821177 0.432606 0.209176
H68   H     H_    0.593734 0.747785 0.393661 0.202453
H69   H     H_    0.786857 0.833233 0.374702 0.221676
C96   C     C_3   0.336674 0.180030 0.598862 -0.795409
H70   H     H_    0.418652 0.258268 0.604683 0.201721
H71   H     H_    0.261472 0.185264 0.566419 0.209774
H72   H     H_    0.224470 0.175130 0.624389 0.220865

loop_
_geom_bond_atom_site_label_1
_geom_bond_atom_site_label_2
_ccdc_geom_bond_type
H17   C65   S    
H14   C22   S    
O9    V1    S    
C90   H52   S    
H13   C21   S    
C22   C30   A    
C16   C32   A    
C91   H55   S    
C57   C58   A    
C21   C29   A    
C63   C64   A    
C33   C90   S    
H10   C18   S    
C84   H35   S    
C23   C31   A    
O4    C1    A    
C95   H67   S    
O9    C1    A    
C32   C87   S    
C15   C31   A    
C28   C83   S    
C14   C38   A    
H3    C75   S    
C88   H46   S    
O12   C4    A    
O8    C5    A    
C8    C9    S    
C60   C67   A    
O13   C5    A    
C11   C35   A    
C86   H41   S    
H21   C69   S    
H6    C78   S    
C86   H40   S    
C18   C26   A    
C94   H64   S    
O3    V4    S    
C17   C25   A    
O16   V3    S    
C9    C25   A    
C96   H71   S    
O8    V1    S    
C49   C73   A    
C38   C46   A    
C30   C85   S    
C85   H38   S    
C37   C45   A    
C44   C60   A    
C68   C76   A    
C47   C55   A    
C93   H62   S    
C39   C47   A    
O10   V2    S    
O1    C4    A    
C53   C77   A    
C59   C60   A    
O2    C3    A    
O11   C3    A    
C87   H44   S    
C27   C84   S    
C19   C51   A    
C39   C96   S    
C81   H27   S    
C33   C41   A    
C4    C13   S    
O10   C2    A    
C94   H65   S    
O6    C7    A    
C88   H47   S    
O7    C6    A    
H16   C24   S    
C82   H29   S    
H24   C72   S    
O15   V4    S    
O14   C6    A    
C62   C69   A    
C89   H51   S    
C89   H50   S    
O20   V2    S    
C61   C70   A    
C85   H37   S    
H20   C68   S    
C83   H33   S    
C67   C75   A    
C58   C65   A    
H9    C17   S    
O7    V2    S    
C43   C59   A    
C57   C66   A    
C42   C58   A    
C36   C91   S    
C86   H42   S    
C29   C86   S    
O13   V3    S    
C44   C52   A    
C45   C53   A    
O1    V3    S    
C95   H69   S    
O14   V4    S    
C24   C56   A    
O2    V4    S    
C92   H58   S    
O5    V1    S    
C46   C62   A    
C38   C93   S    
H19   C67   S    
C41   C49   A    
C40   C48   A    
H18   C66   S    
C1    C16   S    
C96   H72   S    
C7    C10   S    
C2    C15   S    
C20   C52   A    
C3    C14   S    
C82   H30   S    
C83   H32   S    
C56   C80   A    
C5    C12   S    
H11   C19   S    
C93   H63   S    
C6    C11   S    
C72   C80   A    
O17   V3    S    
C65   C73   A    
O18   V4    S    
C87   H45   S    
C36   C44   A    
O19   V1    S    
C92   H59   S    
C13   C37   A    
H2    C74   S    
H1    C73   S    
C40   C95   S    
C25   C82   S    
C90   H54   S    
C13   C29   A    
C35   C92   S    
C82   H28   S    
C91   H57   S    
C9    C33   A    
C84   H36   S    
C20   C28   A    
H5    C77   S    
H22   C70   S    
C11   C27   A    
C85   H39   S    
C55   C79   A    
C10   C26   A    
H7    C79   S    
C81   H25   S    
C91   H56   S    
C94   H66   S    
C50   C74   A    
C48   C56   A    
C23   C55   A    
C37   C94   S    
O6    V2    S    
C15   C39   A    
C14   C30   A    
O3    C2    A    
O12   V1    S    
C54   C78   A    
C31   C88   S    
C64   C71   A    
C92   H60   S    
H12   C20   S    
O15   C7    A    
C34   C89   S    
C21   C53   A    
C51   C75   A    
O16   C8    A    
C35   C43   A    
C83   H31   S    
C34   C42   A    
C43   C51   A    
O5    C8    A    
C10   C34   A    
C17   C49   A    
C24   C32   A    
C47   C63   A    
C84   H34   S    
C88   H48   S    
C12   C36   A    
C18   C50   A    
C22   C54   A    
C89   H49   S    
C16   C40   A    
C48   C64   A    
C12   C28   A    
C96   H70   S    
C59   C68   A    
H4    C76   S    
C95   H68   S    
C66   C74   A    
H23   C71   S    
C19   C27   A    
C46   C54   A    
C90   H53   S    
C93   H61   S    
C26   C81   S    
C41   C57   A    
H8    C80   S    
H15   C23   S    
C63   C72   A    
O11   V2    S    
C70   C78   A    
C52   C76   A    
C87   H43   S    
C61   C62   A    
C69   C77   A    
C42   C50   A    
C45   C61   A    
C81   H26   S    
O4    V3    S    
C71   C79   A    
