data_mof_unit_46310.cif
_audit_creation_date              2012-12-11T15:08:52-0500
_audit_creation_method            fapswitch 2.2
_symmetry_space_group_name_H-M    P1
_symmetry_Int_Tables_number       1
_space_group_crystal_system       triclinic
_cell_length_a                    21.416709
_cell_length_b                    21.416376
_cell_length_c                    22.269546
_cell_angle_alpha                 90.001944
_cell_angle_beta                  90.002046
_cell_angle_gamma                 90.000138
_cell_volume                      10214.334629

loop_
_atom_site_label
_atom_site_type_symbol
_atom_type_description
_atom_site_fract_x
_atom_site_fract_y
_atom_site_fract_z
_atom_type_partial_charge
C1    C     C_R   0.914362 0.158781 0.078535 -0.145412
C2    C     C_R   0.061533 0.135295 0.112648 -0.131952
C3    C     C_R   0.199206 0.639905 0.155582 -0.207928
C4    C     C_R   0.103335 0.264040 0.693444 -0.205272
C5    C     C_R   0.735941 0.896652 0.306545 -0.205291
C6    C     C_R   0.360104 0.800687 0.844517 -0.207935
C7    C     C_R   0.639911 0.199276 0.155542 -0.207957
C8    C     C_R   0.139865 0.300584 0.344650 -0.207891
C9    C     C_R   0.699309 0.860120 0.655467 -0.207916
C10   C     C_R   0.396661 0.764090 0.193478 -0.205252
C11   C     C_R   0.603337 0.235927 0.806529 -0.205268
C12   C     C_R   0.860063 0.699167 0.344349 -0.207970
C13   C     C_R   0.158782 0.914356 0.921477 -0.145399
C14   C     C_R   0.300845 0.139928 0.655674 -0.207946
C15   C     C_R   0.764150 0.396654 0.193569 -0.205280
C16   C     C_R   0.235804 0.603356 0.806396 -0.205266
C17   C     C_R   0.851684 0.148316 0.089908 0.085669
C18   C     C_R   0.148319 0.851675 0.910114 0.085675
C19   C     C_R   0.107799 0.107785 0.147658 0.075231
C20   C     C_R   0.892207 0.892206 0.852342 0.075232
C21   C     C_R   0.148320 0.851668 0.089873 0.085669
C22   C     C_R   0.851684 0.148330 0.910117 0.085667
C23   C     C_R   0.892207 0.892190 0.147650 0.075240
C24   C     C_R   0.841221 0.085638 0.078535 -0.145403
C25   C     C_R   0.107797 0.107778 0.852342 0.075234
C26   C     C_R   0.392205 0.607793 0.647655 0.075236
C27   C     C_R   0.607778 0.392217 0.352336 0.075236
C28   C     C_R   0.648325 0.648326 0.589879 0.085667
C29   C     C_R   0.351688 0.351663 0.410116 0.085668
C30   C     C_R   0.607809 0.392211 0.647652 0.075239
C31   C     C_R   0.392189 0.607795 0.352349 0.075236
C32   C     C_R   0.351692 0.351670 0.589894 0.085670
C33   C     C_R   0.648331 0.648313 0.410120 0.085675
C34   C     C_R   0.822568 0.902726 0.763284 -0.256953
C35   C     C_R   0.061531 0.135290 0.887350 -0.131954
C36   C     C_R   0.097278 0.177385 0.236752 -0.256967
C37   C     C_R   0.741563 0.178304 0.887988 -0.259631
C38   C     C_R   0.258445 0.821696 0.111995 -0.259624
C39   C     C_R   0.177498 0.097264 0.763345 -0.256930
C40   C     C_R   0.902713 0.822492 0.236651 -0.256939
C41   C     C_R   0.178234 0.741560 0.887910 -0.259630
C42   C     C_R   0.821754 0.258427 0.112107 -0.259644
C43   C     C_R   0.321833 0.241548 0.387837 -0.259648
C44   C     C_R   0.758441 0.678245 0.612071 -0.259627
C45   C     C_R   0.322508 0.597278 0.263328 -0.256935
C46   C     C_R   0.938471 0.864693 0.112633 -0.131938
C47   C     C_R   0.677497 0.402728 0.736668 -0.256939
C48   C     C_R   0.678323 0.758428 0.388006 -0.259657
C49   C     C_R   0.241575 0.321679 0.612019 -0.259655
C50   C     C_R   0.597256 0.322574 0.263285 -0.256958
C51   C     C_R   0.402725 0.677420 0.736721 -0.256957
C52   C     C_R   0.874053 0.874047 0.791022 0.115385
C53   C     C_R   0.125965 0.125924 0.208980 0.115381
C54   C     C_R   0.804041 0.195999 0.897118 0.115345
C55   C     C_R   0.195965 0.803998 0.102865 0.115342
C56   C     C_R   0.125975 0.125920 0.791027 0.115383
C57   C     C_R   0.841218 0.085648 0.921476 -0.145397
C58   C     C_R   0.874054 0.874008 0.208960 0.115386
C59   C     C_R   0.195971 0.804016 0.897110 0.115345
C60   C     C_R   0.804032 0.195968 0.102927 0.115347
C61   C     C_R   0.304052 0.303984 0.397118 0.115347
C62   C     C_R   0.695985 0.695982 0.602872 0.115342
C63   C     C_R   0.374014 0.625947 0.291036 0.115383
C64   C     C_R   0.625985 0.374064 0.708967 0.115386
C65   C     C_R   0.696003 0.695948 0.397114 0.115339
C66   C     C_R   0.304058 0.303997 0.602910 0.115345
C67   C     C_R   0.625931 0.374061 0.291018 0.115383
C68   C     C_R   0.158784 0.914351 0.078520 -0.145388
C69   C     C_R   0.374040 0.625949 0.708970 0.115383
C70   C     C_R   0.902738 0.822565 0.763285 -0.256952
C71   C     C_R   0.177468 0.097243 0.236685 -0.256926
C72   C     C_R   0.821802 0.258442 0.887886 -0.259652
C73   C     C_R   0.178206 0.741552 0.112097 -0.259633
C74   C     C_R   0.097279 0.177366 0.763244 -0.256986
C75   C     C_R   0.822604 0.902700 0.236735 -0.256991
C76   C     C_R   0.258436 0.821737 0.887942 -0.259644
C77   C     C_R   0.741578 0.178236 0.112116 -0.259674
C78   C     C_R   0.241555 0.321662 0.388038 -0.259611
C79   C     C_R   0.438470 0.635298 0.612644 -0.131947
C80   C     C_R   0.678266 0.758452 0.612029 -0.259639
C81   C     C_R   0.402705 0.677405 0.263271 -0.256974
C82   C     C_R   0.597288 0.322612 0.736739 -0.256976
C83   C     C_R   0.758431 0.678179 0.387853 -0.259660
C84   C     C_R   0.321832 0.241566 0.612175 -0.259647
C85   C     C_R   0.677412 0.402739 0.263283 -0.256962
C86   C     C_R   0.322542 0.597280 0.736686 -0.256954
C87   C     C_R   0.561521 0.364708 0.387352 -0.131944
C88   C     C_R   0.658784 0.585644 0.578520 -0.145384
C89   C     C_R   0.085639 0.841216 0.921475 -0.145398
C90   C     C_R   0.341218 0.414347 0.421473 -0.145376
C91   C     C_R   0.561539 0.364702 0.612644 -0.131954
C92   C     C_R   0.438461 0.635300 0.387357 -0.131952
C93   C     C_R   0.341220 0.414350 0.578528 -0.145400
C94   C     C_R   0.658784 0.585633 0.421482 -0.145421
C95   C     C_R   0.414368 0.341214 0.421479 -0.145414
C96   C     C_R   0.585642 0.658785 0.578524 -0.145399
C97   C     C_R   0.635289 0.438476 0.387353 -0.131948
C98   C     C_R   0.364701 0.561529 0.612640 -0.131939
C99   C     C_R   0.585650 0.658782 0.421476 -0.145392
C100  C     C_R   0.135303 0.061527 0.112638 -0.131928
C101  C     C_R   0.414370 0.341217 0.578528 -0.145402
C102  C     C_R   0.364691 0.561531 0.387365 -0.131936
C103  C     C_R   0.635308 0.438472 0.612635 -0.131942
C104  C     C_R   0.873451 0.792657 0.715405 0.141196
C105  C     C_R   0.207398 0.126524 0.284553 0.141182
C106  C     C_R   0.780627 0.300217 0.860876 0.143874
C107  C     C_R   0.219382 0.699779 0.139107 0.143877
C108  C     C_R   0.126580 0.207258 0.715363 0.141187
C109  C     C_R   0.792720 0.873407 0.284625 0.141185
C110  C     C_R   0.300201 0.780550 0.860930 0.143882
C111  C     C_R   0.864702 0.938470 0.887356 -0.131949
C112  C     C_R   0.699805 0.219422 0.139117 0.143877
C113  C     C_R   0.199799 0.280470 0.361011 0.143881
C114  C     C_R   0.719452 0.800217 0.639048 0.143893
C115  C     C_R   0.373420 0.707293 0.215377 0.141181
C116  C     C_R   0.626578 0.292721 0.784629 0.141179
C117  C     C_R   0.800205 0.719350 0.360844 0.143874
C118  C     C_R   0.280660 0.199788 0.639180 0.143875
C119  C     C_R   0.707323 0.373443 0.215413 0.141177
C120  C     C_R   0.292638 0.626563 0.784565 0.141183
C121  C     C_R   0.103321 0.264054 0.306573 -0.205230
C122  C     C_R   0.085638 0.841214 0.078516 -0.145387
C123  C     C_R   0.735850 0.896664 0.693532 -0.205250
C124  C     C_R   0.360120 0.800627 0.155407 -0.207920
C125  C     C_R   0.639884 0.199384 0.844590 -0.207926
C126  C     C_R   0.896614 0.735713 0.306304 -0.205281
C127  C     C_R   0.264293 0.103372 0.693709 -0.205273
C128  C     C_R   0.800703 0.360096 0.155530 -0.207941
C129  C     C_R   0.199261 0.639904 0.844451 -0.207930
C130  C     C_R   0.860109 0.699278 0.655516 -0.207922
C131  C     C_R   0.300835 0.139894 0.344358 -0.207908
C132  C     C_R   0.764262 0.396639 0.806348 -0.205262
C133  C     C_R   0.914365 0.158784 0.921478 -0.145411
C134  C     C_R   0.235749 0.603357 0.193637 -0.205246
C135  C     C_R   0.139888 0.300584 0.655390 -0.207945
C136  C     C_R   0.699409 0.860108 0.344616 -0.207961
C137  C     C_R   0.396655 0.764141 0.806466 -0.205261
C138  C     C_R   0.603350 0.235828 0.193578 -0.205279
C139  C     C_R   0.792671 0.873442 0.715396 0.141178
C140  C     C_R   0.126569 0.207264 0.284651 0.141196
C141  C     C_R   0.699804 0.219498 0.860973 0.143876
C142  C     C_R   0.300203 0.780505 0.139016 0.143882
C143  C     C_R   0.207424 0.126549 0.715482 0.141177
C144  C     C_R   0.864701 0.938462 0.112644 -0.131956
C145  C     C_R   0.873433 0.792574 0.284520 0.141177
C146  C     C_R   0.219416 0.699792 0.860897 0.143880
C147  C     C_R   0.780565 0.300196 0.139110 0.143874
C148  C     C_R   0.280652 0.199765 0.360848 0.143893
C149  C     C_R   0.800213 0.719430 0.639078 0.143870
C150  C     C_R   0.292599 0.626554 0.215447 0.141186
C151  C     C_R   0.707408 0.373449 0.784546 0.141188
C152  C     C_R   0.719513 0.800184 0.360983 0.143864
C153  C     C_R   0.199819 0.280483 0.639034 0.143875
C154  C     C_R   0.626553 0.292661 0.215416 0.141189
C155  C     C_R   0.135300 0.061521 0.887363 -0.131930
C156  C     C_R   0.373434 0.707323 0.784601 0.141183
C157  C     C_R   0.816300 0.816288 0.693706 0.026796
C158  C     C_R   0.183752 0.183651 0.306295 0.026778
C159  C     C_R   0.720477 0.279602 0.844547 0.027525
C160  C     C_R   0.279530 0.720400 0.155443 0.027511
C161  C     C_R   0.183770 0.183664 0.693734 0.026823
C162  C     C_R   0.816319 0.816228 0.306268 0.026840
C163  C     C_R   0.279550 0.720428 0.844537 0.027521
C164  C     C_R   0.720439 0.279553 0.155482 0.027547
C165  C     C_R   0.220484 0.220373 0.344554 0.027481
C166  C     C_R   0.938469 0.864699 0.887358 -0.131937
C167  C     C_R   0.779575 0.779563 0.655442 0.027506
C168  C     C_R   0.316250 0.683680 0.193713 0.026808
C169  C     C_R   0.683755 0.316326 0.806283 0.026815
C170  C     C_R   0.779600 0.779505 0.344533 0.027569
C171  C     C_R   0.220500 0.220391 0.655481 0.027542
C172  C     C_R   0.683705 0.316286 0.193727 0.026824
C173  C     C_R   0.316274 0.683703 0.806276 0.026819
C174  C     C_R   0.896664 0.735826 0.693564 -0.205243
C175  C     C_R   0.264269 0.103333 0.306333 -0.205233
C176  C     C_R   0.800805 0.360088 0.844400 -0.207942
H1    H     H_    0.937007 0.203541 0.073683 0.085474
H2    H     H_    0.030126 0.172349 0.125276 0.096418
H3    H     H_    0.203542 0.937001 0.926334 0.085453
H4    H     H_    0.796461 0.062991 0.073682 0.085463
H5    H     H_    0.030126 0.172345 0.874721 0.096420
H6    H     H_    0.969883 0.827637 0.125240 0.096398
H7    H     H_    0.796456 0.063005 0.926323 0.085465
H8    H     H_    0.203545 0.936994 0.073670 0.085455
H9    H     H_    0.469879 0.672354 0.625265 0.096416
H10   H     H_    0.530110 0.327655 0.374733 0.096409
H11   H     H_    0.703543 0.562998 0.573661 0.085457
H12   H     H_    0.062991 0.796458 0.926331 0.085463
H13   H     H_    0.296456 0.436989 0.426314 0.085449
H14   H     H_    0.530135 0.327645 0.625269 0.096409
H15   H     H_    0.469867 0.672356 0.374734 0.096419
H16   H     H_    0.296456 0.436990 0.573684 0.085455
H17   H     H_    0.703538 0.562982 0.426353 0.085467
H18   H     H_    0.437021 0.296460 0.426350 0.085477
H19   H     H_    0.562993 0.703543 0.573673 0.085462
H20   H     H_    0.672340 0.469888 0.374735 0.096413
H21   H     H_    0.327648 0.530117 0.625253 0.096410
H22   H     H_    0.563009 0.703547 0.426319 0.085460
H23   H     H_    0.172361 0.030118 0.125247 0.096403
H24   H     H_    0.437024 0.296462 0.573664 0.085473
H25   H     H_    0.327634 0.530120 0.374755 0.096406
H26   H     H_    0.672363 0.469885 0.625244 0.096402
H27   H     H_    0.941018 0.717658 0.709174 0.129456
H28   H     H_    0.282453 0.059000 0.290685 0.129449
H29   H     H_    0.846535 0.376875 0.857560 0.127792
H30   H     H_    0.153477 0.623113 0.142417 0.127783
H31   H     H_    0.058947 0.282172 0.708987 0.129483
H32   H     H_    0.717804 0.941031 0.290989 0.129493
H33   H     H_    0.376920 0.846392 0.857730 0.127788
H34   H     H_    0.827648 0.969881 0.874737 0.096415
H35   H     H_    0.623110 0.153561 0.142353 0.127801
H36   H     H_    0.123018 0.346267 0.357917 0.127769
H37   H     H_    0.653603 0.876939 0.642252 0.127777
H38   H     H_    0.441032 0.782240 0.209054 0.129478
H39   H     H_    0.558962 0.217784 0.790961 0.129478
H40   H     H_    0.876840 0.653432 0.357493 0.127802
H41   H     H_    0.346585 0.123152 0.642537 0.127796
H42   H     H_    0.782307 0.441012 0.209167 0.129475
H43   H     H_    0.217632 0.559010 0.790777 0.129472
H44   H     H_    0.944406 0.801811 0.782081 0.118667
H45   H     H_    0.062987 0.796458 0.073649 0.085458
H46   H     H_    0.198226 0.055586 0.217868 0.118656
H47   H     H_    0.869031 0.273696 0.896690 0.115089
H48   H     H_    0.130976 0.726295 0.103292 0.115082
H49   H     H_    0.055583 0.198098 0.782002 0.118690
H50   H     H_    0.801865 0.944388 0.217969 0.118688
H51   H     H_    0.273720 0.868947 0.896806 0.115086
H52   H     H_    0.726309 0.131022 0.103275 0.115099
H53   H     H_    0.226236 0.368849 0.396985 0.115078
H54   H     H_    0.631059 0.773740 0.603154 0.115083
H55   H     H_    0.444385 0.698150 0.282051 0.118686
H56   H     H_    0.937018 0.203540 0.926341 0.085475
H57   H     H_    0.555601 0.301873 0.717967 0.118681
H58   H     H_    0.773672 0.630946 0.396635 0.115094
H59   H     H_    0.369067 0.226323 0.603396 0.115094
H60   H     H_    0.698165 0.444407 0.282077 0.118670
H61   H     H_    0.301773 0.555630 0.717872 0.118666
H62   H     H_    0.801807 0.944391 0.782082 0.118667
H63   H     H_    0.055598 0.198139 0.217976 0.118677
H64   H     H_    0.726262 0.131106 0.896884 0.115094
H65   H     H_    0.273746 0.868893 0.103096 0.115087
H66   H     H_    0.198274 0.055627 0.782175 0.118649
H67   H     H_    0.827644 0.969866 0.125268 0.096414
H68   H     H_    0.944352 0.801719 0.217825 0.118651
H69   H     H_    0.131016 0.726288 0.896747 0.115088
H70   H     H_    0.868964 0.273704 0.103258 0.115101
H71   H     H_    0.369080 0.226306 0.396593 0.115085
H72   H     H_    0.773712 0.631026 0.603234 0.115090
H73   H     H_    0.301736 0.555631 0.282148 0.118656
H74   H     H_    0.698273 0.444370 0.717844 0.118649
H75   H     H_    0.631140 0.773731 0.396929 0.115115
H76   H     H_    0.226267 0.368867 0.603099 0.115099
H77   H     H_    0.555591 0.301818 0.282079 0.118665
H78   H     H_    0.172353 0.030107 0.874756 0.096402
H79   H     H_    0.444400 0.698169 0.717938 0.118675
H80   H     H_    0.058937 0.282203 0.291016 0.129457
H81   H     H_    0.717685 0.941023 0.709131 0.129465
H82   H     H_    0.376955 0.846316 0.142166 0.127788
H83   H     H_    0.623049 0.153696 0.857831 0.127795
H84   H     H_    0.940935 0.717525 0.290650 0.129468
H85   H     H_    0.282482 0.059048 0.709364 0.129465
H86   H     H_    0.846412 0.376905 0.142335 0.127802
H87   H     H_    0.153545 0.623099 0.857637 0.127793
H88   H     H_    0.876916 0.653562 0.642327 0.127790
H89   H     H_    0.969875 0.827640 0.874743 0.096407
H90   H     H_    0.346582 0.123113 0.357489 0.127772
H91   H     H_    0.782448 0.440970 0.790705 0.129457
H92   H     H_    0.217564 0.559024 0.209278 0.129457
H93   H     H_    0.123044 0.346260 0.642128 0.127803
H94   H     H_    0.653737 0.876949 0.357879 0.127823
H95   H     H_    0.441015 0.782299 0.790877 0.129473
H96   H     H_    0.558997 0.217665 0.209179 0.129471
N1    N     N_R   0.940200 0.105310 0.059970 -0.036744
N2    N     N_R   0.059800 0.105310 0.059970 -0.042435
N3    N     N_R   0.105310 0.940200 0.940030 -0.036745
N4    N     N_R   0.894690 0.059800 0.059970 -0.036742
N5    N     N_R   0.059800 0.105310 0.940030 -0.042434
N6    N     N_R   0.940200 0.894690 0.059970 -0.042438
N7    N     N_R   0.894690 0.059800 0.940030 -0.036747
N8    N     N_R   0.105310 0.940200 0.059970 -0.036747
N9    N     N_R   0.440200 0.605310 0.559970 -0.042436
N10   N     N_R   0.559800 0.394690 0.440030 -0.042437
N11   N     N_R   0.605310 0.559800 0.559970 -0.036746
N12   N     N_R   0.059800 0.894690 0.940030 -0.036745
N13   N     N_R   0.394690 0.440200 0.440030 -0.036747
N14   N     N_R   0.559800 0.394690 0.559970 -0.042434
N15   N     N_R   0.440200 0.605310 0.440030 -0.042433
N16   N     N_R   0.394690 0.440200 0.559970 -0.036744
N17   N     N_R   0.605310 0.559800 0.440030 -0.036744
N18   N     N_R   0.440200 0.394690 0.440030 -0.036747
N19   N     N_R   0.559800 0.605310 0.559970 -0.036746
N20   N     N_R   0.605310 0.440200 0.440030 -0.042437
N21   N     N_R   0.394690 0.559800 0.559970 -0.042436
N22   N     N_R   0.559800 0.605310 0.440030 -0.036743
N23   N     N_R   0.105310 0.059800 0.059970 -0.042439
N24   N     N_R   0.440200 0.394690 0.559970 -0.036743
N25   N     N_R   0.394690 0.559800 0.440030 -0.042437
N26   N     N_R   0.605310 0.440200 0.559970 -0.042437
N27   N     N_R   0.894690 0.940200 0.940030 -0.042436
N28   N     N_R   0.059800 0.894690 0.059970 -0.036747
N29   N     N_R   0.940200 0.105310 0.940030 -0.036745
N30   N     N_R   0.894690 0.940200 0.059970 -0.042432
N31   N     N_R   0.105310 0.059800 0.940030 -0.042439
N32   N     N_R   0.940200 0.894690 0.940030 -0.042438
Ni1   Ni    Ni4+2 1.000000 0.104370 0.000000 0.210762
Ni2   Ni    Ni4+2 0.000000 0.895630 0.000000 0.210752
Ni3   Ni    Ni4+2 0.104370 0.000000 0.000000 0.210748
Ni4   Ni    Ni4+2 0.895630 0.000000 0.000000 0.210758
Ni5   Ni    Ni4+2 0.500000 0.604370 0.500000 0.210759
Ni6   Ni    Ni4+2 0.500000 0.395630 0.500000 0.210757
Ni7   Ni    Ni4+2 0.604370 0.500000 0.500000 0.210750
Ni8   Ni    Ni4+2 0.395630 0.500000 0.500000 0.210753

loop_
_geom_bond_atom_site_label_1
_geom_bond_atom_site_label_2
_ccdc_geom_bond_type
C5    C136  A    
C26   C79   A    
C23   C58   S    
C6    C110  A    
C104  C157  A    
C102  N25   A    
C101  H24   S    
C138  H96   S    
C130  C174  A    
C40   C145  A    
C9    C114  A    
C121  C140  A    
C49   C153  A    
C74   H49   S    
C10   C124  A    
C147  C164  A    
C8    C121  A    
C12   C126  A    
N28   Ni2   S    
N30   Ni4   S    
N1    N4    A    
C16   H43   S    
C95   N18   A    
C47   H74   S    
C36   C53   A    
C117  C170  A    
C68   H8    S    
C38   C55   A    
C48   C65   A    
N15   N25   A    
C39   H66   S    
C138  C154  A    
C23   C46   A    
C148  C165  A    
C100  N23   A    
C42   C147  A    
C136  C152  A    
C87   H10   S    
C112  C164  A    
C156  C173  A    
C67   C85   A    
C40   C58   A    
C84   H59   S    
C47   C64   A    
C21   C55   S    
C104  C174  A    
C9    H37   S    
C77   C112  A    
N2    N23   A    
C2    N2    A    
C20   C111  A    
C152  C170  A    
C166  N32   A    
C105  C158  A    
N29   Ni1   S    
C19   C100  A    
C150  C168  A    
C127  C143  A    
N15   Ni5   S    
C15   H42   S    
C16   C129  A    
C40   H68   S    
C4    C135  A    
C13   C18   A    
N10   N20   A    
C72   C106  A    
N8    N28   A    
C89   H12   S    
C78   C113  A    
C79   N9    A    
C12   H40   S    
N1    Ni1   S    
C53   C71   A    
C43   C61   A    
C93   H16   S    
C27   C97   A    
C2    C19   A    
C18   C89   A    
N17   N22   A    
C80   H54   S    
C93   N16   A    
C128  C147  A    
C68   N8    A    
C35   H5    S    
C28   C96   A    
C44   C62   A    
C83   C117  A    
N4    Ni4   S    
C50   H77   S    
C118  C171  A    
C9    C123  A    
C70   C104  A    
N16   N24   A    
C34   H62   S    
C13   N3    A    
C12   C117  A    
C139  C157  A    
C77   H52   S    
C81   H55   S    
C82   H57   S    
C155  N31   A    
C26   C69   S    
C51   C69   A    
C143  C161  A    
C158  C165  A    
C103  N26   A    
C99   N22   A    
C33   C94   A    
C137  H95   S    
C114  C167  A    
C22   C54   S    
C123  H81   S    
C78   H53   S    
C62   C80   A    
C102  H25   S    
C175  H28   S    
C16   C120  A    
C106  C159  A    
C123  C139  A    
C135  H93   S    
C7    C112  A    
C85   C119  A    
N9    N21   A    
C49   H76   S    
N12   Ni2   S    
C141  C159  A    
C96   H19   S    
C41   C146  A    
C125  C141  A    
C24   H4    S    
C50   C67   A    
C92   H15   S    
C36   H63   S    
N32   Ni2   S    
C32   C93   A    
C153  C171  A    
C130  C149  A    
C92   N15   A    
C126  C145  A    
C29   C61   S    
C49   C66   A    
C22   C133  A    
C31   C63   S    
C33   C99   A    
N25   Ni8   S    
C27   C87   A    
C95   H18   S    
C21   C68   A    
C164  C172  A    
C98   N21   A    
C163  C173  A    
C24   N4    A    
C38   H65   S    
C42   H70   S    
C89   N12   A    
C98   H21   S    
C133  N29   A    
C80   C114  A    
C7    H35   S    
C108  C161  A    
C1    C17   A    
C151  C169  A    
C3    C134  A    
C46   H6    S    
C6    C137  A    
C87   N10   A    
C132  H91   S    
N22   Ni5   S    
C99   H22   S    
C15   C119  A    
C27   C67   S    
C17   C60   S    
C55   C73   A    
N3    Ni3   S    
C18   C59   S    
C84   C118  A    
C105  C175  A    
C106  C176  A    
C32   C101  A    
C86   C120  A    
C2    H2    S    
C115  C168  A    
C8    H36   S    
C59   C76   A    
C130  H88   S    
C11   H39   S    
C28   C62   S    
N17   Ni7   S    
N23   Ni3   S    
C30   C64   S    
N19   Ni5   S    
C149  C167  A    
C51   H79   S    
C157  C167  A    
N5    Ni1   S    
C107  C160  A    
C6    H33   S    
C160  C168  A    
N14   Ni6   S    
C37   C141  A    
C11   C125  A    
N9    Ni5   S    
C109  C162  A    
C113  C165  A    
C155  H78   S    
N11   Ni7   S    
C73   C107  A    
C94   H17   S    
C45   C150  A    
C132  C176  A    
C21   C122  A    
C43   C148  A    
N21   Ni8   S    
C88   H11   S    
C30   C103  A    
C25   C56   S    
C128  H86   S    
C79   H9    S    
N8    Ni3   S    
C124  H82   S    
C71   H46   S    
C76   H51   S    
C94   N17   A    
C29   C90   A    
C134  H92   S    
C56   C74   A    
C31   C102  A    
C10   H38   S    
C37   H64   S    
N11   N19   A    
C72   H47   S    
C14   C127  A    
C176  H29   S    
N26   Ni7   S    
C162  C170  A    
C133  H56   S    
C11   C116  A    
C129  C146  A    
C8    C113  A    
C25   C35   A    
C47   C151  A    
N18   Ni6   S    
C111  N27   A    
C15   C128  A    
C48   C152  A    
C23   C144  A    
C4    H31   S    
C32   C66   S    
C144  N30   A    
C159  C169  A    
C41   H69   S    
C7    C138  A    
C110  C163  A    
C20   C166  A    
C34   C52   A    
C44   C149  A    
C48   H75   S    
C103  H26   S    
C82   C116  A    
N20   Ni7   S    
C5    H32   S    
N7    Ni4   S    
C5    C109  A    
C131  C175  A    
C46   N6    A    
C166  H89   S    
C122  N28   A    
C111  H34   S    
C44   H72   S    
C74   C108  A    
C76   C110  A    
C132  C151  A    
C91   N14   A    
C4    C108  A    
C129  H87   S    
N2    Ni1   S    
N5    N31   A    
N7    N29   A    
C25   C155  A    
C85   H60   S    
C96   N19   A    
C22   C57   A    
C33   C65   S    
C131  H90   S    
C63   C81   A    
C97   H20   S    
C43   H71   S    
N27   Ni4   S    
C65   C83   A    
C145  C162  A    
C134  C150  A    
C144  H67   S    
C34   C139  A    
C86   H61   S    
C1    H1    S    
C39   C56   A    
C14   C118  A    
C122  H45   S    
C28   C88   A    
C14   H41   S    
C1    N1    A    
C119  C172  A    
N6    Ni2   S    
C45   H73   S    
C19   C53   S    
C38   C142  A    
C124  C142  A    
N10   Ni6   S    
C58   C75   A    
C91   H14   S    
C51   C156  A    
C75   C109  A    
C17   C24   A    
C140  C158  A    
C41   C59   A    
C42   C60   A    
C29   C95   A    
N31   Ni3   S    
C3    C107  A    
C13   H3    S    
N13   N18   A    
C45   C63   A    
C70   H44   S    
C127  H85   S    
C137  C156  A    
C161  C171  A    
C83   H58   S    
C61   C78   A    
C81   C115  A    
C90   N13   A    
C154  C172  A    
C131  C148  A    
N3    N12   A    
C36   C140  A    
C64   C82   A    
C26   C98   A    
C37   C54   A    
C57   N7    A    
N6    N30   A    
C39   C143  A    
C88   N11   A    
C57   H7    S    
C121  H80   S    
N27   N32   A    
C35   N5    A    
C73   H48   S    
C3    H30   S    
C75   H50   S    
C142  C160  A    
C30   C91   A    
C101  N24   A    
N13   Ni8   S    
C146  C163  A    
C125  H83   S    
N24   Ni6   S    
C135  C153  A    
C126  H84   S    
C97   N20   A    
C60   C77   A    
C71   C105  A    
C20   C52   S    
C50   C154  A    
C174  H27   S    
C116  C169  A    
C52   C70   A    
C10   C115  A    
C66   C84   A    
C100  H23   S    
C120  C173  A    
C54   C72   A    
C31   C92   A    
N14   N26   A    
C136  H94   S    
N16   Ni8   S    
C69   C86   A    
C90   H13   S    
