data_mof_unit_48460.cif
_audit_creation_date              2012-12-10T20:37:31-0500
_audit_creation_method            fapswitch 2.2
_symmetry_space_group_name_H-M    P1
_symmetry_Int_Tables_number       1
_space_group_crystal_system       triclinic
_cell_length_a                    15.690042
_cell_length_b                    10.674549
_cell_length_c                    9.843134
_cell_angle_alpha                 89.789434
_cell_angle_beta                  90.250985
_cell_angle_gamma                 90.256287
_cell_volume                      1648.52533306

loop_
_atom_site_label
_atom_site_type_symbol
_atom_type_description
_atom_site_fract_x
_atom_site_fract_y
_atom_site_fract_z
_atom_type_partial_charge
C1    C     C_R   0.498347 0.259959 0.499997 0.874382
C2    C     C_3   0.083035 0.508816 0.497918 0.102534
C3    C     C_3   0.972916 0.511633 0.629924 -0.252709
C4    C     C_3   0.917153 0.511207 0.500874 0.141353
C5    C     C_3   0.028596 0.611502 0.560175 0.544381
C6    C     C_3   0.971586 0.613697 0.432200 -0.309384
C7    C     C_1   0.173870 0.506978 0.498649 -0.041364
C8    C     C_1   0.826349 0.508785 0.501476 -0.056033
C9    C     C_R   0.458635 0.062755 0.609942 0.107989
C10   C     C_R   0.488540 0.128281 0.496949 -0.084129
C11   C     C_R   0.504123 0.064963 0.374922 -0.226633
C12   C     C_R   0.337907 0.500679 0.499733 0.895109
C13   C     C_R   0.504797 0.936168 0.374638 -0.236263
C14   C     C_R   0.489168 0.871394 0.495959 -0.108366
C15   C     C_R   0.459371 0.934974 0.609140 0.053079
C16   C     C_3   0.483647 0.925531 0.756113 -0.186721
C17   C     C_3   0.482204 0.068553 0.757505 -0.540890
C18   C     C_R   0.452916 0.413649 0.071270 0.198183
C19   C     C_R   0.552957 0.576721 0.072485 -0.248435
C20   C     C_R   0.554947 0.574803 0.927427 0.516762
C21   C     C_R   0.452672 0.413953 0.928738 0.123348
C22   C     C_3   0.358386 0.397127 0.922473 -0.490533
C23   C     C_R   0.498903 0.739976 0.499485 0.871465
C24   C     C_3   0.358647 0.396666 0.076759 -0.478070
C25   C     C_R   0.662140 0.500895 0.500319 0.909989
C26   C     C_3   0.970184 0.406237 0.437170 -0.166245
C27   C     C_3   0.026498 0.508228 0.370794 0.002150
C28   C     C_1   0.249121 0.504082 0.499163 -0.200566
C29   C     C_1   0.751035 0.505127 0.501082 -0.214113
C30   C     C_3   0.027896 0.407277 0.565572 -0.251341
H1    H     H_    0.548741 0.886675 0.770747 0.195208
H2    H     H_    0.430238 0.109395 0.819520 0.202611
H3    H     H_    0.546139 0.111088 0.774894 0.200402
H4    H     H_    0.593050 0.641487 0.128122 0.157777
H5    H     H_    0.325163 0.479312 0.877830 0.227092
H6    H     H_    0.339836 0.305363 0.878057 0.190997
H7    H     H_    0.325501 0.478579 0.121178 0.226687
H8    H     H_    0.340404 0.304561 0.121221 0.192806
H9    H     H_    0.943713 0.321938 0.386114 0.137847
H10   H     H_    0.945139 0.697828 0.381000 0.130493
H11   H     H_    0.948948 0.515028 0.735814 0.141259
H12   H     H_    0.052897 0.323273 0.619036 0.156946
H13   H     H_    0.522011 0.113887 0.282611 0.169192
H14   H     H_    0.523661 0.888469 0.282680 0.161006
N1    N     N_R   0.499430 0.499140 0.142800 -0.122528
N2    N     N_R   0.499430 0.499180 0.857150 -0.137604
O1    O     O_R   0.500010 0.316790 0.614690 -0.619154
O2    O     O_R   0.500000 0.316760 0.385350 -0.623979
O3    O     O_R   0.376780 0.500010 0.614650 -0.619963
O4    O     O_R   0.376770 0.499970 0.385310 -0.615915
O5    O     O_R   0.500000 0.683240 0.614650 -0.580420
O6    O     O_R   0.499990 0.683210 0.385310 -0.633227
O7    O     O_R   0.623230 0.500030 0.614690 -0.599610
O8    O     O_R   0.623220 0.499990 0.385350 -0.613597
Zn1   Zn    Zn3+2 0.500010 0.500020 0.653130 0.976456
Zn2   Zn    Zn3+2 0.499990 0.499980 0.346870 0.937450
C31   C     C_R   0.058968 0.500732 0.227253 0.139802
C32   C     C_R   0.041346 0.595907 0.132311 -0.162575
C33   C     C_R   0.071058 0.586583 0.998956 -0.155761
C34   C     C_R   0.118444 0.482520 0.959357 -0.118275
C35   C     C_R   0.136269 0.387564 0.053202 -0.145851
C36   C     C_R   0.106843 0.396601 0.186735 -0.158574
H15   H     H_    0.004655 0.677183 0.160644 0.125819
H16   H     H_    0.057262 0.660009 0.926255 0.147185
H17   H     H_    0.141284 0.475476 0.856035 0.140022
H18   H     H_    0.172865 0.306862 0.022457 0.137778
H19   H     H_    0.121062 0.322302 0.258446 0.127340
O9    O     O_3   0.606950 0.656381 0.855761 -0.632428
C37   C     C_3   0.694106 0.636770 0.887995 0.071510
H20   H     H_    0.727313 0.609157 0.793384 0.179164
H21   H     H_    0.706267 0.560365 0.963442 0.113609
C38   C     C_3   0.733834 0.759029 0.938921 -0.356108
H22   H     H_    0.726042 0.832971 0.860050 0.223656
H23   H     H_    0.700527 0.789808 0.032340 0.211968
C39   C     C_3   0.828590 0.742977 0.970386 -0.981212
H24   H     H_    0.837694 0.672481 0.052438 0.270489
H25   H     H_    0.855996 0.833652 0.004619 0.261892
H26   H     H_    0.863268 0.712226 0.878280 0.252835
O10   O     O_3   0.066038 0.715620 0.625657 -0.665074
C40   C     C_3   0.003470 0.805086 0.659707 0.054269
H27   H     H_    0.013206 0.831183 0.767818 0.156702
H28   H     H_    0.936409 0.770435 0.650819 0.127056
C41   C     C_3   0.015348 0.922288 0.571764 -0.325196
H29   H     H_    0.081068 0.959476 0.586008 0.227914
H30   H     H_    0.006909 0.897629 0.462981 0.211851
C42   C     C_3   0.951533 0.023953 0.608874 -0.975235
H31   H     H_    0.885301 0.989550 0.593196 0.266812
H32   H     H_    0.961890 0.107447 0.543272 0.262152
H33   H     H_    0.960058 0.052097 0.716639 0.265437
C43   C     C_R   0.417500 0.864164 0.847204 0.199346
C44   C     C_R   0.344595 0.802585 0.795126 -0.090375
C45   C     C_R   0.286840 0.744106 0.882803 -0.168136
C46   C     C_R   0.301342 0.744911 0.022816 -0.136693
C47   C     C_R   0.373634 0.804424 0.075503 -0.132228
C48   C     C_R   0.431402 0.863863 0.988324 -0.167921
H34   H     H_    0.331980 0.798757 0.687084 0.125096
H35   H     H_    0.231057 0.697381 0.841885 0.158723
H36   H     H_    0.256699 0.699043 0.090432 0.148203
H37   H     H_    0.384891 0.804177 0.183994 0.155194
H38   H     H_    0.487445 0.908999 0.030574 0.122657

loop_
_geom_bond_atom_site_label_1
_geom_bond_atom_site_label_2
_ccdc_geom_bond_type
C38   H23   S    
C16   C43   S    
C46   C47   A    
C3    C30   S    
C18   C21   A    
C19   C20   A    
C4    C8    S    
C12   O3    A    
C43   C44   A    
C43   C48   A    
C16   H1    S    
C22   H5    S    
C26   C27   S    
C36   H19   S    
C12   C28   S    
C41   H29   S    
C18   C24   S    
C8    C29   T    
C25   O7    A    
C38   C39   S    
C5    C6    S    
C40   H27   S    
C42   H32   S    
C26   H9    S    
C15   C16   S    
C37   H21   S    
C44   H34   S    
C35   H18   S    
C2    C7    S    
N1    Zn2   S    
C16   C17   S    
N2    Zn1   S    
C24   H8    S    
C11   H13   S    
C2    C27   S    
C5    O10   S    
C9    C10   A    
C35   C36   A    
C33   C34   A    
C21   C22   S    
C37   H20   S    
C17   H3    S    
C40   C41   S    
C45   H35   S    
O7    Zn1   S    
C25   C29   S    
O8    Zn2   S    
C31   C36   A    
C6    H10   S    
C25   O8    A    
C4    C6    S    
C27   C31   S    
C44   C45   A    
C42   H31   S    
O9    C37   S    
C32   C33   A    
O3    Zn1   S    
C19   H4    S    
O4    Zn2   S    
C7    C28   T    
C34   C35   A    
C14   C23   S    
C37   C38   S    
C23   O6    A    
C39   H24   S    
C23   O5    A    
C6    C27   S    
C24   H7    S    
C33   H16   S    
C39   H25   S    
C40   H28   S    
C41   H30   S    
C34   H17   S    
C26   C30   S    
C22   C24   S    
C2    C5    S    
C3    C4    S    
C18   N1    A    
O1    Zn1   S    
C21   N2    A    
C9    C17   S    
C32   H15   S    
O2    Zn2   S    
C3    H11   S    
C48   H38   S    
C20   O9    S    
C1    O1    A    
C1    C10   S    
C38   H22   S    
C3    C5    S    
C42   H33   S    
C4    C26   S    
C19   N1    A    
C1    O2    A    
C22   H6    S    
C2    C30   S    
C9    C15   A    
C11   C13   A    
C31   C32   A    
C47   H37   S    
C45   C46   A    
O5    Zn1   S    
C47   C48   A    
C39   H26   S    
C10   C11   A    
O10   C40   S    
C41   C42   S    
C17   H2    S    
C14   C15   A    
C30   H12   S    
C13   C14   A    
C46   H36   S    
C12   O4    A    
C13   H14   S    
C20   N2    A    
O6    Zn2   S    
