data_mof_unit_42975.cif
_audit_creation_date              2012-10-26T19:52:44-0400
_audit_creation_method            fapswitch 2.2
_symmetry_space_group_name_H-M    P1
_symmetry_Int_Tables_number       1
_space_group_crystal_system       triclinic
_cell_length_a                    14.99213
_cell_length_b                    10.866383
_cell_length_c                    9.629879
_cell_angle_alpha                 89.43561
_cell_angle_beta                  90.531934
_cell_angle_gamma                 92.025489
_cell_volume                      1567.68684434

loop_
_atom_site_label
_atom_site_type_symbol
_atom_type_description
_atom_site_fract_x
_atom_site_fract_y
_atom_site_fract_z
_atom_type_partial_charge
C1    C     C_R   0.498423 0.262348 0.500714 0.521716
C2    C     C_R   0.183212 0.418969 0.412597 -0.136110
C3    C     C_R   0.232075 0.497361 0.501267 -0.019585
C4    C     C_R   0.328922 0.499255 0.499791 0.528051
C5    C     C_R   0.188702 0.569430 0.597524 -0.128258
C6    C     C_R   0.501478 0.061268 0.625723 0.063213
C7    C     C_R   0.489781 0.128496 0.502500 -0.022643
C8    C     C_R   0.463518 0.063938 0.381710 -0.160802
C9    C     C_R   0.461623 0.935047 0.381443 -0.116663
C10   C     C_R   0.488867 0.869883 0.500110 0.017574
C11   C     C_R   0.503013 0.934628 0.622645 -0.023509
C12   C     C_R   0.908439 0.565424 0.603117 -0.033138
C13   C     C_3   0.576623 0.927562 0.726604 -0.202884
C14   C     C_3   0.574249 0.067097 0.733878 0.181998
C15   C     C_R   0.578969 0.513442 0.072545 0.159116
C16   C     C_R   0.497644 0.737217 0.499509 0.562322
C17   C     C_R   0.424651 0.469250 0.072170 0.386562
C18   C     C_R   0.424164 0.475870 0.924384 0.072933
C19   C     C_R   0.577505 0.510785 0.926183 0.115285
C20   C     C_3   0.647343 0.605778 0.904021 -0.188994
C21   C     C_3   0.651714 0.616905 0.061507 0.421828
C22   C     C_R   0.670797 0.496623 0.501526 0.566149
C23   C     C_R   0.947979 0.327510 0.336482 -0.093572
C24   C     C_R   0.815689 0.568388 0.597652 -0.103007
C25   C     C_R   0.767098 0.489608 0.508502 0.037901
C26   C     C_R   0.810423 0.404338 0.427806 -0.073169
C27   C     C_R   0.903457 0.404834 0.426152 0.028437
C28   C     C_R   0.952736 0.485923 0.514123 0.028864
C29   C     C_3   0.332976 0.302175 0.123768 -0.005405
C30   C     C_3   0.245223 0.275559 0.045342 -0.284679
C31   C     C_3   0.217824 0.139042 0.052505 -0.462363
C32   C     C_3   0.102369 0.650359 0.920272 0.002626
C33   C     C_3   0.163526 0.723674 0.019550 -0.256112
C34   C     C_R   0.040948 0.332291 0.331533 -0.131505
C35   C     C_3   0.169870 0.659817 0.161064 -0.456019
C36   C     C_R   0.090354 0.412994 0.417865 0.007734
C37   C     C_R   0.046238 0.488607 0.511737 0.016217
C38   C     C_R   0.095572 0.566755 0.603051 0.015608
C39   C     C_R   0.050753 0.639702 0.698480 0.254608
C40   C     C_R   0.957458 0.641576 0.694648 -0.089609
Cu1   Cu    Cu3+1 0.500000 0.499980 0.640670 0.995057
Cu2   Cu    Cu3+1 0.500000 0.500020 0.359330 1.090881
H1    H     H_    0.781354 0.634149 0.659796 0.122801
H2    H     H_    0.910876 0.264947 0.268589 0.151637
H3    H     H_    0.074153 0.272705 0.260481 0.110696
H4    H     H_    0.217508 0.360539 0.342336 0.131844
H5    H     H_    0.227960 0.628509 0.666633 0.164687
H6    H     H_    0.923550 0.701794 0.764290 0.167310
H7    H     H_    0.447216 0.112425 0.286618 0.134634
H8    H     H_    0.582891 0.119219 0.109794 0.360033
H9    H     H_    0.328461 0.261167 0.229594 0.146413
H10   H     H_    0.387864 0.254301 0.071348 0.185371
H11   H     H_    0.191445 0.329947 0.090437 0.159552
H12   H     H_    0.441671 0.887047 0.288049 0.172490
H13   H     H_    0.252780 0.303659 0.934783 0.164097
H14   H     H_    0.269962 0.082785 0.005784 0.203207
H15   H     H_    0.154370 0.122842 0.994066 0.161468
H16   H     H_    0.207468 0.109452 0.162107 0.139430
H17   H     H_    0.852287 0.650667 0.279164 0.357467
H18   H     H_    0.505184 0.873429 0.070825 0.388224
H19   H     H_    0.130163 0.557192 0.907482 0.126042
H20   H     H_    0.034653 0.640476 0.966751 0.177618
H21   H     H_    0.231419 0.733559 0.974368 0.187482
H22   H     H_    0.137334 0.817172 0.033383 0.183291
H23   H     H_    0.554065 0.877993 0.821798 0.217152
H24   H     H_    0.103097 0.651810 0.210105 0.160466
H25   H     H_    0.215624 0.714165 0.230197 0.164980
H26   H     H_    0.196429 0.566456 0.149557 0.190288
H27   H     H_    0.639212 0.894355 0.681168 0.113419
H28   H     H_    0.636415 0.116117 0.698359 0.112134
H29   H     H_    0.362401 0.457190 0.868916 0.122025
H30   H     H_    0.705709 0.564275 0.855357 0.158931
H31   H     H_    0.622082 0.686395 0.846298 0.140031
H32   H     H_    0.771572 0.340002 0.364321 0.156275
N1    N     N_R   0.500570 0.500930 0.147930 -0.220970
N2    N     N_R   0.500570 0.500890 0.852020 -0.242413
O1    O     O_R   0.500000 0.319640 0.618810 -0.447458
O2    O     O_2   0.446737 0.053203 0.930911 -0.360483
O3    O     O_3   0.609549 0.088403 0.023638 -0.458020
O4    O     O_3   0.347237 0.431171 0.138056 -0.576451
O5    O     O_2   0.769916 0.443436 0.129214 -0.320559
O6    O     O_2   0.829426 0.630644 0.016000 -0.330210
O7    O     O_3   0.786253 0.646291 0.273002 -0.473682
O8    O     O_2   0.640116 0.788046 0.264307 -0.217336
O9    O     O_2   0.676238 0.859598 0.030079 -0.246327
O10   O     O_3   0.512326 0.783590 0.078156 -0.586025
O11   O     O_3   0.098035 0.713593 0.791568 -0.572049
O12   O     O_R   0.500010 0.319680 0.381230 -0.524377
O13   O     O_R   0.370250 0.499950 0.618800 -0.532739
O14   O     O_R   0.370260 0.499990 0.381220 -0.452844
O15   O     O_R   0.499990 0.680320 0.618770 -0.522005
O16   O     O_R   0.500000 0.680360 0.381190 -0.436933
O17   O     O_R   0.629740 0.500010 0.618780 -0.529897
O18   O     O_R   0.629750 0.500050 0.381200 -0.444332
O19   O     O_2   0.522371 0.252760 0.890623 -0.299522
S1    S     S_3+6 0.534615 0.117245 0.897898 -0.018651
S2    S     S_3+6 0.762436 0.580664 0.119388 0.036066
S3    S     S_3+6 0.621315 0.767300 0.112851 0.059065

loop_
_geom_bond_atom_site_label_1
_geom_bond_atom_site_label_2
_ccdc_geom_bond_type
Cu1   O13   S    
C1    O1    A    
Cu1   Cu2   S    
C15   N1    A    
O19   S1    D    
C39   O11   S    
H8    O3    S    
C7    C8    A    
C13   H23   S    
C2    H4    S    
C15   C19   A    
C5    H5    S    
Cu2   N1    S    
C29   C30   S    
O5    S2    D    
C12   C28   A    
C28   C37   A    
C31   H16   S    
C19   N2    A    
H17   O7    S    
C32   H19   S    
Cu1   O1    S    
C30   C31   S    
C22   O18   A    
O9    S3    D    
C33   C35   S    
Cu1   O17   S    
C19   C20   S    
O2    S1    D    
C8    C9    A    
C22   C25   S    
C23   C27   A    
C31   H14   S    
C9    C10   A    
C34   C36   A    
C1    O12   A    
Cu2   O18   S    
C5    C38   A    
C14   H28   S    
C14   S1    S    
C4    O14   A    
C30   H11   S    
C24   C25   A    
C39   C40   A    
H18   O10   S    
C22   O17   A    
C35   H24   S    
C25   C26   A    
C32   O11   S    
C17   O4    S    
C23   H2    S    
Cu2   O14   S    
C12   C40   A    
C37   C38   A    
C6    C14   S    
C21   S2    S    
C35   H25   S    
C33   H21   S    
C23   C34   A    
C17   C18   A    
C26   C27   A    
C34   H3    S    
Cu1   O15   S    
C16   O16   A    
O6    S2    D    
Cu2   O12   S    
C3    C4    S    
C6    C11   A    
C4    O13   A    
C29   H9    S    
C2    C36   A    
C18   H29   S    
C40   H6    S    
C36   C37   A    
C18   N2    A    
C1    C7    S    
C3    C5    A    
C6    C7    A    
C30   H13   S    
C12   C24   A    
O8    S3    D    
C32   C33   S    
C31   H15   S    
C2    C3    A    
C32   H20   S    
O3    S1    S    
C10   C16   S    
Cu1   N2    S    
C21   S3    S    
C11   C13   S    
C38   C39   A    
C29   O4    S    
C13   H27   S    
C35   H26   S    
C33   H22   S    
C26   H32   S    
C20   H31   S    
Cu2   O16   S    
O10   S3    S    
C10   C11   A    
C15   C21   S    
C20   C21   S    
C16   O15   A    
O7    S2    S    
C27   C28   A    
C17   N1    A    
C24   H1    S    
C20   H30   S    
C9    H12   S    
C13   C14   S    
C8    H7    S    
C29   H10   S    
