data_mof_unit_63152.cif
_audit_creation_date              2012-12-10T17:14:36-0500
_audit_creation_method            fapswitch 2.2
_symmetry_space_group_name_H-M    P1
_symmetry_Int_Tables_number       1
_space_group_crystal_system       triclinic
_cell_length_a                    21.554453
_cell_length_b                    21.608817
_cell_length_c                    47.121016
_cell_angle_alpha                 90.000212
_cell_angle_beta                  90.000253
_cell_angle_gamma                 89.249994
_cell_volume                      21945.4976799

loop_
_atom_site_label
_atom_site_type_symbol
_atom_type_description
_atom_site_fract_x
_atom_site_fract_y
_atom_site_fract_z
_atom_type_partial_charge
C1    C     C_R   0.620247 0.498027 0.999951 1.008117
C2    C     C_R   0.218489 0.558098 0.007592 -0.059083
C3    C     C_R   0.472340 0.952619 0.810151 0.591656
C4    C     C_R   0.552267 0.981417 0.309950 0.591107
C5    C     C_R   0.027659 0.547379 0.310152 0.591660
C6    C     C_R   0.447736 0.018586 0.309950 0.591107
C7    C     C_R   0.972339 0.452621 0.310151 0.591660
C8    C     C_R   0.944994 0.516156 0.780021 -0.154644
C9    C     C_R   0.472949 0.950079 0.780190 -0.155386
C10   C     C_R   0.054994 0.483796 0.780022 -0.154644
C11   C     C_R   0.527049 0.049921 0.780191 -0.155387
C12   C     C_R   0.445014 0.016226 0.280022 -0.154649
C13   C     C_R   0.440767 0.220180 0.000307 -0.093171
C14   C     C_R   0.972946 0.450080 0.280190 -0.155385
C15   C     C_R   0.554989 0.983778 0.280022 -0.154649
C16   C     C_R   0.027051 0.549920 0.280191 -0.155384
C17   C     C_R   0.999994 0.499975 0.764950 -0.093875
C18   C     C_R   0.499999 1.000000 0.765125 -0.093971
C19   C     C_R   0.500001 0.000002 0.264951 -0.093874
C20   C     C_R   0.999999 0.500000 0.265125 -0.093970
C21   C     C_R   0.889577 0.529587 0.764844 0.364103
C22   C     C_R   0.447682 0.899625 0.764961 0.363987
C23   C     C_R   0.110406 0.470347 0.764845 0.364101
C24   C     C_R   0.781511 0.441902 0.007592 -0.059085
C25   C     C_R   0.552315 0.100375 0.764961 0.363988
C26   C     C_R   0.389613 0.029724 0.264844 0.364101
C27   C     C_R   0.947677 0.399628 0.264961 0.363992
C28   C     C_R   0.610390 0.970282 0.264844 0.364101
C29   C     C_R   0.052320 0.600373 0.264962 0.363991
C30   C     C_R   0.389439 0.029435 0.235083 0.366095
C31   C     C_R   0.947486 0.399723 0.235196 0.366160
C32   C     C_R   0.610565 0.970573 0.235083 0.366095
C33   C     C_R   0.052511 0.600278 0.235197 0.366161
C34   C     C_R   0.889402 0.529293 0.735082 0.366096
C35   C     C_R   0.059232 0.279820 0.500306 -0.093176
C36   C     C_R   0.447491 0.899720 0.735196 0.366158
C37   C     C_R   0.110582 0.470638 0.735083 0.366094
C38   C     C_R   0.552506 0.100280 0.735197 0.366157
C39   C     C_R   0.444509 0.014760 0.219815 -0.171785
C40   C     C_R   0.972777 0.450160 0.219971 -0.170877
C41   C     C_R   0.555494 0.985246 0.219815 -0.171785
C42   C     C_R   0.027221 0.549841 0.219971 -0.170877
C43   C     C_R   0.944491 0.514689 0.719815 -0.171787
C44   C     C_R   0.472778 0.950159 0.719971 -0.170879
C45   C     C_R   0.055499 0.485261 0.719815 -0.171786
C46   C     C_R   0.718489 0.058097 0.507593 -0.059081
C47   C     C_R   0.527219 0.049842 0.719971 -0.170879
C48   C     C_R   0.500001 0.000003 0.234867 -0.096470
C49   C     C_R   0.999999 0.500000 0.235035 -0.097022
C50   C     C_R   0.999994 0.499975 0.734867 -0.096468
C51   C     C_R   0.499999 0.000000 0.735035 -0.097023
C52   C     C_R   0.446275 0.013793 0.189851 0.690883
C53   C     C_R   0.972182 0.452705 0.190016 0.691411
C54   C     C_R   0.553728 0.986212 0.189851 0.690884
C55   C     C_R   0.027817 0.547296 0.190016 0.691411
C56   C     C_R   0.946265 0.513751 0.689850 0.690884
C57   C     C_R   0.940768 0.720180 0.500305 -0.093174
C58   C     C_R   0.472183 0.952704 0.690016 0.691410
C59   C     C_R   0.053729 0.486216 0.689851 0.690886
C60   C     C_R   0.527815 0.047297 0.690016 0.691410
C61   C     C_R   0.500001 0.000001 0.145573 -0.039363
C62   C     C_R   1.000000 0.500000 0.145729 -0.034379
C63   C     C_R   1.000000 0.499991 0.645573 -0.039361
C64   C     C_R   0.499999 0.000000 0.645729 -0.034378
C65   C     C_R   0.999995 0.499993 0.854345 0.229212
C66   C     C_R   0.499999 1.000000 0.854434 0.234762
C67   C     C_R   0.500001 1.000000 0.354346 0.229234
C68   C     C_R   0.281511 0.941903 0.507593 -0.059082
C69   C     C_R   0.999999 0.500000 0.354434 0.234759
C70   C     C_R   0.961671 0.459457 0.869115 -0.145927
C71   C     C_R   0.539106 0.959177 0.869152 -0.149198
C72   C     C_R   0.038319 0.540533 0.869113 -0.145919
C73   C     C_R   0.460892 0.040823 0.869152 -0.149197
C74   C     C_R   0.461669 0.959470 0.369114 -0.145924
C75   C     C_R   0.039105 0.459175 0.369152 -0.149195
C76   C     C_R   0.538333 0.040530 0.369115 -0.145925
C77   C     C_R   0.960893 0.540824 0.369152 -0.149196
C78   C     C_R   0.491268 0.944389 0.130825 0.381400
C79   C     C_R   0.552044 0.720459 0.989246 -0.063079
C80   C     C_R   0.952749 0.531569 0.130995 0.371296
C81   C     C_R   0.508734 0.055613 0.130825 0.381399
C82   C     C_R   0.047251 0.468431 0.130995 0.371296
C83   C     C_R   0.991274 0.444379 0.630823 0.381394
C84   C     C_R   0.452749 0.031570 0.630995 0.371296
C85   C     C_R   0.008726 0.555605 0.630826 0.381411
C86   C     C_R   0.547250 0.968430 0.630995 0.371297
C87   C     C_R   0.598374 0.697624 0.970087 0.159509
C88   C     C_R   0.302328 0.611986 0.984356 0.118518
C89   C     C_R   0.401627 0.302376 0.970085 0.159509
C90   C     C_R   0.278772 0.556879 0.996646 -0.083522
C91   C     C_R   0.697672 0.388014 0.984356 0.118517
C92   C     C_R   0.098367 0.197625 0.470082 0.159517
C93   C     C_R   0.802328 0.111987 0.484358 0.118516
C94   C     C_R   0.901633 0.802375 0.470082 0.159515
C95   C     C_R   0.197671 0.888012 0.484358 0.118517
C96   C     C_R   0.655037 0.729203 0.967387 0.323859
C97   C     C_R   0.270217 0.668571 0.988469 0.390882
C98   C     C_R   0.344964 0.270797 0.967386 0.323857
C99   C     C_R   0.729783 0.331429 0.988469 0.390880
C100  C     C_R   0.155030 0.229203 0.467382 0.323850
C101  C     C_R   0.447956 0.279541 0.989245 -0.063078
C102  C     C_R   0.770217 0.168571 0.488471 0.390885
C103  C     C_R   0.844970 0.770797 0.467381 0.323850
C104  C     C_R   0.229783 0.831428 0.488471 0.390884
C105  C     C_R   0.667450 0.779820 0.985089 0.083626
C106  C     C_R   0.217642 0.671176 0.005950 0.081458
C107  C     C_R   0.332550 0.220180 0.985087 0.083625
C108  C     C_R   0.782359 0.328824 0.005950 0.081458
C109  C     C_R   0.167447 0.279819 0.485083 0.083624
C110  C     C_R   0.717642 0.171175 0.505952 0.081459
C111  C     C_R   0.832553 0.720181 0.485083 0.083624
C112  C     C_R   0.501863 0.620260 0.999859 1.000030
C113  C     C_R   0.721228 0.443120 0.996647 -0.083522
C114  C     C_R   0.282358 0.828825 0.505952 0.081460
C115  C     C_R   0.620310 0.803205 0.002886 0.220570
C116  C     C_R   0.192584 0.615713 0.016602 0.167614
C117  C     C_R   0.379690 0.196795 0.002885 0.220570
C118  C     C_R   0.807416 0.384287 0.016602 0.167614
C119  C     C_R   0.120310 0.303204 0.502882 0.220570
C120  C     C_R   0.692585 0.115713 0.516603 0.167613
C121  C     C_R   0.879690 0.696796 0.502882 0.220572
C122  C     C_R   0.307416 0.884288 0.516603 0.167613
C123  C     C_3   0.862822 0.449298 0.923386 -0.695706
C124  C     C_R   0.052041 0.220459 0.489244 -0.063078
C125  C     C_3   0.546791 0.860271 0.923372 -0.710347
C126  C     C_3   0.137173 0.550703 0.923382 -0.695706
C127  C     C_3   0.453208 0.139728 0.923372 -0.710344
C128  C     C_3   0.362816 0.949321 0.423384 -0.695724
C129  C     C_3   0.046785 0.360270 0.423372 -0.710351
C130  C     C_3   0.637185 0.050678 0.423386 -0.695725
C131  C     C_3   0.953214 0.639730 0.423372 -0.710349
C132  C     C_3   0.550833 0.665445 0.926382 -0.659480
C133  C     C_3   0.340986 0.591824 0.937286 -0.656752
C134  C     C_3   0.449169 0.334553 0.926381 -0.659480
C135  C     C_R   0.778772 0.056880 0.496647 -0.083530
C136  C     C_3   0.659013 0.408175 0.937286 -0.656752
C137  C     C_3   0.050813 0.165454 0.426379 -0.659499
C138  C     C_3   0.840986 0.091827 0.437288 -0.656768
C139  C     C_3   0.949185 0.834546 0.426379 -0.659498
C140  C     C_3   0.159013 0.908171 0.437288 -0.656768
C141  C     C_3   0.773255 0.781321 0.001859 -0.561619
C142  C     C_3   0.212314 0.759874 0.037065 -0.533096
C143  C     C_3   0.226745 0.218681 0.001857 -0.561617
C144  C     C_3   0.787687 0.240127 0.037065 -0.533097
C145  C     C_3   0.273255 0.281314 0.501850 -0.561609
C146  C     C_R   0.947959 0.779541 0.489244 -0.063075
C147  C     C_3   0.712315 0.259871 0.537069 -0.533089
C148  C     C_3   0.726746 0.718687 0.501850 -0.561611
C149  C     C_3   0.287685 0.740129 0.537069 -0.533092
C150  C     C_3   0.630639 0.820444 0.053472 -0.583329
C151  C     C_3   0.165175 0.594463 0.065699 -0.621111
C152  C     C_3   0.369361 0.179558 0.053471 -0.583327
C153  C     C_3   0.834826 0.405537 0.065699 -0.621109
C154  C     C_3   0.130649 0.320438 0.553468 -0.583313
C155  C     C_3   0.665174 0.094460 0.565701 -0.621114
C156  C     C_3   0.869354 0.679561 0.553468 -0.583326
C157  C     C_R   0.221227 0.943120 0.496648 -0.083530
C158  C     C_3   0.334827 0.905541 0.565701 -0.621115
C159  C     C_R   0.500525 0.686761 0.999571 -0.224998
C160  C     C_R   0.313256 0.501112 0.000029 -0.207524
C161  C     C_R   0.499475 0.313239 0.999571 -0.224998
C162  C     C_R   0.686743 0.498887 0.000029 -0.207523
C163  C     C_R   0.000524 0.186761 0.499571 -0.225003
C164  C     C_R   0.379752 0.501973 0.999951 1.008118
C165  C     C_R   0.813256 0.001113 0.500029 -0.207516
C166  C     C_R   0.999476 0.813239 0.499571 -0.225003
C167  C     C_R   0.186744 0.998887 0.500029 -0.207516
C168  C     C_R   0.452524 0.716601 0.014877 0.293622
C169  C     C_R   0.285064 0.447034 0.010083 0.298707
C170  C     C_R   0.547476 0.283400 0.014877 0.293621
C171  C     C_R   0.714936 0.552966 0.010084 0.298706
C172  C     C_R   0.952524 0.216601 0.514878 0.293622
C173  C     C_R   0.785064 0.947033 0.510082 0.298710
C174  C     C_R   0.047475 0.783399 0.514878 0.293624
C175  C     C_R   0.498137 0.379740 0.999859 1.000030
C176  C     C_R   0.214936 0.052966 0.510082 0.298708
C177  C     C_R   0.451617 0.780686 0.016654 0.417512
C178  C     C_R   0.220988 0.445706 0.012945 0.385816
C179  C     C_R   0.548384 0.219314 0.016654 0.417513
C180  C     C_R   0.779012 0.554294 0.012945 0.385819
C181  C     C_R   0.951617 0.280687 0.516655 0.417518
C182  C     C_R   0.720988 0.945705 0.512944 0.385808
C183  C     C_R   0.048382 0.719314 0.516656 0.417509
C184  C     C_R   0.279012 0.054295 0.512944 0.385811
C185  C     C_R   0.504511 0.813115 0.008083 -0.242061
C186  C     C_R   0.120248 0.998027 0.499951 1.008121
C187  C     C_R   0.186775 0.501068 0.009412 -0.249250
C188  C     C_R   0.495490 0.186885 0.008083 -0.242061
C189  C     C_R   0.813225 0.498932 0.009413 -0.249251
C190  C     C_R   0.004511 0.313115 0.508082 -0.242051
C191  C     C_R   0.686775 0.001068 0.509413 -0.249249
C192  C     C_R   0.995489 0.686885 0.508083 -0.242060
C193  C     C_R   0.313225 0.998932 0.509413 -0.249249
C194  C     C_R   0.500000 0.000000 0.086307 -0.348311
C195  C     C_R   0.000000 0.500000 0.086410 -0.380230
C196  C     C_R   0.000000 0.499997 0.586307 -0.348304
C197  C     C_R   0.001863 0.120260 0.499859 1.000030
C198  C     C_R   0.500000 0.000000 0.586410 -0.380232
C199  C     C_R   0.500000 1.000000 0.055369 1.045374
C200  C     C_R   1.000000 0.500000 0.055395 1.023576
C201  C     C_R   0.000000 0.500000 0.555369 1.045381
C202  C     C_R   0.500000 0.000000 0.555395 1.023575
C203  C     C_R   0.500877 0.879867 0.003399 0.957258
C204  C     C_R   0.119958 0.499878 0.003912 0.950955
C205  C     C_R   0.499123 0.120133 0.003399 0.957261
C206  C     C_R   0.880042 0.500122 0.003912 0.950953
C207  C     C_R   0.000877 0.379867 0.503398 0.957265
C208  C     C_R   0.879752 0.001973 0.499951 1.008122
C209  C     C_R   0.619958 0.999878 0.503912 0.950953
C210  C     C_R   0.999123 0.620133 0.503399 0.957258
C211  C     C_R   0.380042 0.000122 0.503912 0.950954
C212  C     C_R   0.960490 0.459693 0.898750 0.139182
C213  C     C_R   0.539044 0.958221 0.898794 0.140205
C214  C     C_R   0.039503 0.540303 0.898748 0.139179
C215  C     C_R   0.460955 0.041779 0.898794 0.140205
C216  C     C_R   0.460487 0.959702 0.398749 0.139184
C217  C     C_R   0.039042 0.458219 0.398794 0.140203
C218  C     C_R   0.539515 0.040298 0.398749 0.139185
C219  C     C_R   0.998138 0.879739 0.499859 1.000027
C220  C     C_R   0.960957 0.541780 0.398794 0.140203
C221  C     C_R   0.491457 0.944287 0.101136 0.266641
C222  C     C_R   0.952686 0.531760 0.101303 0.255303
C223  C     C_R   0.508544 0.055714 0.101136 0.266642
C224  C     C_R   0.047314 0.468241 0.101303 0.255303
C225  C     C_R   0.991464 0.444281 0.601134 0.266651
C226  C     C_R   0.452687 0.031761 0.601303 0.255303
C227  C     C_R   0.008537 0.555710 0.601137 0.266642
C228  C     C_R   0.547313 0.968240 0.601303 0.255304
C229  C     C_R   0.500000 1.000000 0.944705 0.904660
C230  C     C_R   0.559234 0.779821 0.000308 -0.093171
C231  C     C_R   0.999999 0.500000 0.944711 0.905408
C232  C     C_R   1.000000 0.500000 0.444705 0.904661
C233  C     C_R   0.500000 1.000000 0.444711 0.905416
C234  C     C_R   0.999997 0.499999 0.913698 -0.090265
C235  C     C_R   0.499999 1.000000 0.913723 -0.086743
C236  C     C_R   0.500001 1.000000 0.413699 -0.090255
C237  C     C_R   1.000000 0.500000 0.413724 -0.086741
C238  C     C_R   0.052271 0.481432 0.809950 0.591109
C239  C     C_R   0.527657 0.047380 0.810152 0.591656
C240  C     C_R   0.947718 0.518536 0.809949 0.591108
Cl1   Cl    Cl    0.480014 0.875067 0.149863 -0.404898
Cl2   Cl    Cl    0.417125 0.833366 0.782160 -0.368763
Cl3   Cl    Cl    0.182460 0.455709 0.782163 -0.367414
Cl4   Cl    Cl    0.582870 0.166635 0.782161 -0.368757
Cl5   Cl    Cl    0.317571 0.044433 0.282160 -0.367404
Cl6   Cl    Cl    0.917115 0.333371 0.282160 -0.368770
Cl7   Cl    Cl    0.682433 0.955576 0.282161 -0.367405
Cl8   Cl    Cl    0.082880 0.666631 0.282161 -0.368772
Cl9   Cl    Cl    0.318084 0.048297 0.217980 -0.334648
Cl10  Cl    Cl    0.916322 0.333766 0.217988 -0.339276
Cl11  Cl    Cl    0.681920 0.951714 0.217980 -0.334647
Cl12  Cl    Cl    0.893463 0.570365 0.150092 -0.408592
Cl13  Cl    Cl    0.083674 0.666235 0.217989 -0.339277
Cl14  Cl    Cl    0.818015 0.548027 0.717980 -0.334636
Cl15  Cl    Cl    0.416331 0.833761 0.717988 -0.339267
Cl16  Cl    Cl    0.181959 0.451864 0.717981 -0.334639
Cl17  Cl    Cl    0.583665 0.166240 0.717989 -0.339260
Cl18  Cl    Cl    0.481914 0.874115 0.082647 -0.487834
Cl19  Cl    Cl    0.891793 0.569908 0.082985 -0.445472
Cl20  Cl    Cl    0.518086 0.125885 0.082646 -0.487835
Cl21  Cl    Cl    0.108207 0.430093 0.082985 -0.445471
Cl22  Cl    Cl    0.981930 0.374111 0.582643 -0.487853
Cl23  Cl    Cl    0.519988 0.124936 0.149862 -0.404896
Cl24  Cl    Cl    0.391795 0.069910 0.582984 -0.445473
Cl25  Cl    Cl    0.018071 0.625885 0.582649 -0.487838
Cl26  Cl    Cl    0.608206 0.930091 0.582985 -0.445472
Cl27  Cl    Cl    0.392966 0.674467 0.031787 -0.544134
Cl28  Cl    Cl    0.329837 0.380785 0.019338 -0.570387
Cl29  Cl    Cl    0.607035 0.325534 0.031787 -0.544133
Cl30  Cl    Cl    0.670163 0.619214 0.019339 -0.570384
Cl31  Cl    Cl    0.892967 0.174467 0.531789 -0.544129
Cl32  Cl    Cl    0.829837 0.880783 0.519334 -0.570397
Cl33  Cl    Cl    0.107033 0.825533 0.531789 -0.544130
Cl34  Cl    Cl    0.106536 0.429635 0.150093 -0.408591
Cl35  Cl    Cl    0.170163 0.119217 0.519335 -0.570396
Cl36  Cl    Cl    0.711727 0.703644 0.942752 -0.606811
Cl37  Cl    Cl    0.296356 0.737284 0.972275 -0.557034
Cl38  Cl    Cl    0.288274 0.296355 0.942750 -0.606807
Cl39  Cl    Cl    0.703644 0.262715 0.972274 -0.557034
Cl40  Cl    Cl    0.211715 0.203645 0.442744 -0.606800
Cl41  Cl    Cl    0.796356 0.237286 0.472278 -0.557036
Cl42  Cl    Cl    0.788284 0.796355 0.442744 -0.606800
Cl43  Cl    Cl    0.203643 0.762713 0.472278 -0.557039
Cl44  Cl    Cl    0.385874 0.818494 0.031557 -0.433692
Cl45  Cl    Cl    0.980030 0.375054 0.649859 -0.404905
Cl46  Cl    Cl    0.185823 0.375718 0.023339 -0.467308
Cl47  Cl    Cl    0.614127 0.181507 0.031557 -0.433693
Cl48  Cl    Cl    0.814177 0.624282 0.023339 -0.467306
Cl49  Cl    Cl    0.885876 0.318495 0.531559 -0.433687
Cl50  Cl    Cl    0.685823 0.875717 0.523338 -0.467317
Cl51  Cl    Cl    0.114122 0.681505 0.531562 -0.433690
Cl52  Cl    Cl    0.314177 0.124284 0.523338 -0.467316
Cl53  Cl    Cl    0.393464 0.070367 0.650092 -0.408598
Cl54  Cl    Cl    0.019970 0.624926 0.649866 -0.404901
Cl55  Cl    Cl    0.606535 0.929633 0.650093 -0.408603
Cl56  Cl    Cl    0.817519 0.544199 0.782162 -0.367424
H1    H     H_    0.931990 0.428397 0.857435 0.164459
H2    H     H_    0.834343 0.465537 0.905117 0.254009
H3    H     H_    0.685324 0.688714 0.502266 0.228437
H4    H     H_    0.358058 0.768642 0.509846 0.219618
H5    H     H_    0.307187 0.692401 0.538263 0.240933
H6    H     H_    0.236335 0.737305 0.536481 0.311920
H7    H     H_    0.301927 0.765924 0.556319 0.214145
H8    H     H_    0.674673 0.871207 0.022108 0.248394
H9    H     H_    0.638384 0.857770 0.069225 0.252141
H10   H     H_    0.666158 0.783386 0.056652 0.248528
H11   H     H_    0.583906 0.801098 0.057220 0.279209
H12   H     H_    0.118898 0.656888 0.039486 0.229569
H13   H     H_    0.873414 0.489232 0.937315 0.231064
H14   H     H_    0.124923 0.594994 0.080419 0.245597
H15   H     H_    0.202052 0.624252 0.074559 0.249636
H16   H     H_    0.182818 0.546110 0.064188 0.270794
H17   H     H_    0.325327 0.128794 0.022107 0.248394
H18   H     H_    0.361615 0.142232 0.069224 0.252141
H19   H     H_    0.333842 0.216616 0.056650 0.248529
H20   H     H_    0.416094 0.198904 0.057220 0.279209
H21   H     H_    0.881103 0.343112 0.039486 0.229569
H22   H     H_    0.875079 0.405008 0.080419 0.245597
H23   H     H_    0.797949 0.375748 0.074559 0.249636
H24   H     H_    0.835466 0.415711 0.935915 0.233674
H25   H     H_    0.817183 0.453891 0.064188 0.270794
H26   H     H_    0.174675 0.371205 0.522103 0.248393
H27   H     H_    0.138396 0.357763 0.569221 0.252141
H28   H     H_    0.166169 0.283381 0.556645 0.248525
H29   H     H_    0.083917 0.301090 0.557218 0.279212
H30   H     H_    0.618897 0.156886 0.539488 0.229571
H31   H     H_    0.624922 0.094990 0.580419 0.245598
H32   H     H_    0.702051 0.124249 0.574561 0.249635
H33   H     H_    0.682818 0.046107 0.564188 0.270794
H34   H     H_    0.825324 0.628797 0.522103 0.248394
H35   H     H_    0.618520 0.904181 0.902742 0.246742
H36   H     H_    0.861605 0.642236 0.569220 0.252142
H37   H     H_    0.833836 0.716620 0.556646 0.248528
H38   H     H_    0.916087 0.698905 0.557217 0.279209
H39   H     H_    0.381104 0.843115 0.539488 0.229571
H40   H     H_    0.375080 0.905012 0.580420 0.245597
H41   H     H_    0.297951 0.875753 0.574561 0.249635
H42   H     H_    0.317183 0.953895 0.564188 0.270795
H43   H     H_    0.529622 0.832931 0.905071 0.251973
H44   H     H_    0.507200 0.872856 0.937391 0.231971
H45   H     H_    0.579766 0.831066 0.935763 0.230889
H46   H     H_    0.089500 0.620983 0.902640 0.244667
H47   H     H_    0.165650 0.534462 0.905113 0.254009
H48   H     H_    0.126583 0.510771 0.937312 0.231064
H49   H     H_    0.568966 0.927572 0.857438 0.161214
H50   H     H_    0.164529 0.584292 0.935909 0.233676
H51   H     H_    0.381478 0.095819 0.902743 0.246743
H52   H     H_    0.470378 0.167068 0.905071 0.251973
H53   H     H_    0.492799 0.127144 0.937391 0.231971
H54   H     H_    0.420234 0.168934 0.935763 0.230888
H55   H     H_    0.410474 0.879032 0.402642 0.244668
H56   H     H_    0.334340 0.965567 0.405116 0.254009
H57   H     H_    0.373414 0.989251 0.437314 0.231071
H58   H     H_    0.335455 0.915737 0.435912 0.233673
H59   H     H_    0.118517 0.404177 0.402743 0.246746
H60   H     H_    0.068000 0.571590 0.857432 0.164459
H61   H     H_    0.029614 0.332931 0.405071 0.251974
H62   H     H_    0.007195 0.372855 0.437391 0.231971
H63   H     H_    0.079759 0.331062 0.435762 0.230888
H64   H     H_    0.589528 0.120968 0.402643 0.244668
H65   H     H_    0.665661 0.034433 0.405117 0.254009
H66   H     H_    0.626586 0.010747 0.437315 0.231071
H67   H     H_    0.664546 0.084261 0.435914 0.233673
H68   H     H_    0.881482 0.595823 0.402743 0.246746
H69   H     H_    0.970385 0.667069 0.405071 0.251974
H70   H     H_    0.992804 0.627144 0.437391 0.231971
H71   H     H_    0.431032 0.072427 0.857438 0.161216
H72   H     H_    0.920240 0.668937 0.435763 0.230888
H73   H     H_    0.623197 0.618985 0.946930 0.280734
H74   H     H_    0.540043 0.623498 0.913800 0.238015
H75   H     H_    0.578124 0.697515 0.912988 0.253223
H76   H     H_    0.506331 0.688249 0.932575 0.237328
H77   H     H_    0.382938 0.648162 0.967072 0.268224
H78   H     H_    0.310391 0.627076 0.927037 0.250637
H79   H     H_    0.317788 0.546193 0.936978 0.241897
H80   H     H_    0.384774 0.587753 0.924971 0.238664
H81   H     H_    0.376804 0.381014 0.946928 0.280734
H82   H     H_    0.431981 0.928418 0.357433 0.164444
H83   H     H_    0.459959 0.376499 0.913799 0.238015
H84   H     H_    0.421878 0.302483 0.912987 0.253224
H85   H     H_    0.493671 0.311749 0.932574 0.237328
H86   H     H_    0.617061 0.351838 0.967071 0.268224
H87   H     H_    0.689607 0.372923 0.927037 0.250639
H88   H     H_    0.682211 0.453807 0.936978 0.241897
H89   H     H_    0.615225 0.412245 0.924971 0.238665
H90   H     H_    0.123183 0.118990 0.446921 0.280736
H91   H     H_    0.040020 0.123509 0.413796 0.238016
H92   H     H_    0.078099 0.197527 0.412985 0.253223
H93   H     H_    0.068963 0.427570 0.357438 0.161218
H94   H     H_    0.006312 0.188256 0.432576 0.237330
H95   H     H_    0.882938 0.148163 0.467073 0.268222
H96   H     H_    0.810392 0.127080 0.427038 0.250637
H97   H     H_    0.817788 0.046196 0.436978 0.241898
H98   H     H_    0.884774 0.087757 0.424973 0.238664
H99   H     H_    0.876817 0.881010 0.446921 0.280736
H100  H     H_    0.959979 0.876490 0.413796 0.238016
H101  H     H_    0.921898 0.802473 0.412985 0.253224
H102  H     H_    0.993686 0.811742 0.432575 0.237329
H103  H     H_    0.117061 0.851836 0.467074 0.268222
H104  H     H_    0.568021 0.071582 0.357434 0.164444
H105  H     H_    0.189607 0.872918 0.427039 0.250637
H106  H     H_    0.182211 0.953802 0.436979 0.241898
H107  H     H_    0.115224 0.912241 0.424973 0.238664
H108  H     H_    0.741565 0.818653 0.963943 0.274025
H109  H     H_    0.787083 0.735507 0.993136 0.302416
H110  H     H_    0.756253 0.775799 0.023947 0.258231
H111  H     H_    0.814675 0.811297 0.002275 0.228436
H112  H     H_    0.141941 0.731358 0.009842 0.219617
H113  H     H_    0.192813 0.807602 0.038258 0.240931
H114  H     H_    0.263664 0.762697 0.036478 0.311922
H115  H     H_    0.931035 0.572429 0.357438 0.161218
H116  H     H_    0.198071 0.734080 0.056316 0.214143
H117  H     H_    0.258435 0.181347 0.963942 0.274025
H118  H     H_    0.212919 0.264495 0.993134 0.302415
H119  H     H_    0.243747 0.224203 0.023946 0.258233
H120  H     H_    0.185325 0.188705 0.002273 0.228436
H121  H     H_    0.858059 0.268642 0.009842 0.219617
H122  H     H_    0.807189 0.192398 0.038258 0.240931
H123  H     H_    0.736337 0.237303 0.036477 0.311922
H124  H     H_    0.801929 0.265921 0.056315 0.214145
H125  H     H_    0.241560 0.318651 0.463936 0.274027
H126  H     H_    0.910491 0.379014 0.902645 0.244667
H127  H     H_    0.287078 0.235499 0.493126 0.302411
H128  H     H_    0.256257 0.275792 0.523939 0.258234
H129  H     H_    0.314676 0.311288 0.502265 0.228437
H130  H     H_    0.641942 0.231358 0.509845 0.219618
H131  H     H_    0.692813 0.307600 0.538262 0.240933
H132  H     H_    0.763665 0.262695 0.536481 0.311920
H133  H     H_    0.698072 0.234077 0.556318 0.214144
H134  H     H_    0.758439 0.681349 0.463936 0.274027
H135  H     H_    0.712923 0.764502 0.493127 0.302412
H136  H     H_    0.743745 0.724209 0.523939 0.258235
N1    N     N_R   0.999995 0.499988 0.823929 -0.359131
N2    N     N_2   0.578046 0.915060 0.913432 -0.287900
N3    N     N_2   0.080693 0.580389 0.913352 -0.287074
N4    N     N_2   0.421953 0.084940 0.913432 -0.287901
N5    N     N_2   0.419290 0.919625 0.413354 -0.287079
N6    N     N_2   0.078043 0.415057 0.413432 -0.287902
N7    N     N_2   0.580711 0.080374 0.413355 -0.287079
N8    N     N_2   0.921956 0.584943 0.413432 -0.287901
N9    N     N_2   0.585955 0.647817 0.951334 -0.264207
N10   N     N_2   0.354931 0.609944 0.966118 -0.280630
N11   N     N_2   0.414047 0.352182 0.951333 -0.264207
N12   N     N_R   0.499999 1.000000 0.824066 -0.360558
N13   N     N_2   0.645068 0.390055 0.966118 -0.280630
N14   N     N_2   0.085942 0.147822 0.451329 -0.264202
N15   N     N_2   0.854932 0.109946 0.466119 -0.280631
N16   N     N_2   0.914058 0.852178 0.451329 -0.264203
N17   N     N_2   0.145068 0.890053 0.466120 -0.280631
N18   N     N_2   0.725970 0.809525 0.984183 -0.335314
N19   N     N_2   0.189555 0.729772 0.011796 -0.283157
N20   N     N_2   0.274030 0.190475 0.984181 -0.335314
N21   N     N_2   0.810446 0.270229 0.011796 -0.283158
N22   N     N_2   0.225968 0.309522 0.484176 -0.335315
N23   N     N_R   0.500001 0.000001 0.323930 -0.359137
N24   N     N_2   0.689555 0.229771 0.511799 -0.283158
N25   N     N_2   0.774032 0.690479 0.484176 -0.335315
N26   N     N_2   0.310445 0.770229 0.511800 -0.283159
N27   N     N_2   0.635243 0.845532 0.025096 -0.285019
N28   N     N_2   0.145797 0.617315 0.038171 -0.292479
N29   N     N_2   0.364757 0.154469 0.025095 -0.285019
N30   N     N_2   0.854204 0.382686 0.038171 -0.292479
N31   N     N_2   0.135246 0.345529 0.525092 -0.285015
N32   N     N_2   0.645796 0.117313 0.538172 -0.292480
N33   N     N_2   0.864754 0.654471 0.525092 -0.285017
N34   N     N_R   0.999999 0.500000 0.324066 -0.360559
N35   N     N_2   0.354204 0.882688 0.538173 -0.292480
N36   N     N_R   0.500001 0.000002 0.175972 -0.326086
N37   N     N_R   1.000000 0.500000 0.176128 -0.324580
N38   N     N_R   0.999998 0.499987 0.675972 -0.326085
N39   N     N_R   0.499999 0.000000 0.676128 -0.324580
N40   N     N_2   0.919300 0.419610 0.913356 -0.287072
O1    O     O_R   0.591590 0.499950 0.976370 -0.626290
O2    O     O_R   0.500070 0.591570 0.023700 -0.557678
O3    O     O_R   0.408430 0.500070 0.023700 -0.570195
O4    O     O_R   0.499930 0.408430 0.023700 -0.557677
O5    O     O_R   0.091570 0.999930 0.523700 -0.570200
O6    O     O_R   0.000070 0.091570 0.523700 -0.557677
O7    O     O_R   0.908430 0.000070 0.523700 -0.570199
O8    O     O_R   0.999930 0.908430 0.523700 -0.557678
O9    O     O_R   0.448240 0.999940 0.041970 -0.592347
O10   O     O_R   0.000060 0.448240 0.041970 -0.586759
O11   O     O_R   0.551760 0.000060 0.041970 -0.592348
O12   O     O_R   0.500050 0.591590 0.976370 -0.625241
O13   O     O_R   0.999940 0.551760 0.041970 -0.586760
O14   O     O_R   0.948240 0.499940 0.541970 -0.592347
O15   O     O_R   0.500060 0.948240 0.541970 -0.586759
O16   O     O_R   0.051760 0.500060 0.541970 -0.592347
O17   O     O_R   0.499940 0.051760 0.541970 -0.586759
O18   O     O_R   0.448230 0.908340 0.000040 -0.566604
O19   O     O_R   0.091660 0.448230 0.000040 -0.563419
O20   O     O_R   0.551770 0.091660 0.000040 -0.566605
O21   O     O_R   0.908340 0.551770 0.000040 -0.563420
O22   O     O_R   0.948230 0.408340 0.500040 -0.566607
O23   O     O_R   0.408410 0.500050 0.976370 -0.626290
O24   O     O_R   0.591660 0.948230 0.500040 -0.563422
O25   O     O_R   0.051770 0.591660 0.500040 -0.566609
O26   O     O_R   0.408340 0.051770 0.500040 -0.563422
O27   O     O_R   0.551670 0.908330 0.000040 -0.623131
O28   O     O_R   0.091670 0.551670 0.000040 -0.625740
O29   O     O_R   0.448330 0.091670 0.000040 -0.623130
O30   O     O_R   0.908330 0.448330 0.000040 -0.625739
O31   O     O_R   0.051670 0.408330 0.500040 -0.623129
O32   O     O_R   0.591670 0.051670 0.500040 -0.625735
O33   O     O_R   0.948330 0.591670 0.500040 -0.623127
O34   O     O_R   0.499950 0.408410 0.976370 -0.625241
O35   O     O_R   0.408330 0.948330 0.500040 -0.625736
O36   O     O_R   0.448240 0.999980 0.958120 -0.600788
O37   O     O_R   0.000020 0.448240 0.958120 -0.598225
O38   O     O_R   0.551760 0.000020 0.958120 -0.600787
O39   O     O_R   0.999980 0.551760 0.958120 -0.598225
O40   O     O_R   0.948240 0.499980 0.458120 -0.600790
O41   O     O_R   0.500020 0.948240 0.458120 -0.598229
O42   O     O_R   0.051760 0.500020 0.458120 -0.600789
O43   O     O_R   0.499980 0.051760 0.458120 -0.598228
O44   O     O_2   0.100643 0.459900 0.825329 -0.464234
O45   O     O_R   0.091590 0.999950 0.476370 -0.626287
O46   O     O_2   0.556044 0.091074 0.825670 -0.463939
O47   O     O_2   0.899349 0.540080 0.825325 -0.464233
O48   O     O_2   0.443954 0.908925 0.825669 -0.463939
O49   O     O_2   0.600627 0.959859 0.325329 -0.464222
O50   O     O_2   0.056047 0.591072 0.325670 -0.463940
O51   O     O_2   0.399375 0.040141 0.325329 -0.464222
O52   O     O_2   0.943951 0.408927 0.325669 -0.463940
O53   O     O_2   0.395251 0.026327 0.174253 -0.435635
O54   O     O_2   0.944036 0.408931 0.174454 -0.442495
O55   O     O_2   0.604752 0.973677 0.174253 -0.435635
O56   O     O_R   0.000050 0.091590 0.476370 -0.625239
O57   O     O_2   0.055963 0.591070 0.174455 -0.442495
O58   O     O_2   0.895244 0.526293 0.674252 -0.435635
O59   O     O_2   0.444038 0.908929 0.674454 -0.442496
O60   O     O_2   0.104755 0.473689 0.674253 -0.435634
O61   O     O_2   0.555961 0.091071 0.674455 -0.442494
O62   O     O_R   0.908410 0.000050 0.476370 -0.626287
O63   O     O_R   0.999950 0.908410 0.476370 -0.625238
O64   O     O_R   0.591570 0.499930 0.023700 -0.570195
Zn1   Zn    Zn3+2 0.500000 0.500000 0.968430 0.969778
Zn2   Zn    Zn3+2 0.500040 0.930890 0.500050 1.062193
Zn3   Zn    Zn3+2 0.069110 0.500040 0.500050 1.074123
Zn4   Zn    Zn3+2 0.499960 0.069110 0.500050 1.062194
Zn5   Zn    Zn3+2 0.000000 1.000000 0.468430 0.969781
Zn6   Zn    Zn3+2 0.500000 0.500000 0.031640 1.178062
Zn7   Zn    Zn3+2 0.000000 1.000000 0.531640 1.178056
Zn8   Zn    Zn3+2 0.430890 0.999960 0.000050 1.074123
Zn9   Zn    Zn3+2 0.000040 0.430890 0.000050 1.062191
Zn10  Zn    Zn3+2 0.569110 0.000040 0.000050 1.074122
Zn11  Zn    Zn3+2 0.999960 0.569110 0.000050 1.062190
Zn12  Zn    Zn3+2 0.930890 0.499960 0.500050 1.074125

loop_
_geom_bond_atom_site_label_1
_geom_bond_atom_site_label_2
_ccdc_geom_bond_type
O30   Zn9   S    
O62   Zn5   S    
C52   O53   S    
C79   C87   A    
C126  N3    S    
C142  H114  S    
C35   C124  A    
C82   Cl34  S    
C133  H79   S    
C60   O61   S    
C193  C211  S    
C82   C224  A    
C200  O13   A    
C143  N20   S    
C184  C193  A    
H103  N17   S    
C29   C33   A    
C143  H118  S    
C132  H74   S    
C2    C90   A    
C64   C84   A    
O39   Zn11  S    
C238  N1    A    
C155  H33   S    
C2    C116  A    
C205  O20   A    
C162  C171  A    
C150  H11   S    
O3    Zn6   S    
C55   N37   A    
C147  H133  S    
O42   Zn3   S    
C184  Cl52  S    
C132  H75   S    
C88   C97   A    
C136  N13   S    
C125  H43   S    
C145  N22   S    
C63   C85   A    
C21   Cl56  S    
C65   N1    S    
C172  Cl31  S    
H130  N24   S    
C198  C228  A    
C18   C51   A    
C206  O21   A    
C201  O16   A    
C63   N38   S    
C7    O52   S    
C231  O37   A    
C188  C205  S    
C166  C174  A    
C36   Cl15  S    
C131  H70   S    
C27   C31   A    
C137  N14   S    
C28   C32   A    
C57   C192  A    
C137  H92   S    
C1    O1    A    
C179  C188  A    
C23   C37   A    
O33   Zn12  S    
C199  O11   A    
C187  C204  S    
C86   Cl55  S    
H12   N28   S    
C28   Cl7   S    
C174  C183  A    
C129  N6    S    
C42   C55   A    
C175  O4    A    
C64   N39   S    
O1    Zn1   S    
C232  O40   A    
C189  C206  S    
C16   C20   A    
C3    N12   A    
C229  O38   A    
C59   N38   A    
C141  H109  S    
C87   N9    S    
C67   C74   A    
C208  O62   A    
C163  C172  A    
C192  C210  S    
H108  N18   S    
C173  C182  A    
C53   O54   S    
C35   C190  A    
C149  H5    S    
O34   Zn1   S    
C36   C44   A    
C127  H53   S    
C37   C45   A    
C160  C164  S    
O40   Zn12  S    
C25   Cl4   S    
C176  C184  A    
C45   C59   A    
C169  Cl28  S    
C112  O2    A    
H112  N19   S    
C89   C101  A    
C130  H66   S    
C144  N21   S    
C212  C234  A    
C142  N19   S    
C114  N26   S    
C22   C36   A    
C8    C17   A    
C128  H56   S    
C137  H91   S    
C183  Cl51  S    
C95   N17   S    
C79   C159  A    
C156  H37   S    
C89   N11   S    
C45   C50   A    
C150  H9    S    
C179  Cl47  S    
C204  O28   A    
C138  H96   S    
C148  N25   S    
C231  C234  S    
O16   Zn3   S    
C145  H129  S    
C148  H135  S    
C129  H61   S    
O17   Zn4   S    
C197  O6    A    
C233  O41   A    
C213  C235  A    
O20   Zn10  S    
C166  C219  S    
C198  C226  A    
C134  H85   S    
H126  N40   S    
O12   Zn1   S    
O2    Zn6   S    
C11   C18   A    
C151  H15   S    
C138  H97   S    
H17   N29   S    
H117  N20   S    
C70   C212  A    
O15   Zn2   S    
C69   C77   A    
C133  H78   S    
C154  H28   S    
C137  H94   S    
C15   C28   A    
C197  O56   A    
C99   C108  A    
C199  O9    A    
H8    N27   S    
C133  N10   S    
C33   C42   A    
C62   C80   A    
C74   H82   S    
C127  H52   S    
C153  H22   S    
C144  H123  S    
C62   N37   S    
C119  N31   S    
C11   C25   A    
C240  O47   S    
H30   N32   S    
C65   C70   A    
C141  H111  S    
C145  H127  S    
O5    Zn7   S    
H35   N2    S    
C97   Cl37  S    
C2    C187  A    
H59   N6    S    
C99   Cl39  S    
C134  N11   S    
C210  O25   A    
C147  H131  S    
C149  H7    S    
C198  C202  S    
C32   C41   A    
C143  H119  S    
C106  N19   S    
C222  Cl19  S    
C124  C163  A    
O27   Zn10  S    
C156  N33   S    
C87   C96   A    
C202  O17   A    
C102  Cl41  S    
O26   Zn4   S    
O45   Zn5   S    
C141  N18   S    
C8    C240  A    
C94   N16   S    
C78   Cl1   S    
H68   N8    S    
O9    Zn8   S    
C3    O48   S    
O21   Zn11  S    
C44   C58   A    
C6    O51   S    
C122  N35   S    
C227  Cl25  S    
O56   Zn5   S    
C136  H88   S    
C12   C26   A    
H86   N13   S    
C20   C49   A    
C3    C9    A    
C25   C38   A    
H81   N11   S    
C129  H63   S    
O28   Zn11  S    
C209  O24   A    
C139  H100  S    
C37   Cl16  S    
C148  H3    S    
C75   H93   S    
C38   C47   A    
C46   C120  A    
C233  O43   A    
C208  O7    A    
C68   C193  A    
C134  H83   S    
C191  C209  S    
C127  N4    S    
C118  N30   S    
C60   N39   A    
C26   C30   A    
C204  O19   A    
C205  O29   A    
O41   Zn2   S    
C96   Cl36  S    
C29   Cl8   S    
C203  O27   A    
C133  H80   S    
C221  Cl18  S    
C176  Cl35  S    
C217  C237  A    
C128  H58   S    
C196  C225  A    
C95   C157  A    
C105  C115  A    
C34   C43   A    
O19   Zn9   S    
C93   C135  A    
C40   C53   A    
C43   C50   A    
C81   Cl23  S    
C121  N33   S    
C65   C72   A    
C67   N23   S    
C30   Cl9   S    
C89   C98   A    
C34   Cl14  S    
C88   N10   S    
C4    O49   S    
C61   C81   A    
C219  O63   A    
H26   N31   S    
C147  N24   S    
C232  C237  S    
C9    C18   A    
O18   Zn8   S    
C139  H102  S    
C70   H1    S    
C107  C117  A    
C30   C39   A    
C73   H71   S    
C233  C236  S    
C80   C222  A    
C120  N32   S    
C190  C207  S    
C100  C109  A    
H64   N7    S    
C163  C197  S    
C139  N16   S    
C80   Cl12  S    
C39   C48   A    
C171  Cl30  S    
C91   C99   A    
C196  C201  S    
C132  H76   S    
C155  H32   S    
C194  C223  A    
C94   C146  A    
C72   C214  A    
C96   C105  A    
O11   Zn10  S    
C131  N8    S    
C71   H49   S    
C183  C192  A    
C157  C167  A    
C158  H41   S    
C54   O55   S    
C178  Cl46  S    
C15   C19   A    
C32   Cl11  S    
C131  H69   S    
C152  H19   S    
C76   H104  S    
C201  O14   A    
C92   C124  A    
C6    C12   A    
C195  C224  A    
C126  H47   S    
C168  C177  A    
O10   Zn9   S    
C177  C185  A    
C31   C40   A    
C103  C111  A    
C72   H60   S    
C158  N35   S    
C115  C230  A    
C144  H122  S    
C46   C135  A    
C128  N5    S    
C76   C218  A    
C207  O31   A    
C140  H105  S    
C160  C169  A    
C85   C227  A    
C14   C27   A    
C46   C191  A    
C103  Cl42  S    
C83   Cl45  S    
H21   N30   S    
C62   C82   A    
C196  C227  A    
O24   Zn2   S    
C57   C146  A    
C181  Cl49  S    
C214  C234  A    
O36   Zn8   S    
C64   C86   A    
C12   C19   A    
C142  H113  S    
C229  O36   A    
H34   N33   S    
C153  N30   S    
C14   C20   A    
C130  H67   S    
H99   N16   S    
C98   Cl38  S    
C68   C122  A    
C52   N36   A    
C47   C51   A    
C21   C34   A    
C211  O35   A    
C71   C213  A    
C167  C186  S    
C125  H45   S    
H134  N25   S    
C98   C107  A    
C63   C83   A    
C229  C235  S    
C158  H42   S    
C95   C104  A    
C112  O12   A    
C66   N12   S    
C156  H38   S    
C177  Cl44  S    
C66   C71   A    
C150  H10   S    
C158  H40   S    
H51   N4    S    
C111  N25   S    
C170  Cl29  S    
C135  C165  A    
C123  H13   S    
C5    N34   A    
C40   C49   A    
C148  H136  S    
C194  C221  A    
O7    Zn7   S    
C178  C187  A    
C125  H44   S    
C88   C90   A    
C94   C103  A    
C130  N7    S    
C216  C236  A    
C220  C237  A    
C102  C110  A    
C182  C191  A    
C68   C157  A    
C168  Cl27  S    
C226  Cl24  S    
C22   Cl2   S    
C109  C119  A    
C136  H89   S    
C138  H98   S    
C207  O22   A    
C123  H24   S    
C24   C118  A    
C4    N23   A    
C115  N27   S    
C93   C102  A    
C195  C222  A    
C13   C117  A    
C84   Cl53  S    
C140  N17   S    
C170  C179  A    
C210  O33   A    
C180  C189  A    
C185  C203  S    
C218  C236  A    
C5    O50   S    
C104  Cl43  S    
C123  N40   S    
C144  H124  S    
C239  N12   A    
C150  N27   S    
C140  H107  S    
C101  C161  A    
C116  N28   S    
C141  H110  S    
C69   C75   A    
C90   C160  A    
C212  N40   S    
C110  N24   S    
C220  N8    S    
O8    Zn7   S    
C1    O64   A    
C149  H6    S    
C106  C116  A    
C75   C217  A    
C73   C215  A    
C175  O34   A    
C232  O42   A    
C127  H54   S    
C215  N4    S    
O38   Zn10  S    
C165  C173  A    
O35   Zn2   S    
H90   N14   S    
C213  N2    S    
C61   N36   S    
C138  N15   S    
C112  C159  S    
C111  C121  A    
O43   Zn4   S    
C130  H65   S    
C35   C119  A    
C84   C226  A    
C59   O60   S    
C164  O23   A    
C54   N36   A    
C200  O10   A    
C159  C168  A    
H39   N35   S    
O23   Zn1   S    
C209  O32   A    
C86   C228  A    
O63   Zn5   S    
C164  O3    A    
O4    Zn6   S    
C186  O5    A    
H77   N10   S    
C56   O58   S    
C223  Cl20  S    
C161  C175  S    
C9    C22   A    
C174  Cl33  S    
C10   C17   A    
C11   C239  A    
C7    N34   A    
C147  H132  S    
C152  H18   S    
C181  C190  A    
C154  H29   S    
C58   O59   S    
H46   N3    S    
C5    C16   A    
C53   N37   A    
C47   C60   A    
C129  H62   S    
C7    C14   A    
C126  H50   S    
C132  N9    S    
O31   Zn3   S    
C24   C189  A    
C151  N28   S    
C26   Cl5   S    
C134  H84   S    
C39   C52   A    
C113  C162  A    
H73   N9    S    
C24   C113  A    
C13   C188  A    
C100  Cl40  S    
H4    N26   S    
C139  H101  S    
C225  Cl22  S    
O25   Zn3   S    
C239  O46   S    
C154  H27   S    
C172  C181  A    
C81   C223  A    
C108  C118  A    
O13   Zn11  S    
C215  C235  A    
O14   Zn12  S    
C153  H23   S    
C27   Cl6   S    
C110  C120  A    
C125  N2    S    
O22   Zn12  S    
C19   C48   A    
H55   N5    S    
C69   N34   S    
C42   C49   A    
C142  H116  S    
C16   C29   A    
C66   C73   A    
C149  N26   S    
C91   C113  A    
C31   Cl10  S    
C202  O15   A    
C145  H128  S    
C156  H36   S    
C180  Cl48  S    
C79   C230  A    
O6    Zn7   S    
C152  N29   S    
C194  C199  S    
C61   C78   A    
C217  N6    S    
C8    C21   A    
H125  N22   S    
C143  H120  S    
C182  Cl50  S    
C91   N13   S    
H95   N15   S    
C216  N5    S    
C228  Cl26  S    
C151  H14   S    
C104  C114  A    
C161  C170  A    
C44   C51   A    
C214  N3    S    
C206  O30   A    
C10   C238  A    
C117  N29   S    
C6    N23   A    
C171  C180  A    
C123  H2    S    
C97   C106  A    
C13   C101  A    
C38   Cl17  S    
C169  C178  A    
O32   Zn4   S    
C153  H25   S    
C218  N7    S    
C92   C100  A    
C195  C200  S    
C83   C225  A    
C108  N21   S    
C74   C216  A    
C219  O8    A    
O37   Zn9   S    
C240  N1    A    
C17   C50   A    
C1    C162  S    
C173  Cl32  S    
C77   C220  A    
C238  O44   S    
C224  Cl21  S    
C10   C23   A    
C231  O39   A    
C136  H87   S    
C56   N38   A    
C154  N31   S    
H121  N21   S    
C131  H72   S    
C152  H20   S    
C58   N39   A    
C4    C15   A    
C33   Cl13  S    
C211  O26   A    
C109  N22   S    
C126  H48   S    
C85   Cl54  S    
C107  N20   S    
C41   C48   A    
C92   N14   S    
C93   N15   S    
C186  O45   A    
C146  C166  A    
C105  N18   S    
C165  C208  S    
O64   Zn6   S    
C41   C54   A    
C55   O57   S    
C78   C221  A    
C57   C121  A    
C114  C122  A    
C43   C56   A    
C151  H16   S    
C155  H31   S    
C203  O18   A    
C155  N32   S    
C140  H106  S    
C167  C176  A    
C67   C76   A    
C23   Cl3   S    
C77   H115  S    
C128  H57   S    
O29   Zn8   S    
C185  C230  A    
