data_mof_unit_38591.cif
_audit_creation_date              2013-03-05T15:51:16-0500
_audit_creation_method            fapswitch 2.2
_symmetry_space_group_name_H-M    P1
_symmetry_Int_Tables_number       1
_space_group_crystal_system       triclinic
_cell_length_a                    19.223115
_cell_length_b                    11.076643
_cell_length_c                    18.790582
_cell_angle_alpha                 89.690502
_cell_angle_beta                  89.426021
_cell_angle_gamma                 90.096614
_cell_volume                      4000.76800015

loop_
_atom_site_label
_atom_site_type_symbol
_atom_site_description
_atom_site_fract_x
_atom_site_fract_y
_atom_site_fract_z
_atom_type_partial_charge
O1    O     O_R   0.787520 0.042810 0.170440 -0.521651
O2    O     O_R   0.212480 0.042810 0.829560 -0.522183
O3    O     O_R   0.287520 0.542810 0.170440 -0.520787
O4    O     O_R   0.712480 0.542810 0.829560 -0.521918
O5    O     O_R   0.765640 0.292100 0.175020 -0.501865
O6    O     O_R   0.234360 0.292100 0.824980 -0.491583
O7    O     O_R   0.265640 0.792100 0.175020 -0.501202
O8    O     O_R   0.734360 0.792100 0.824980 -0.491756
C1    C     C_R   0.728291 0.372493 0.144562 0.535094
C2    C     C_R   0.286711 0.332910 0.861335 0.524598
C3    C     C_R   0.228292 0.872495 0.144563 0.535288
C4    C     C_R   0.786714 0.832905 0.861334 0.523300
O9    O     O_R   0.670190 0.408840 0.168540 -0.495764
O10   O     O_R   0.329810 0.408840 0.831460 -0.460804
O11   O     O_R   0.170190 0.908840 0.168540 -0.495808
O12   O     O_R   0.829810 0.908840 0.831460 -0.465606
O13   O     O_R   0.556620 0.251410 0.175160 -0.483390
O14   O     O_R   0.443380 0.251410 0.824840 -0.509761
O15   O     O_R   0.056620 0.751410 0.175160 -0.483392
O16   O     O_R   0.943380 0.751410 0.824840 -0.512815
C5    C     C_R   0.531622 0.155849 0.146906 0.580837
C6    C     C_R   0.467655 0.155184 0.853640 0.565814
C7    C     C_R   0.031621 0.655852 0.146906 0.580955
C8    C     C_R   0.967650 0.655179 0.853642 0.563523
O17   O     O_R   0.545960 0.049620 0.170320 -0.511605
O18   O     O_R   0.454040 0.049620 0.829680 -0.512490
O19   O     O_R   0.045960 0.549620 0.170320 -0.511611
O20   O     O_R   0.954040 0.549620 0.829680 -0.516567
O21   O     O_R   0.681390 0.958010 0.176690 -0.488747
O22   O     O_R   0.318610 0.958010 0.823310 -0.496691
O23   O     O_R   0.181390 0.458010 0.176690 -0.489034
O24   O     O_R   0.818610 0.458010 0.823310 -0.499239
C9    C     C_R   0.740682 0.973446 0.146787 0.573848
C10   C     C_R   0.259125 0.970424 0.852278 0.561668
C11   C     C_R   0.240681 0.473449 0.146787 0.574011
C12   C     C_R   0.759124 0.470423 0.852278 0.560677
O25   O     O_R   0.787510 0.044390 0.330970 -0.505759
O26   O     O_R   0.212490 0.044390 0.669030 -0.513381
O27   O     O_R   0.287510 0.544390 0.330970 -0.516467
O28   O     O_R   0.712490 0.544390 0.669030 -0.508950
O29   O     O_R   0.765630 0.293570 0.323840 -0.446019
O30   O     O_R   0.234370 0.293570 0.676160 -0.465841
O31   O     O_R   0.265630 0.793570 0.323840 -0.448275
O32   O     O_R   0.734370 0.793570 0.676160 -0.464528
C13   C     C_R   0.730265 0.379004 0.351672 0.554723
C14   C     C_R   0.270175 0.379918 0.648213 0.588460
C15   C     C_R   0.230206 0.878776 0.351792 0.554616
C16   C     C_R   0.770077 0.881332 0.648609 0.594468
O33   O     O_R   0.670190 0.410420 0.329080 -0.487657
O34   O     O_R   0.329810 0.410420 0.670920 -0.455562
O35   O     O_R   0.170190 0.910420 0.329080 -0.487374
O36   O     O_R   0.829810 0.910420 0.670920 -0.451711
O37   O     O_R   0.556610 0.252880 0.323980 -0.473299
O38   O     O_R   0.443390 0.252880 0.676020 -0.452367
O39   O     O_R   0.056610 0.752880 0.323980 -0.470016
O40   O     O_R   0.943390 0.752880 0.676020 -0.411534
C17   C     C_R   0.566111 0.152822 0.360178 0.539508
C18   C     C_R   0.471343 0.157420 0.648684 0.562689
C19   C     C_R   0.066025 0.652719 0.360234 0.538474
C20   C     C_R   0.972494 0.657118 0.649608 0.596312
O41   O     O_R   0.545950 0.051210 0.330860 -0.493903
O42   O     O_R   0.454050 0.051210 0.669140 -0.490414
O43   O     O_R   0.045950 0.551210 0.330860 -0.494619
O44   O     O_R   0.954050 0.551210 0.669140 -0.507329
O45   O     O_R   0.681390 0.959480 0.325510 -0.499558
O46   O     O_R   0.318610 0.959480 0.674490 -0.498463
O47   O     O_R   0.181390 0.459480 0.325510 -0.501418
O48   O     O_R   0.818610 0.459480 0.674490 -0.503704
C21   C     C_R   0.739539 0.974790 0.355820 0.551024
C22   C     C_R   0.258796 0.972693 0.645264 0.552094
C23   C     C_R   0.241057 0.470544 0.354472 0.550820
C24   C     C_R   0.758840 0.472764 0.645174 0.554665
Cr1   Cr    Cr6+3 0.772010 0.169670 0.250090 1.087894
Cr2   Cr    Cr6+3 0.227990 0.169670 0.749910 1.079183
Cr3   Cr    Cr6+3 0.272010 0.669670 0.250090 1.084923
Cr4   Cr    Cr6+3 0.727990 0.669670 0.749910 1.090478
Cr5   Cr    Cr6+3 0.615000 0.323260 0.249260 1.125420
Cr6   Cr    Cr6+3 0.385000 0.323260 0.750740 1.145249
Cr7   Cr    Cr6+3 0.115000 0.823260 0.249260 1.126895
Cr8   Cr    Cr6+3 0.885000 0.823260 0.750740 1.149889
Cr9   Cr    Cr6+3 0.616710 0.010760 0.250840 1.107145
Cr10  Cr    Cr6+3 0.383290 0.010760 0.749160 1.091794
Cr11  Cr    Cr6+3 0.116710 0.510760 0.250840 1.104680
Cr12  Cr    Cr6+3 0.883290 0.510760 0.749160 1.076027
O49   O     O_3   0.667900 0.167900 0.250060 -0.326675
O50   O     O_3   0.332100 0.167900 0.749940 -0.323111
O51   O     O_3   0.167900 0.667900 0.250060 -0.325403
O52   O     O_3   0.832100 0.667900 0.749940 -0.318172
H1    H     H_    0.492090 0.972032 0.066264 0.138093
H2    H     H_    0.489297 0.969510 0.940507 0.136819
H3    H     H_    0.992050 0.472043 0.066281 0.138071
H4    H     H_    0.989242 0.469501 0.940524 0.136508
C25   C     C_R   0.496451 0.163580 0.926118 0.039303
C26   C     C_R   0.500170 0.166345 0.075727 0.040025
C27   C     C_R   0.996440 0.663562 0.926122 0.040643
C28   C     C_R   0.000165 0.666356 0.075730 0.039972
C29   C     C_R   0.505374 0.275968 0.961882 -0.022725
C30   C     C_R   0.497060 0.278253 0.037680 -0.020127
C31   C     C_R   0.005385 0.775948 0.961877 -0.022582
C32   C     C_R   0.997072 0.778259 0.037673 -0.020293
C33   C     C_R   0.493938 0.058047 0.038719 -0.153535
C34   C     C_R   0.493901 0.056510 0.965807 -0.152346
C35   C     C_R   0.993909 0.558053 0.038730 -0.153604
C36   C     C_R   0.993865 0.556502 0.965818 -0.151998
C37   C     C_R   0.520328 0.386323 0.925089 0.054047
C38   C     C_R   0.486487 0.391939 0.071897 0.050998
C39   C     C_R   0.020358 0.886276 0.925067 0.054393
C40   C     C_R   0.986516 0.891966 0.071874 0.050998
C41   C     C_R   0.012914 0.996052 0.960929 -0.184444
C42   C     C_R   0.995404 0.998821 0.032629 -0.185934
C43   C     C_R   0.512891 0.496080 0.960975 -0.184344
C44   C     C_R   0.495380 0.498813 0.032674 -0.186052
H5    H     H_    0.022435 0.080989 0.933645 0.163212
H6    H     H_    0.987663 0.085951 0.057383 0.171515
H7    H     H_    0.522407 0.581034 0.933707 0.163948
H8    H     H_    0.487635 0.585929 0.057443 0.171550
C45   C     C_R   0.772630 0.861108 0.934698 0.021716
C46   C     C_R   0.242436 0.905527 0.071735 0.052293
C47   C     C_R   0.272625 0.361123 0.934697 0.021015
C48   C     C_R   0.742432 0.405519 0.071733 0.052284
C49   C     C_R   0.705256 0.863629 0.963522 0.021014
C50   C     C_R   0.305747 0.883694 0.037151 0.003358
C51   C     C_R   0.205251 0.363642 0.963522 0.020991
C52   C     C_R   0.805742 0.383685 0.037151 0.003202
C53   C     C_R   0.694689 0.897062 0.033535 0.020080
C54   C     C_R   0.311034 0.897628 0.963817 0.007086
C55   C     C_R   0.194685 0.397074 0.033535 0.020194
C56   C     C_R   0.811029 0.397612 0.963816 0.007742
C57   C     C_R   0.816412 0.942798 0.043575 -0.109103
C58   C     C_R   0.189752 0.950411 0.959078 -0.135462
C59   C     C_R   0.316406 0.442824 0.043571 -0.109100
C60   C     C_R   0.689746 0.450392 0.959075 -0.135524
C61   C     C_R   0.827708 0.905234 0.974784 -0.121185
C62   C     C_R   0.185188 0.942858 0.031502 -0.121103
C63   C     C_R   0.327701 0.405260 0.974780 -0.121769
C64   C     C_R   0.685181 0.442838 0.031499 -0.121077
C65   C     C_3   0.651843 0.766145 0.968797 -0.272851
C66   C     C_3   0.349860 0.772895 0.037540 -0.267161
C67   C     C_3   0.151836 0.266159 0.968799 -0.272939
C68   C     C_3   0.849851 0.272882 0.037544 -0.266850
C69   C     C_3   0.638870 0.804880 0.045372 -0.076195
C70   C     C_3   0.357200 0.789285 0.957487 -0.075318
C71   C     C_3   0.138864 0.304898 0.045374 -0.075922
C72   C     C_3   0.857185 0.289256 0.957491 -0.074627
C73   C     C_R   0.751154 0.928997 0.075785 0.073770
C74   C     C_R   0.251805 0.926447 0.923940 0.067765
C75   C     C_R   0.251151 0.429010 0.075783 0.073768
C76   C     C_R   0.751801 0.426435 0.923938 0.067957
H9    H     H_    0.858272 0.985724 0.070918 0.142140
H10   H     H_    0.145785 0.984447 0.930903 0.143632
H11   H     H_    0.358265 0.485756 0.070912 0.142153
H12   H     H_    0.645777 0.484427 0.930900 0.143470
H13   H     H_    0.879165 0.913677 0.952025 0.159541
H14   H     H_    0.135046 0.961910 0.055282 0.178488
H15   H     H_    0.379158 0.413710 0.952020 0.159296
H16   H     H_    0.635038 0.461883 0.055279 0.178482
H17   H     H_    0.176220 0.177062 0.962860 0.151839
H18   H     H_    0.819992 0.191729 0.054414 0.174527
H19   H     H_    0.676227 0.677048 0.962856 0.151705
H20   H     H_    0.320001 0.691738 0.054402 0.174510
H21   H     H_    0.606866 0.783381 0.933456 0.134740
H22   H     H_    0.399467 0.787090 0.066220 0.125644
H23   H     H_    0.106860 0.283394 0.933458 0.133571
H24   H     H_    0.899460 0.287078 0.066220 0.125458
H25   H     H_    0.586909 0.846307 0.053226 0.107131
H26   H     H_    0.410954 0.813530 0.940604 0.105853
H27   H     H_    0.086904 0.346332 0.053228 0.107117
H28   H     H_    0.910940 0.313481 0.940602 0.105203
C77   C     C_R   0.514205 0.161408 0.582885 0.035398
C78   C     C_R   0.557029 0.158811 0.438136 -0.028197
C79   C     C_R   0.016189 0.659975 0.583991 0.074142
C80   C     C_R   0.057169 0.658195 0.438324 -0.026480
C81   C     C_R   0.513465 0.057566 0.542453 0.084987
C82   C     C_R   0.535984 0.055469 0.473154 -0.023292
C83   C     C_R   0.014553 0.556523 0.543021 0.094033
C84   C     C_R   0.036512 0.554689 0.473446 -0.024210
C85   C     C_R   0.569417 0.261474 0.480338 -0.140110
C86   C     C_R   0.551024 0.261009 0.553971 -0.095403
C87   C     C_R   0.069702 0.760599 0.480525 -0.129912
C88   C     C_R   0.052344 0.759945 0.554409 -0.072416
C89   C     C_3   0.453579 0.977685 0.527849 -0.193766
C90   C     C_3   0.479597 0.973763 0.452101 -0.160006
C91   C     C_3   0.954467 0.476610 0.528705 -0.192288
C92   C     C_3   0.979989 0.473015 0.452728 -0.157851
H29   H     H_    0.589257 0.342089 0.455682 0.189141
H30   H     H_    0.562002 0.339261 0.586065 0.188104
H31   H     H_    0.088691 0.841288 0.455513 0.189362
H32   H     H_    0.063226 0.838601 0.585941 0.182335
H33   H     H_    0.904127 0.525007 0.534757 0.134931
H34   H     H_    0.002743 0.385845 0.435292 0.258397
H35   H     H_    0.403296 0.026354 0.533554 0.110333
H36   H     H_    0.502374 0.886463 0.434943 0.260041
H37   H     H_    0.457081 0.891077 0.557294 0.254479
H38   H     H_    0.443242 0.018378 0.414583 0.192404
H39   H     H_    0.958043 0.389701 0.557906 0.231583
H40   H     H_    0.943381 0.517673 0.415494 0.195488
C93   C     C_R   0.749257 0.936829 0.581042 0.012475
C94   C     C_R   0.248507 0.916058 0.423403 -0.015572
C95   C     C_R   0.255431 0.416625 0.575396 -0.023758
C96   C     C_R   0.748974 0.417283 0.422972 -0.016423
C97   C     C_R   0.798509 0.000490 0.539636 -0.033495
C98   C     C_R   0.194943 0.971491 0.460774 -0.032611
C99   C     C_R   0.314381 0.429839 0.532984 -0.015607
C100  C     C_R   0.696232 0.475196 0.460094 -0.027342
C101  C     C_R   0.796174 0.994636 0.467535 -0.046071
C102  C     C_R   0.193831 0.975291 0.533747 -0.059971
C103  C     C_R   0.313739 0.418029 0.459658 -0.079140
C104  C     C_R   0.695206 0.479243 0.533031 -0.056425
C105  C     C_R   0.683273 0.908851 0.471662 -0.155754
C106  C     C_R   0.299883 0.862239 0.537747 -0.173549
C107  C     C_R   0.188800 0.395796 0.467253 -0.156266
C108  C     C_R   0.799059 0.360216 0.537552 -0.160208
C109  C     C_R   0.685913 0.906334 0.547302 0.148934
C110  C     C_R   0.302962 0.860292 0.462419 0.151194
C111  C     C_R   0.191265 0.396233 0.542272 0.145099
C112  C     C_R   0.802544 0.359575 0.462151 0.168551
C113  C     C_3   0.876403 0.016878 0.532451 0.146314
C114  C     C_3   0.169662 0.097975 0.453390 0.088208
C115  C     C_3   0.359429 0.538791 0.528364 0.137757
C116  C     C_3   0.672821 0.602853 0.452686 0.083429
C117  C     C_3   0.871223 0.999313 0.452400 -0.153723
C118  C     C_3   0.166195 0.100855 0.533804 -0.172473
C119  C     C_3   0.372334 0.506209 0.451659 -0.165175
C120  C     C_3   0.669392 0.605924 0.533111 -0.174034
C121  C     C_R   0.741996 0.945692 0.431089 -0.032739
C122  C     C_R   0.247704 0.926547 0.573664 -0.030562
C123  C     C_R   0.249412 0.416534 0.425279 -0.036726
C124  C     C_R   0.747879 0.427401 0.573299 -0.028725
H41   H     H_    0.636008 0.882993 0.445007 0.192826
H42   H     H_    0.341917 0.824388 0.568351 0.180922
H43   H     H_    0.138627 0.388898 0.442087 0.190750
H44   H     H_    0.840160 0.319280 0.568212 0.156224
H45   H     H_    0.892662 0.107217 0.550919 0.181274
H46   H     H_    0.209660 0.158500 0.429091 0.113485
H47   H     H_    0.328045 0.621798 0.535778 0.122813
H48   H     H_    0.713416 0.662600 0.428603 0.111472
H49   H     H_    0.886205 0.073910 0.416753 0.234151
H50   H     H_    0.204045 0.164886 0.556628 0.139762
H51   H     H_    0.363791 0.581774 0.415368 0.224648
H52   H     H_    0.707848 0.669216 0.555864 0.139838
H53   H     H_    0.890423 0.910910 0.432486 0.174413
H54   H     H_    0.113161 0.102193 0.557677 0.239284
H55   H     H_    0.422422 0.458730 0.441666 0.201902
H56   H     H_    0.616431 0.608083 0.556979 0.249921
N1    N     N_R   0.625474 0.872535 0.588482 0.067339
O53   O     O_R   0.575632 0.811259 0.559538 -0.349770
O54   O     O_R   0.615326 0.917614 0.651560 -0.309701
N2    N     N_R   0.363733 0.810748 0.427559 0.038994
O55   O     O_R   0.409556 0.753014 0.464914 -0.377858
O56   O     O_R   0.382288 0.846269 0.363977 -0.327958
N3    N     N_R   0.128843 0.378910 0.583711 0.068725
O57   O     O_R   0.078339 0.313669 0.559205 -0.373802
O58   O     O_R   0.120447 0.433536 0.644349 -0.323683
N4    N     N_R   0.863143 0.309930 0.427256 0.052828
O59   O     O_R   0.909234 0.254263 0.465034 -0.426034
O60   O     O_R   0.882090 0.346410 0.363972 -0.326902
N5    N     N_R   0.916659 0.922617 0.564218 0.097364
O61   O     O_R   0.963435 0.952138 0.610522 -0.339253
O62   O     O_R   0.903345 0.810383 0.549228 -0.403155
N6    N     N_R   0.101619 0.107144 0.419338 0.112393
O63   O     O_R   0.094961 0.174760 0.363021 -0.296553
O64   O     O_R   0.046872 0.053734 0.446097 -0.323659
N7    N     N_R   0.421048 0.536346 0.572426 0.138495
O65   O     O_R   0.439409 0.632305 0.607168 -0.278164
O66   O     O_R   0.453733 0.436259 0.583106 -0.346148
N8    N     N_R   0.604905 0.614290 0.418714 0.111375
O67   O     O_R   0.598816 0.681939 0.362344 -0.299788
O68   O     O_R   0.550076 0.559984 0.444568 -0.310632
C125  C     C_2   0.552436 0.391269 0.852596 0.590390
O69   O     O_2   0.590480 0.309751 0.832222 -0.510608
O70   O     O_R   0.541157 0.491548 0.808661 -0.664749
H57   H     H_    0.566302 0.485026 0.761144 0.354806
C126  C     C_2   0.456224 0.404325 0.144880 0.589710
O71   O     O_2   0.416422 0.327405 0.168634 -0.508630
O72   O     O_R   0.471231 0.506578 0.185348 -0.651852
H58   H     H_    0.446903 0.505465 0.233479 0.353729
C127  C     C_2   0.052487 0.891155 0.852582 0.590856
O73   O     O_2   0.090532 0.809613 0.832245 -0.510532
O74   O     O_R   0.041222 0.991388 0.808609 -0.671126
H59   H     H_    0.066370 0.984798 0.761096 0.353350
C128  C     C_2   0.956277 0.904400 0.144863 0.589620
O75   O     O_2   0.916466 0.827513 0.168638 -0.509040
O76   O     O_R   0.971320 0.006657 0.185313 -0.651747
H60   H     H_    0.947012 0.005572 0.233455 0.353238
C129  C     C_2   0.656533 0.711999 0.101207 0.578258
O77   O     O_2   0.610462 0.671652 0.139850 -0.467942
O78   O     O_R   0.725589 0.676513 0.111016 -0.693220
H61   H     H_    0.731740 0.625553 0.155398 0.352859
C130  C     C_2   0.325992 0.690341 0.913506 0.581133
O79   O     O_2   0.360637 0.645216 0.865775 -0.466014
O80   O     O_R   0.256939 0.654512 0.924982 -0.692170
H62   H     H_    0.240193 0.595613 0.887807 0.359088
C131  C     C_2   0.156525 0.212017 0.101210 0.577972
O81   O     O_2   0.110452 0.171670 0.139850 -0.468419
O82   O     O_R   0.225581 0.176532 0.111023 -0.693252
H63   H     H_    0.231728 0.125568 0.155403 0.352727
C132  C     C_2   0.825964 0.190310 0.913523 0.580199
O83   O     O_2   0.860601 0.145166 0.865792 -0.474235
O84   O     O_R   0.756910 0.154498 0.925009 -0.691894
H64   H     H_    0.740156 0.095595 0.887841 0.358584

loop_
_geom_bond_atom_site_label_1
_geom_bond_atom_site_label_2
_geom_bond_distance
_ccdc_geom_bond_type
O4    C12   1.278858 A    
O25   C21   1.283675 A    
C58   C74   1.384367 A    
C132  O84   1.399133 S    
C59   H11   1.071076 S    
O80   H62   1.012871 S    
C45   C61   1.394800 A    
Cr7   O51   2.000409 S    
C118  H54   1.109848 S    
C68   H24   1.111398 S    
C13   C96   1.455807 S    
O39   C19   1.312509 A    
C108  H44   1.081330 S    
C27   C31   1.428723 A    
O70   H57   1.014031 S    
O21   C9    1.276529 A    
C113  N5    1.431961 S    
C84   C92   1.469528 S    
C1    O9    1.267246 A    
O44   Cr12  2.064348 S    
N4    O60   1.302160 A    
C3    O11   1.267254 A    
C12   C76   1.435019 S    
C100  C104  1.371461 A    
C119  H55   1.112674 S    
C102  C122  1.392718 A    
C15   C94   1.455998 S    
C90   H38   1.112154 S    
C57   C73   1.395157 A    
C29   C37   1.428462 A    
O2    C10   1.278862 A    
C70   C130  1.503836 S    
N1    O53   1.298726 A    
C111  N3    1.435934 S    
C58   C62   1.364955 A    
C90   H36   1.110269 S    
C91   H33   1.112179 S    
N2    O56   1.302053 A    
C113  C117  1.522000 S    
O16   Cr8   1.963135 S    
C22   C122  1.459342 S    
N7    O65   1.300526 A    
C113  H45   1.106477 S    
C105  C109  1.422868 A    
O28   Cr4   2.086777 S    
C117  H49   1.097146 S    
O12   Cr8   2.076403 S    
O22   Cr10  1.944921 S    
O15   C7    1.281644 A    
C91   C92   1.505695 S    
C115  H47   1.109195 S    
O46   Cr10  1.969367 S    
C83   C84   1.370041 A    
O14   Cr6   1.963135 S    
C66   H22   1.111398 S    
C55   C71   1.494142 S    
C56   C72   1.498310 S    
C57   C61   1.375380 A    
C80   C87   1.409292 A    
C125  O70   1.398859 S    
C60   H12   1.069900 S    
C94   C110  1.423895 A    
O31   Cr3   1.958744 S    
C83   C91   1.481676 S    
C78   C82   1.375472 A    
N7    O66   1.290966 A    
H1    C33   1.082171 S    
Cr12  O52   2.000981 S    
H3    C35   1.082178 S    
C17   O41   1.315296 A    
C47   C51   1.399212 A    
C19   O43   1.314278 A    
C30   C38   1.430885 A    
C20   O44   1.275896 A    
Cr8   O52   1.997597 S    
C119  H51   1.090475 S    
C65   H21   1.111595 S    
C10   C74   1.435009 S    
O46   C22   1.287410 A    
C79   C83   1.384424 A    
H4    C36   1.080732 S    
C4    C45   1.438318 S    
C86   H30   1.080321 S    
C66   H20   1.108830 S    
C16   O36   1.268028 A    
C67   H17   1.099012 S    
C129  O78   1.398763 S    
O27   C23   1.283438 A    
C57   H9    1.071079 S    
O31   C15   1.276984 A    
O32   C16   1.292035 A    
O47   Cr11  1.966202 S    
C43   C44   1.385908 A    
C82   C90   1.469573 S    
C29   C30   1.431993 A    
C117  H53   1.112429 S    
O5    C1    1.280961 A    
C95   C111  1.405633 A    
O24   C12   1.269511 A    
C51   C67   1.491012 S    
O8    Cr4   1.966579 S    
N5    O61   1.300100 A    
C46   C50   1.395989 A    
C49   C65   1.491008 S    
O32   Cr4   1.947934 S    
H2    C34   1.080740 S    
C2    C47   1.438316 S    
C68   H18   1.108832 S    
C67   C71   1.522013 S    
O11   Cr7   2.067269 S    
C53   C69   1.494150 S    
C58   H10   1.069895 S    
C59   C75   1.395146 A    
O27   Cr3   2.076501 S    
O3    Cr3   2.078136 S    
C42   H6    1.083456 S    
C46   C62   1.403006 A    
O8    C4    1.303589 A    
Cr5   O49   2.000409 S    
C127  O73   1.223537 D    
C106  C122  1.401080 A    
C38   C126  1.491411 S    
C69   C129  1.507034 S    
C37   C43   1.400240 A    
C32   C40   1.430902 A    
O22   C10   1.269502 A    
C4    O12   1.300816 A    
C18   C77   1.479340 S    
C2    O10   1.300812 A    
C71   C131  1.507039 S    
C11   C75   1.436990 S    
C49   C53   1.381784 A    
C131  O81   1.222123 D    
C70   H26   1.110002 S    
C51   C55   1.381777 A    
O3    C11   1.268020 A    
C60   C64   1.364958 A    
C71   H27   1.108796 S    
C130  O79   1.221398 D    
C109  N1    1.437409 S    
C120  H52   1.108406 S    
Cr1   O49   2.001387 S    
N8    O68   1.301219 A    
Cr3   O51   2.001387 S    
C24   C124  1.460688 S    
C92   H34   1.110369 S    
C25   C29   1.428785 A    
C44   H8    1.083453 S    
C17   C78   1.475362 S    
O26   Cr2   2.086777 S    
C5    O17   1.285305 A    
C112  N4    1.442245 S    
O28   C24   1.273768 A    
O14   C6    1.283431 A    
C20   C79   1.485094 S    
C8    O20   1.282710 A    
N6    O63   1.300629 A    
C110  N2    1.444192 S    
C104  C120  1.489152 S    
C69   H25   1.108784 S    
O40   Cr8   1.955022 S    
C114  N6    1.465307 S    
C98   C114  1.489909 S    
C67   H23   1.111595 S    
O41   Cr9   2.068864 S    
C104  C124  1.392873 A    
C14   C95   1.456014 S    
C102  C118  1.489679 S    
C28   C32   1.429273 A    
C96   C112  1.422453 A    
C40   C42   1.400453 A    
O5    Cr1   1.956328 S    
O35   Cr7   2.085977 S    
O29   Cr1   1.958744 S    
O76   H60   1.013999 S    
C1    C48   1.437820 S    
C97   C101  1.357913 A    
C3    C46   1.437827 S    
Cr9   O49   1.997955 S    
C40   C128  1.491391 S    
C80   C84   1.375775 A    
C18   O42   1.278088 A    
Cr11  O51   1.997955 S    
O26   C22   1.273076 A    
C33   C34   1.370266 A    
O20   Cr12  2.090569 S    
O72   H58   1.013997 S    
N3    O57   1.298832 A    
C89   C90   1.504804 S    
C103  C119  1.495541 S    
C107  H43   1.081184 S    
C100  C116  1.490842 S    
C87   H31   1.069518 S    
C26   C30   1.429236 A    
C85   H29   1.071592 S    
O30   C14   1.284294 A    
C88   H32   1.077650 S    
C72   C132  1.503826 S    
C91   H39   1.108062 S    
O74   H59   1.014036 S    
C101  C121  1.365284 A    
C89   H37   1.107338 S    
C52   C56   1.388472 A    
O42   Cr10  2.064348 S    
C81   C89   1.479518 S    
O18   Cr10  2.090569 S    
C125  O69   1.223536 D    
C95   C99   1.385933 A    
C39   C41   1.400222 A    
C105  C121  1.414161 A    
O34   Cr6   2.080126 S    
O6    Cr2   1.966579 S    
C37   C125  1.490548 S    
O24   Cr12  1.944921 S    
O30   Cr2   1.947934 S    
C65   H19   1.099015 S    
C78   C85   1.411142 A    
O48   Cr12  1.969367 S    
C115  N7    1.452167 S    
C50   C66   1.492946 S    
C66   C70   1.519308 S    
C8    C27   1.478535 S    
O82   H63   1.012518 S    
O37   C17   1.311248 A    
C56   C76   1.405495 A    
C15   O35   1.282820 A    
Cr10  O50   2.000981 S    
C54   C70   1.498307 S    
C47   C63   1.394794 A    
O40   C20   1.298680 A    
O43   Cr11  2.068864 S    
C48   C64   1.403008 A    
O37   Cr5   1.947450 S    
O84   H64   1.012872 S    
O21   Cr9   1.950694 S    
N4    O59   1.295699 A    
O39   Cr7   1.947450 S    
O45   Cr9   1.966202 S    
O78   H61   1.012518 S    
C13   O33   1.282378 A    
O13   Cr5   1.967693 S    
C106  H42   1.080377 S    
O23   Cr11  1.950694 S    
O29   C13   1.277340 A    
O15   Cr7   1.967693 S    
C103  C123  1.400974 A    
N1    O54   1.301664 A    
O23   C11   1.276524 A    
C128  O76   1.398884 S    
C19   C80   1.477084 S    
C93   C109  1.419573 A    
N2    O55   1.298851 A    
C65   C69   1.522012 S    
C52   C68   1.492938 S    
C68   C72   1.519288 S    
C21   C121  1.450159 S    
C25   C34   1.398088 A    
O6    C2    1.303585 A    
C31   C39   1.428417 A    
O1    Cr1   2.078136 S    
O19   Cr11  2.088147 S    
C92   H40   1.112089 S    
C41   C42   1.385923 A    
C89   H35   1.112087 S    
C62   H14   1.079961 S    
O45   C21   1.271132 A    
O47   C23   1.280435 A    
O13   C5    1.281663 A    
C115  C119  1.505981 S    
C87   C88   1.424584 A    
C108  C124  1.402705 A    
C85   C86   1.424609 A    
C6    O18   1.282755 A    
C28   C35   1.395396 A    
C35   C36   1.370266 A    
C53   C73   1.397343 A    
O36   Cr8   2.080126 S    
O38   Cr6   1.955022 S    
C107  C111  1.410963 A    
C132  O83   1.221389 D    
C116  N8    1.464372 S    
C54   C74   1.405492 A    
O1    C9    1.268024 A    
C38   C44   1.400429 A    
C81   C82   1.368438 A    
O7    C3    1.280959 A    
C129  O77   1.222123 D    
C72   H28   1.109998 S    
C61   H13   1.077439 S    
C59   C63   1.375366 A    
C64   H16   1.079965 S    
N3    O58   1.301742 A    
C5    C26   1.477401 S    
C63   H15   1.077431 S    
C7    C28   1.477403 S    
C45   C49   1.399207 A    
C126  O72   1.398882 S    
C108  C112  1.417798 A    
C26   C33   1.395388 A    
O33   Cr5   2.085977 S    
C93   C97   1.405699 A    
C7    O19   1.285331 A    
Cr4   O52   2.001451 S    
O2    Cr2   2.066490 S    
O48   C24   1.287472 A    
Cr6   O50   1.997597 S    
C107  C123  1.418147 A    
C114  C118  1.512331 S    
O9    Cr5   2.067269 S    
C60   C76   1.384376 A    
O16   C8    1.283456 A    
C114  H46   1.112214 S    
N6    O64   1.301727 A    
C120  H56   1.108721 S    
O7    Cr3   1.956328 S    
C128  O75   1.223689 D    
C106  C110  1.416394 A    
C99   C103  1.384921 A    
C118  H50   1.106406 S    
N5    O62   1.301724 A    
C50   C54   1.388467 A    
C94   C98   1.386601 A    
C96   C100  1.385219 A    
C31   C32   1.431977 A    
C126  O71   1.223691 D    
C105  H41   1.080837 S    
Cr2   O50   2.001451 S    
C9    C73   1.437013 S    
C127  O74   1.398834 S    
C6    C25   1.478557 S    
C79   C88   1.414649 A    
C39   C127  1.490566 S    
C77   C86   1.412955 A    
C116  C120  1.512586 S    
C27   C36   1.398085 A    
O38   C18   1.293399 A    
O25   Cr1   2.076501 S    
C77   C81   1.382033 A    
C23   C123  1.466286 S    
C116  H48   1.113410 S    
O17   Cr9   2.088147 S    
C41   H5    1.083432 S    
C14   O34   1.272944 A    
C99   C115  1.485834 S    
C16   C93   1.467173 S    
C97   C113  1.512643 S    
C131  O82   1.398763 S    
C101  C117  1.468408 S    
C130  O80   1.399132 S    
O10   Cr6   2.076403 S    
O4    Cr4   2.066490 S    
N8    O67   1.300524 A    
C98   C102  1.372022 A    
C43   H7    1.083435 S    
C48   C52   1.395977 A    
C55   C75   1.397337 A    
