data_mof_unit_15357.cif
_audit_creation_date              2012-12-11T14:38:18-0500
_audit_creation_method            fapswitch 2.2
_symmetry_space_group_name_H-M    P1
_symmetry_Int_Tables_number       1
_space_group_crystal_system       triclinic
_cell_length_a                    19.492619
_cell_length_b                    11.272591
_cell_length_c                    19.693217
_cell_angle_alpha                 89.902141
_cell_angle_beta                  96.415375
_cell_angle_gamma                 89.989346
_cell_volume                      4300.13243044

loop_
_atom_site_label
_atom_site_type_symbol
_atom_type_description
_atom_site_fract_x
_atom_site_fract_y
_atom_site_fract_z
_atom_type_partial_charge
C1    C     C_R   0.724823 0.952055 0.359602 0.531854
C2    C     C_3   0.183523 0.461881 0.473053 -0.112306
C3    C     C_2   0.609021 0.891531 0.458344 0.208021
C4    C     C_2   0.570195 0.964146 0.041688 0.271368
C5    C     C_2   0.429892 0.964276 0.958811 0.270874
C6    C     C_2   0.070194 0.464144 0.041689 0.271314
C7    C     C_2   0.929894 0.464277 0.958812 0.270561
C8    C     C_2   0.816000 0.203893 0.605445 0.187996
C9    C     C_2   0.169313 0.216065 0.397903 0.183628
C10   C     C_2   0.315977 0.702279 0.590347 0.213470
C11   C     C_2   0.684073 0.703925 0.395081 0.187077
C12   C     C_2   0.690075 0.227900 0.593910 0.213262
C13   C     C_3   0.327118 0.939447 0.529259 -0.128956
C14   C     C_2   0.296066 0.211433 0.403752 0.202685
C15   C     C_2   0.196411 0.735648 0.614382 0.222642
C16   C     C_2   0.809991 0.727881 0.406418 0.212541
C17   C     C_3   0.679086 0.953162 0.472269 -0.114593
C18   C     C_3   0.755864 0.269984 0.565247 0.018335
C19   C     C_3   0.235959 0.268709 0.435264 0.021198
C20   C     C_3   0.250263 0.771658 0.567018 0.017798
C21   C     C_3   0.744236 0.769996 0.435065 0.018728
C22   C     C_3   0.760319 0.407914 0.570256 0.000878
C23   C     C_3   0.240080 0.406717 0.429480 0.015342
C24   C     C_3   0.262257 0.908331 0.570171 0.015451
C25   C     C_R   0.276423 0.954369 0.639621 0.518123
C26   C     C_3   0.739753 0.907891 0.429736 0.002148
C27   C     C_3   0.735097 0.354453 0.440622 -0.004136
C28   C     C_3   0.265054 0.353122 0.559226 -0.005358
C29   C     C_3   0.236764 0.851543 0.441314 -0.020984
C30   C     C_3   0.765013 0.854680 0.559442 -0.004217
C31   C     C_3   0.792948 0.448671 0.451382 -0.162199
C32   C     C_3   0.210590 0.452937 0.549237 -0.165708
C33   C     C_3   0.311941 0.896257 0.456450 -0.187294
C34   C     C_3   0.707141 0.948934 0.548474 -0.161967
C35   C     C_3   0.756954 0.246323 0.486707 -0.228113
C36   C     C_R   0.225282 0.450934 0.359160 0.530727
C37   C     C_3   0.238180 0.245946 0.514284 -0.224868
C38   C     C_3   0.226244 0.745651 0.489156 -0.252177
C39   C     C_3   0.743247 0.746471 0.513663 -0.227752
C40   C     C_3   0.486709 0.301312 0.962789 -0.261389
C41   C     C_3   0.513592 0.301352 0.036981 -0.261666
C42   C     C_3   0.986712 0.801312 0.962788 -0.261385
C43   C     C_3   0.013595 0.801352 0.036981 -0.261690
C44   C     C_3   0.430256 0.098204 0.970475 -0.081659
C45   C     C_3   0.569869 0.098060 0.029700 -0.081401
C46   C     C_3   0.930258 0.598206 0.970475 -0.081837
C47   C     C_R   0.775213 0.452181 0.640351 0.530720
C48   C     C_3   0.069869 0.598059 0.029700 -0.081854
C49   C     C_3   0.558611 0.120979 0.951586 -0.239395
C50   C     C_3   0.441510 0.121301 0.048523 -0.239395
C51   C     C_3   0.058613 0.620978 0.951586 -0.239154
C52   C     C_3   0.941511 0.621304 0.048523 -0.239155
C53   C     C_R   0.536415 0.180420 0.338533 0.516905
C54   C     C_R   0.462924 0.180653 0.661041 0.513663
C55   C     C_R   0.037277 0.680566 0.339058 0.515888
C56   C     C_R   0.963309 0.680557 0.661323 0.526321
C57   C     C_3   0.485393 0.172197 0.934034 0.057489
C58   C     C_3   0.668965 0.406670 0.465029 -0.243742
C59   C     C_3   0.514765 0.172327 0.065974 0.058281
C60   C     C_3   0.985395 0.672197 0.934034 0.057863
C61   C     C_3   0.014766 0.672328 0.065974 0.057613
C62   C     C_1   0.772742 0.460308 0.911717 -0.017283
C63   C     C_1   0.227648 0.459605 0.088388 -0.018270
C64   C     C_1   0.272735 0.960287 0.911712 -0.017671
C65   C     C_1   0.727652 0.959596 0.088389 -0.017629
C66   C     C_1   0.752584 0.423812 0.038876 -0.051009
C67   C     C_1   0.247572 0.423088 0.961200 -0.051143
C68   C     C_1   0.252578 0.923794 0.038872 -0.051258
C69   C     C_3   0.332362 0.397846 0.533422 -0.243248
C70   C     C_1   0.747574 0.923081 0.961201 -0.050842
C71   C     C_1   0.761352 0.443277 0.969752 -0.063005
C72   C     C_1   0.238959 0.442513 0.030352 -0.063247
C73   C     C_1   0.261344 0.943254 0.969748 -0.063235
C74   C     C_1   0.738962 0.942503 0.030353 -0.062985
C75   C     C_1   0.746086 0.400789 0.097476 -0.002323
C76   C     C_1   0.253960 0.400231 0.902583 -0.003129
C77   C     C_1   0.246083 0.900777 0.097473 -0.003557
C78   C     C_1   0.753961 0.900228 0.902584 -0.002192
C79   C     C_R   0.725642 0.316537 0.367914 0.541249
C80   C     C_3   0.187554 0.949274 0.458546 -0.257808
C81   C     C_R   0.274601 0.315796 0.632168 0.537262
C82   C     C_R   0.225491 0.815008 0.368020 0.540511
C83   C     C_R   0.774394 0.816658 0.632153 0.539724
C84   C     C_R   0.709226 0.987922 0.154827 0.545331
C85   C     C_R   0.291060 0.988478 0.845194 0.543401
C86   C     C_R   0.209223 0.487929 0.154827 0.544140
C87   C     C_R   0.791066 0.488491 0.845195 0.545131
C88   C     C_R   0.535134 0.179426 0.139966 0.538495
C89   C     C_R   0.464957 0.179315 0.860016 0.539352
C90   C     C_R   0.035134 0.679426 0.139967 0.539062
C91   C     C_3   0.831129 0.906883 0.534946 -0.244163
C92   C     C_R   0.964958 0.679315 0.860016 0.539682
C93   C     C_R   0.736506 0.359133 0.164371 0.557932
C94   C     C_R   0.263514 0.358911 0.835665 0.556285
C95   C     C_R   0.236505 0.859129 0.164370 0.555097
C96   C     C_R   0.763513 0.858912 0.835664 0.557741
C97   C     C_1   0.483205 0.173541 0.593436 0.002522
C98   C     C_1   0.513965 0.172806 0.405246 0.008294
C99   C     C_1   0.985425 0.673175 0.594522 0.039390
C100  C     C_1   0.017202 0.673379 0.406695 0.002806
C101  C     C_1   0.502648 0.169681 0.464134 0.063393
C102  C     C_3   0.821020 0.452960 0.527579 -0.115344
C103  C     C_1   0.492982 0.170049 0.534116 0.062432
C104  C     C_1   0.007221 0.670190 0.465938 0.052482
C105  C     C_1   0.996956 0.670012 0.535715 0.075161
C106  C     C_3   0.687426 0.455072 0.537851 -0.246144
C107  C     C_3   0.315607 0.444374 0.459801 -0.243224
C108  C     C_3   0.192891 0.964075 0.535728 -0.276019
C109  C     C_3   0.812661 0.955073 0.461982 -0.246874
C110  C     C_2   0.891143 0.391314 0.541655 0.212797
C111  C     C_2   0.109325 0.416351 0.459183 0.206672
C112  C     C_2   0.400674 0.901598 0.558423 0.237664
Cr1   Cr    Cr6+3 0.765780 0.160710 0.267420 1.043325
Cr2   Cr    Cr6+3 0.383970 0.323720 0.751490 1.061126
Cr3   Cr    Cr6+3 0.116030 0.823720 0.248510 1.057141
Cr4   Cr    Cr6+3 0.883970 0.823720 0.751490 1.056893
Cr5   Cr    Cr6+3 0.234220 0.160710 0.732580 1.039734
Cr6   Cr    Cr6+3 0.265780 0.660710 0.267420 1.031780
Cr7   Cr    Cr6+3 0.734220 0.660710 0.732580 1.047331
Cr8   Cr    Cr6+3 0.612200 0.009560 0.248850 1.080700
Cr9   Cr    Cr6+3 0.387800 0.009560 0.751150 1.085680
Cr10  Cr    Cr6+3 0.112200 0.509560 0.248850 1.089370
Cr11  Cr    Cr6+3 0.887800 0.509560 0.751150 1.084848
Cr12  Cr    Cr6+3 0.616030 0.323720 0.248510 1.055548
H1    H     H_    0.686524 0.550203 0.536211 0.115945
H2    H     H_    0.168237 0.443018 0.582083 0.232838
H3    H     H_    0.346286 0.820926 0.447153 0.203766
H4    H     H_    0.665157 0.938228 0.581730 0.226466
H5    H     H_    0.433589 0.339605 0.956339 0.149536
H6    H     H_    0.566748 0.339422 0.043364 0.149333
H7    H     H_    0.933593 0.839607 0.956338 0.149601
H8    H     H_    0.066751 0.839421 0.043364 0.149436
H9    H     H_    0.520658 0.360572 0.935798 0.160919
H10   H     H_    0.479691 0.360786 0.063830 0.160433
H11   H     H_    0.020662 0.860571 0.935797 0.160796
H12   H     H_    0.324097 0.540541 0.458855 0.115805
H13   H     H_    0.979694 0.860788 0.063829 0.160850
H14   H     H_    0.377775 0.131208 0.951562 0.062929
H15   H     H_    0.622368 0.130947 0.048522 0.062767
H16   H     H_    0.877777 0.631209 0.951562 0.062518
H17   H     H_    0.122369 0.630945 0.048523 0.063013
H18   H     H_    0.402610 0.186715 0.062452 0.102991
H19   H     H_    0.597543 0.186225 0.937464 0.103797
H20   H     H_    0.902612 0.686720 0.062451 0.103680
H21   H     H_    0.097546 0.686223 0.937465 0.103618
H22   H     H_    0.567039 0.040646 0.920961 0.163608
H23   H     H_    0.183920 0.054960 0.549916 0.131527
H24   H     H_    0.433016 0.041072 0.079358 0.162716
H25   H     H_    0.067041 0.540644 0.920961 0.163643
H26   H     H_    0.933016 0.541076 0.079358 0.163397
H27   H     H_    0.628273 0.337657 0.464123 0.176269
H28   H     H_    0.370668 0.324815 0.535137 0.169721
H29   H     H_    0.133082 0.931539 0.437629 0.155512
H30   H     H_    0.871865 0.837889 0.536051 0.173699
H31   H     H_    0.647208 0.478711 0.430895 0.146244
H32   H     H_    0.356488 0.469331 0.566537 0.157583
H33   H     H_    0.206022 0.028778 0.435913 0.167521
H34   H     H_    0.813591 0.050250 0.463224 0.115414
H35   H     H_    0.852798 0.979039 0.568880 0.145668
H36   H     H_    0.333417 0.034968 0.527561 0.133741
H37   H     H_    0.661940 0.042256 0.457135 0.120282
H38   H     H_    0.838160 0.542034 0.542430 0.119874
H39   H     H_    0.175235 0.552570 0.457623 0.080133
H40   H     H_    0.322804 0.967090 0.419943 0.188018
H41   H     H_    0.731650 0.033008 0.563393 0.152915
H42   H     H_    0.768421 0.532745 0.436282 0.153518
H43   H     H_    0.235698 0.535407 0.566071 0.149257
H44   H     H_    0.725894 0.172839 0.469511 0.109124
H45   H     H_    0.810166 0.226867 0.476176 0.151907
H46   H     H_    0.268956 0.169586 0.530592 0.114738
H47   H     H_    0.169956 0.727737 0.481630 0.156097
H48   H     H_    0.774375 0.673043 0.531100 0.108222
H49   H     H_    0.919552 0.395326 0.592087 0.171713
H50   H     H_    0.080452 0.429447 0.409619 0.174893
H51   H     H_    0.425270 0.940505 0.604176 0.188664
H52   H     H_    0.580342 0.896273 0.408051 0.165819
H53   H     H_    0.601732 0.908508 0.012829 0.125337
H54   H     H_    0.398480 0.908712 0.987930 0.125318
H55   H     H_    0.101730 0.408505 0.012830 0.125220
H56   H     H_    0.184989 0.230883 0.526948 0.148179
H57   H     H_    0.898484 0.408712 0.987933 0.125674
H58   H     H_    0.645414 0.433311 0.569611 0.160183
H59   H     H_    0.354828 0.410534 0.427831 0.166197
H60   H     H_    0.147477 0.919719 0.554031 0.162891
H61   H     H_    0.854672 0.933090 0.430297 0.158222
H62   H     H_    0.861564 0.180375 0.581619 0.122627
H63   H     H_    0.124807 0.198525 0.424829 0.141603
H64   H     H_    0.349934 0.674957 0.553381 0.137195
H65   H     H_    0.638597 0.680295 0.419051 0.123518
H66   H     H_    0.685499 0.237730 0.648063 0.161242
H67   H     H_    0.255494 0.672349 0.471183 0.078017
H68   H     H_    0.294376 0.204509 0.348607 0.168812
H69   H     H_    0.206042 0.754298 0.668682 0.164462
H70   H     H_    0.814487 0.737614 0.352225 0.160979
H71   H     H_    0.690089 0.727009 0.524336 0.154124
H72   H     H_    0.834916 0.437897 0.418136 0.225051
O1    O     O_R   0.783100 0.287550 0.345460 -0.507346
O2    O     O_R   0.454350 0.284910 0.836260 -0.528828
O3    O     O_R   0.045650 0.784910 0.163740 -0.528723
O4    O     O_R   0.954350 0.784910 0.836260 -0.529191
O5    O     O_R   0.677950 0.374280 0.185410 -0.483097
O6    O     O_R   0.322050 0.374280 0.814590 -0.485051
O7    O     O_R   0.177950 0.874280 0.185410 -0.483944
O8    O     O_R   0.822050 0.874280 0.814590 -0.483188
O9    O     O_3   0.664670 0.164660 0.254930 -0.316632
O10   O     O_3   0.335330 0.164660 0.745070 -0.318478
O11   O     O_3   0.164670 0.664660 0.254930 -0.316467
O12   O     O_R   0.216900 0.287550 0.654540 -0.508959
O13   O     O_3   0.835330 0.664660 0.745070 -0.319546
O14   O     O_R   0.760020 0.037400 0.337700 -0.525159
O15   O     O_R   0.239980 0.037400 0.662300 -0.527826
O16   O     O_R   0.260020 0.537400 0.337700 -0.526592
O17   O     O_R   0.739980 0.537400 0.662300 -0.524139
O18   O     O_R   0.666600 0.921990 0.332020 -0.501250
O19   O     O_R   0.333400 0.921990 0.667980 -0.498494
O20   O     O_R   0.166600 0.421990 0.332020 -0.492618
O21   O     O_R   0.833400 0.421990 0.667980 -0.502285
O22   O     O_R   0.557260 0.082670 0.312540 -0.514101
O23   O     O_R   0.283100 0.787550 0.345460 -0.526413
O24   O     O_R   0.442740 0.082670 0.687460 -0.526230
O25   O     O_R   0.057260 0.582670 0.312540 -0.515261
O26   O     O_R   0.942740 0.582670 0.687460 -0.512702
O27   O     O_R   0.548410 0.285740 0.316480 -0.512434
O28   O     O_R   0.451590 0.285740 0.683520 -0.506239
O29   O     O_R   0.048410 0.785740 0.316480 -0.510126
O30   O     O_R   0.951590 0.785740 0.683520 -0.512912
O31   O     O_R   0.680500 0.375040 0.327000 -0.467977
O32   O     O_R   0.319500 0.375040 0.673000 -0.465759
O33   O     O_R   0.180500 0.875040 0.327000 -0.466898
O34   O     O_R   0.716900 0.787550 0.654540 -0.504479
O35   O     O_R   0.819500 0.875040 0.673000 -0.468672
O36   O     O_R   0.780350 0.286720 0.192720 -0.503174
O37   O     O_R   0.219650 0.286720 0.807280 -0.502140
O38   O     O_R   0.280350 0.786720 0.192720 -0.503829
O39   O     O_R   0.719650 0.786720 0.807280 -0.502590
O40   O     O_R   0.757470 0.036630 0.196110 -0.494779
O41   O     O_R   0.242530 0.036630 0.803890 -0.495475
O42   O     O_R   0.257470 0.536630 0.196110 -0.495261
O43   O     O_R   0.742530 0.536630 0.803890 -0.494401
O44   O     O_R   0.663840 0.921160 0.179280 -0.449175
O45   O     O_R   0.554710 0.081900 0.170950 -0.463089
O46   O     O_R   0.336160 0.921160 0.820720 -0.453650
O47   O     O_R   0.163840 0.421160 0.179280 -0.449582
O48   O     O_R   0.836160 0.421160 0.820720 -0.448783
O49   O     O_2   0.918677 0.341185 0.496853 -0.490875
O50   O     O_2   0.079693 0.367641 0.503105 -0.493340
O51   O     O_2   0.435868 0.832277 0.529534 -0.486209
O52   O     O_2   0.581884 0.840432 0.503138 -0.478536
O53   O     O_2   0.534922 0.915592 0.080969 -0.478403
O54   O     O_2   0.464989 0.915636 0.919482 -0.477118
O55   O     O_2   0.034921 0.415592 0.080971 -0.477080
O56   O     O_R   0.445290 0.081900 0.829050 -0.460899
O57   O     O_2   0.964990 0.415636 0.919482 -0.477810
O58   O     O_2   0.814737 0.176701 0.665437 -0.485889
O59   O     O_2   0.165118 0.187989 0.337591 -0.488509
O60   O     O_2   0.332188 0.677113 0.650416 -0.480829
O61   O     O_2   0.685217 0.676872 0.335106 -0.486976
O62   O     O_2   0.641465 0.186474 0.557358 -0.588037
O63   O     O_2   0.348274 0.178866 0.438539 -0.600874
O64   O     O_2   0.142781 0.685715 0.593370 -0.571309
O65   O     O_2   0.858662 0.686524 0.443015 -0.589218
O66   O     O_R   0.054710 0.581900 0.170950 -0.461658
O67   O     O_R   0.945290 0.581900 0.829050 -0.462428
O68   O     O_R   0.545650 0.284910 0.163740 -0.529680

loop_
_geom_bond_atom_site_label_1
_geom_bond_atom_site_label_2
_ccdc_geom_bond_type
Cr11  O48   S    
C112  O51   D    
Cr12  O68   S    
C40   H5    S    
C16   C21   S    
C79   O1    A    
C89   O56   A    
C46   C52   S    
C6    H55   S    
Cr1   O40   S    
C111  H50   S    
C31   H42   S    
C104  C105  S    
C28   C69   S    
C100  C104  T    
C4    H53   S    
C21   C26   S    
Cr5   O12   S    
Cr7   O43   S    
C69   C107  S    
Cr6   O11   S    
C38   H47   S    
C84   O44   A    
C58   H27   S    
C89   O2    A    
C47   O21   A    
C106  H1    S    
C88   O68   A    
C52   H20   S    
C57   C89   S    
C6    O55   D    
C37   H46   S    
C10   O60   D    
C17   C26   S    
Cr9   O19   S    
C2    C32   S    
C43   H8    S    
C84   O40   A    
Cr1   O14   S    
Cr3   O29   S    
C13   C112  S    
C27   C79   S    
C52   C61   S    
C41   H6    S    
Cr12  O9    S    
C70   C78   T    
C51   H21   S    
C95   O7    A    
C29   C33   S    
C33   H3    S    
C49   C57   S    
Cr6   O16   S    
C67   C72   S    
C32   H2    S    
C30   C83   S    
C25   O15   A    
C59   C88   S    
C106  H58   S    
C19   C37   S    
Cr7   O34   S    
C76   C94   S    
C9    C19   S    
C48   C51   S    
C82   O23   A    
C20   C24   S    
C78   C96   S    
C86   O47   A    
Cr10  O25   S    
Cr3   O7    S    
C29   C38   S    
C70   C74   S    
C10   H64   S    
C64   C73   T    
Cr2   O6    S    
C54   C97   S    
C43   H13   S    
C42   H7    S    
C24   C108  S    
C95   O38   A    
C45   C49   S    
C34   H41   S    
C93   O5    A    
C18   C35   S    
C13   H36   S    
C91   H35   S    
C55   O25   A    
C108  H23   S    
C14   H68   S    
Cr6   O42   S    
C45   H15   S    
C22   C47   S    
Cr11  O21   S    
Cr5   O41   S    
C101  C103  S    
C7    O57   D    
C67   C76   T    
C9    O59   D    
C12   O62   D    
Cr9   O10   S    
C109  H34   S    
C5    O54   D    
C28   C32   S    
C79   O31   A    
C41   H10   S    
Cr4   O8    S    
C96   O8    A    
C4    C45   S    
C60   C92   S    
C15   C20   S    
C99   C105  T    
Cr11  O26   S    
Cr2   O28   S    
C2    C111  S    
Cr7   O13   S    
C69   H32   S    
C80   H29   S    
C7    H57   S    
C81   O32   A    
C27   C31   S    
C31   C102  S    
C75   C93   S    
C25   O19   A    
C33   H40   S    
C87   O43   A    
C24   C25   S    
C41   C59   S    
C91   H30   S    
Cr5   O10   S    
C34   H4    S    
C10   C20   S    
C88   O45   A    
C30   C34   S    
C107  H59   S    
Cr10  O66   S    
Cr9   O56   S    
C90   O3    A    
C27   C35   S    
C68   C73   S    
C22   C106  S    
Cr3   O3    S    
C77   C95   S    
C8    C18   S    
C65   C74   T    
Cr2   O10   S    
C13   C24   S    
Cr4   O30   S    
C42   H11   S    
C58   C106  S    
Cr1   O9    S    
C55   C100  S    
C19   C23   S    
C7    C46   S    
C13   C33   S    
C39   H48   S    
C20   C38   S    
Cr6   O38   S    
C54   O28   A    
C66   C71   S    
C21   C39   S    
Cr12  O27   S    
Cr5   O37   S    
C44   C57   S    
C102  H38   S    
Cr5   O15   S    
C23   C107  S    
C6    C48   S    
C30   C91   S    
C35   H44   S    
C93   O36   A    
Cr11  O67   S    
C39   H71   S    
C26   C109  S    
C80   H33   S    
C97   C103  T    
C17   H37   S    
Cr8   O44   S    
C81   O12   A    
C94   O6    A    
C16   O65   D    
C53   O22   A    
C110  O49   D    
Cr7   O39   S    
C40   C41   S    
C5    C44   S    
C36   O16   A    
Cr7   O17   S    
Cr10  O20   S    
Cr4   O35   S    
Cr2   O2    S    
C1    C26   S    
C35   H45   S    
Cr9   O24   S    
C102  C110  S    
C17   C34   S    
C50   C59   S    
C42   C60   S    
C11   O61   D    
C64   C85   S    
C1    O18   A    
Cr12  O31   S    
C61   C90   S    
C43   C61   S    
Cr1   O36   S    
C46   H16   S    
C62   C87   S    
C110  H49   S    
C44   C50   S    
C68   C77   T    
C37   H56   S    
Cr8   O9    S    
C45   C59   S    
C44   H14   S    
C40   C57   S    
C49   H19   S    
C46   C60   S    
C1    O14   A    
C18   C22   S    
C69   H28   S    
C14   C19   S    
C82   O33   A    
Cr10  O11   S    
Cr8   O22   S    
C65   C84   S    
Cr4   O13   S    
C2    H39   S    
C4    O53   D    
C94   O37   A    
C54   O24   A    
Cr10  O47   S    
C51   C60   S    
C83   O34   A    
C53   C98   S    
C53   O27   A    
C98   C101  T    
C12   H66   S    
C40   H9    S    
C80   C108  S    
C49   H22   S    
C22   C102  S    
C56   O30   A    
Cr12  O5    S    
C14   O63   D    
C8    H62   S    
C55   O29   A    
C108  H60   S    
C28   C81   S    
C29   C82   S    
C63   C86   S    
C36   O20   A    
Cr3   O11   S    
C56   O26   A    
C91   C109  S    
C87   O48   A    
C31   H72   S    
C29   C80   S    
C83   O35   A    
C28   C37   S    
C27   C58   S    
C111  O50   D    
Cr4   O4    S    
C66   C75   T    
Cr11  O13   S    
C8    O58   D    
C85   O46   A    
C86   O42   A    
C96   O39   A    
C11   C21   S    
C62   C71   T    
C3    C17   S    
C47   O17   A    
C85   O41   A    
Cr8   O45   S    
C90   O66   A    
C5    H54   S    
Cr3   O33   S    
C92   O67   A    
C16   H70   S    
C58   H31   S    
C48   H17   S    
Cr2   O32   S    
C15   H69   S    
C3    H52   S    
C109  H61   S    
C112  H51   S    
C63   C72   T    
C51   H25   S    
C52   H26   S    
C23   C36   S    
C42   C43   S    
C32   H43   S    
C12   C18   S    
C2    C23   S    
C38   H67   S    
C48   C61   S    
Cr1   O1    S    
C50   H24   S    
C9    H63   S    
Cr9   O46   S    
C56   C99   S    
C11   H65   S    
C3    O52   D    
C92   O4    A    
Cr8   O18   S    
C15   O64   D    
C50   H18   S    
C30   C39   S    
Cr6   O23   S    
C107  H12   S    
