data_mof_unit_34235.cif
_audit_creation_date              2012-12-10T17:47:03-0500
_audit_creation_method            fapswitch 2.2
_symmetry_space_group_name_H-M    P1
_symmetry_Int_Tables_number       1
_space_group_crystal_system       triclinic
_cell_length_a                    10.011693
_cell_length_b                    10.757605
_cell_length_c                    13.61394
_cell_angle_alpha                 93.897838
_cell_angle_beta                  82.363577
_cell_angle_gamma                 87.554097
_cell_volume                      1447.89728819

loop_
_atom_site_label
_atom_site_type_symbol
_atom_type_description
_atom_site_fract_x
_atom_site_fract_y
_atom_site_fract_z
_atom_type_partial_charge
C1    C     C_R   0.496108 0.739947 0.498754 0.912135
C2    C     C_1   0.455247 0.497682 0.789099 -0.191119
C3    C     C_R   0.246547 0.909284 0.575206 -0.219855
C4    C     C_R   0.147975 0.988346 0.634932 0.146025
C5    C     C_R   0.182961 0.104658 0.671223 -0.138349
C6    C     C_R   0.308075 0.148243 0.637443 -0.174577
C7    C     C_R   0.399848 0.075903 0.565497 0.069386
C8    C     C_R   0.378077 0.949887 0.545295 0.031074
C9    C     C_R   0.487504 0.873189 0.492401 -0.170513
C10   C     C_R   0.598635 0.925762 0.439691 0.095072
C11   C     C_R   0.607032 0.053699 0.445240 0.034152
C12   C     C_R   0.475021 0.499678 0.685335 0.878520
C13   C     C_R   0.508148 0.128506 0.508790 -0.165198
C14   C     C_R   0.836662 0.638395 0.661309 0.149703
C15   C     C_R   0.897150 0.676254 0.744995 -0.297243
C16   C     C_R   0.036056 0.672467 0.740595 0.108544
C17   C     C_R   0.113383 0.628255 0.652552 -0.162106
C18   C     C_R   0.057655 0.563581 0.576357 0.015299
C19   C     C_R   0.913282 0.565176 0.578197 0.115643
C20   C     C_R   0.944532 0.441259 0.424892 0.098430
C21   C     C_R   0.086751 0.436751 0.426569 0.245284
C22   C     C_R   0.502837 0.260815 0.502059 0.861009
C23   C     C_R   0.524934 0.499410 0.314620 0.898937
C24   C     C_1   0.544704 0.499866 0.210745 -0.210512
C25   C     C_2   0.560568 0.500901 0.018485 0.198914
C26   C     C_2   0.443259 0.493792 0.981053 0.094930
C27   C     C_1   0.444031 0.495731 0.876858 -0.027272
C28   C     C_1   0.556975 0.500376 0.122849 0.030750
H1    H     H_    0.836343 0.725817 0.808579 0.139961
H2    H     H_    0.216300 0.651489 0.643400 0.206242
H3    H     H_    0.213405 0.822612 0.546055 0.169945
H4    H     H_    0.110165 0.164676 0.720780 0.144109
H5    H     H_    0.329928 0.241092 0.664501 0.157990
N1    N     N_R   0.857120 0.501200 0.500900 -0.136109
N2    N     N_R   0.142720 0.501280 0.500940 -0.128418
O1    O     O_R   0.385310 0.683220 0.500000 -0.655290
O2    O     O_R   0.614640 0.683250 0.500010 -0.569881
O3    O     O_R   0.368830 0.499960 0.640340 -0.631447
O4    O     O_R   0.598160 0.499980 0.640350 -0.587468
O5    O     O_R   0.385360 0.316750 0.499990 -0.620233
O6    O     O_R   0.614690 0.316780 0.500000 -0.633273
O7    O     O_R   0.401840 0.500020 0.359650 -0.606210
O8    O     O_R   0.631170 0.500040 0.359660 -0.631929
Zn1   Zn    Zn3+2 0.346870 0.499980 0.499990 0.923953
Zn2   Zn    Zn3+2 0.653130 0.500020 0.500010 0.940494
N3    N     N_3   0.317574 0.484425 0.044054 -0.467638
H6    H     H_    0.253026 0.559549 0.032732 0.192606
H7    H     H_    0.274445 0.402550 0.020817 0.185408
N4    N     N_3   0.711318 0.702559 0.655131 -0.369771
H8    H     H_    0.648487 0.701587 0.722960 0.163189
H9    H     H_    0.730194 0.796088 0.644954 0.168214
N5    N     N_3   0.100377 0.723391 0.821465 -0.454149
H10   H     H_    0.028234 0.754888 0.881733 0.180818
H11   H     H_    0.151146 0.801297 0.797949 0.174844
C29   C     C_3   0.174329 0.362294 0.342253 -0.776164
H12   H     H_    0.265199 0.319640 0.365882 0.267930
H13   H     H_    0.121434 0.281970 0.313181 0.215595
H14   H     H_    0.201837 0.422640 0.280502 0.239252
C30   C     C_3   0.694641 0.512028 0.955127 -0.912655
H15   H     H_    0.778220 0.515656 0.001246 0.241229
H16   H     H_    0.715778 0.430468 0.899823 0.250169
H17   H     H_    0.692190 0.598862 0.915718 0.236734
N6    N     N_3   0.699864 0.848365 0.375928 -0.427107
H18   H     H_    0.793847 0.863997 0.398722 0.204432
H19   H     H_    0.701843 0.874353 0.303138 0.193785
N7    N     N_3   0.010423 0.954870 0.655313 -0.467322
H20   H     H_    0.996109 0.870658 0.616167 0.184038
H21   H     H_    0.989744 0.942296 0.731143 0.177024
N8    N     N_3   0.715497 0.104855 0.383695 -0.474298
H22   H     H_    0.675702 0.168513 0.339167 0.180066
H23   H     H_    0.778687 0.148012 0.429267 0.217171
N9    N     N_3   0.894277 0.386726 0.339394 -0.470020
H24   H     H_    0.866617 0.458909 0.297448 0.213611
H25   H     H_    0.810243 0.337507 0.362672 0.223512

loop_
_geom_bond_atom_site_label_1
_geom_bond_atom_site_label_2
_ccdc_geom_bond_type
C7    C13   A    
N7    H21   S    
C23   C24   S    
C11   N8    S    
C30   H15   S    
O3    Zn1   S    
C6    C7    A    
N2    Zn1   S    
C15   H1    S    
C11   C13   A    
C9    C10   A    
C10   N6    S    
C6    H5    S    
C1    O2    A    
O4    Zn2   S    
C5    H4    S    
C2    C12   S    
C29   H12   S    
N6    H19   S    
C17   C18   A    
C20   N1    A    
C7    C8    A    
N1    Zn2   S    
N3    H6    S    
N5    H10   S    
C25   C28   S    
C3    H3    S    
C17   H2    S    
O8    Zn2   S    
C26   C27   S    
C2    C27   T    
C23   O7    A    
O7    Zn1   S    
C12   O4    A    
C21   N2    A    
C4    C5    A    
N5    H11   S    
C13   C22   S    
N7    H20   S    
N8    H22   S    
C29   H13   S    
C12   O3    A    
C5    C6    A    
N4    H8    S    
N3    H7    S    
O1    Zn1   S    
C22   O6    A    
C30   H16   S    
C10   C11   A    
C26   N3    S    
O2    Zn2   S    
C15   C16   A    
C14   N4    S    
C16   C17   A    
C24   C28   T    
O5    Zn1   S    
C1    C9    S    
C20   C21   A    
C4    N7    S    
N9    H25   S    
C3    C8    A    
C18   N2    A    
C29   H14   S    
C16   N5    S    
N8    H23   S    
C18   C19   A    
O6    Zn2   S    
C22   O5    A    
N9    H24   S    
C21   C29   S    
C25   C30   S    
N4    H9    S    
C25   C26   D    
C14   C15   A    
C23   O8    A    
C14   C19   A    
C20   N9    S    
C3    C4    A    
N6    H18   S    
C1    O1    A    
C8    C9    A    
C30   H17   S    
C19   N1    A    
