data_mof_unit_15789.cif
_audit_creation_date              2012-10-26T18:26:36-0400
_audit_creation_method            fapswitch 2.2
_symmetry_space_group_name_H-M    P1
_symmetry_Int_Tables_number       1
_space_group_crystal_system       triclinic
_cell_length_a                    15.843605
_cell_length_b                    8.693524
_cell_length_c                    7.4518
_cell_angle_alpha                 103.003275
_cell_angle_beta                  93.996231
_cell_angle_gamma                 92.22143
_cell_volume                      996.069675519

loop_
_atom_site_label
_atom_site_type_symbol
_atom_type_description
_atom_site_fract_x
_atom_site_fract_y
_atom_site_fract_z
_atom_type_partial_charge
C1    C     C_R   0.497482 0.199739 0.453273 0.547927
C2    C     C_3   0.976609 0.552046 0.667173 0.258657
C3    C     C_1   0.250565 0.500660 0.508140 -0.004275
C4    C     C_1   0.749435 0.499339 0.491860 -0.004275
C5    C     C_3   0.028068 0.404722 0.610098 -0.123112
C6    C     C_3   0.971932 0.595278 0.389902 -0.123116
C7    C     C_3   0.083398 0.501213 0.507253 0.044287
C8    C     C_3   0.916602 0.498787 0.492747 0.044287
C9    C     C_1   0.175062 0.501053 0.509335 -0.002086
C10   C     C_1   0.824938 0.498947 0.490665 -0.002086
C11   C     C_R   0.502518 0.800261 0.546727 0.547927
C12   C     C_R   0.339995 0.499906 0.502615 0.548898
C13   C     C_R   0.660005 0.500094 0.497385 0.548898
C14   C     C_2   0.496275 0.031848 0.427028 -0.150528
C15   C     C_2   0.503725 0.968152 0.572972 -0.150528
C16   C     C_3   0.967171 0.350152 0.431483 -0.125532
C17   C     C_3   0.032829 0.649848 0.568517 -0.125533
C18   C     C_3   0.023391 0.447953 0.332827 0.258651
Cu1   Cu    Cu3+1 0.509330 0.517380 0.684380 0.977505
Cu2   Cu    Cu3+1 0.490670 0.482620 0.315620 0.977505
H1    H     H_    0.939686 0.228473 0.371676 0.121505
H2    H     H_    0.001681 0.632994 0.927458 0.331342
H3    H     H_    0.060314 0.771527 0.628323 0.121505
H4    H     H_    0.948296 0.670153 0.296697 0.135598
H5    H     H_    0.051703 0.329847 0.703303 0.135599
H6    H     H_    0.489250 0.960284 0.286360 0.136734
H7    H     H_    0.510750 0.039716 0.713640 0.136734
H8    H     H_    0.434444 0.377566 0.948783 0.242778
H9    H     H_    0.565556 0.622434 0.051217 0.242778
H10   H     H_    0.998319 0.367019 0.072544 0.331345
N1    N     N_2   0.476600 0.456420 0.038510 -0.254051
N2    N     N_2   0.523400 0.543580 0.961490 -0.254051
O1    O     O_R   0.506070 0.286130 0.619780 -0.507175
O2    O     O_3   0.949245 0.606944 0.843445 -0.692525
O3    O     O_R   0.493930 0.713870 0.380220 -0.507175
O4    O     O_R   0.490300 0.256770 0.308360 -0.497260
O5    O     O_R   0.509700 0.743230 0.691640 -0.497260
O6    O     O_R   0.386960 0.514660 0.655680 -0.503019
O7    O     O_R   0.613040 0.485340 0.344320 -0.503019
O8    O     O_R   0.371190 0.485310 0.344260 -0.485666
O9    O     O_R   0.628810 0.514690 0.655740 -0.485666
O10   O     O_3   0.050755 0.393056 0.156554 -0.692523

loop_
_geom_bond_atom_site_label_1
_geom_bond_atom_site_label_2
_ccdc_geom_bond_type
C12   O8    A    
C16   H1    S    
C3    C9    T    
Cu1   O6    S    
C1    C14   S    
C15   H7    S    
N1    N2    D    
Cu2   O8    S    
C7    C18   S    
C6    H4    S    
C2    O2    S    
C13   O9    A    
C1    O1    A    
C6    C17   S    
C8    C16   S    
C14   H6    S    
C2    C17   S    
Cu1   O9    S    
C17   H3    S    
C5    H5    S    
Cu1   N2    S    
C8    C10   S    
H9    N2    S    
C5    C7    S    
C18   O10   S    
C12   O6    A    
H2    O2    S    
C6    C18   S    
C13   O7    A    
C2    C5    S    
C4    C10   T    
Cu2   O4    S    
C7    C9    S    
C16   C18   S    
Cu1   O1    S    
C4    C13   S    
C11   O5    A    
Cu2   O7    S    
C14   C15   D    
H10   O10   S    
C5    C16   S    
C6    C8    S    
C3    C12   S    
Cu1   O5    S    
Cu2   O3    S    
C11   C15   S    
C11   O3    A    
H8    N1    S    
C2    C8    S    
Cu1   Cu2   S    
C1    O4    A    
C7    C17   S    
Cu2   N1    S    
