data_mof_unit_12185.cif
_audit_creation_date              2012-12-11T15:57:46-0500
_audit_creation_method            fapswitch 2.2
_symmetry_space_group_name_H-M    P1
_symmetry_Int_Tables_number       1
_space_group_crystal_system       triclinic
_cell_length_a                    10.705846
_cell_length_b                    10.767935
_cell_length_c                    16.990058
_cell_angle_alpha                 99.693463
_cell_angle_beta                  99.420636
_cell_angle_gamma                 61.460997
_cell_volume                      1688.20499835

loop_
_atom_site_label
_atom_site_type_symbol
_atom_type_description
_atom_site_fract_x
_atom_site_fract_y
_atom_site_fract_z
_atom_type_partial_charge
C1    C     C_R   0.355649 0.774886 0.401436 0.542470
C2    C     C_2   0.815767 0.334985 0.155990 -0.132006
C3    C     C_2   0.821978 0.224799 0.187793 -0.030091
C4    C     C_2   0.823880 0.226904 0.275496 0.161950
C5    C     C_2   0.338404 0.843312 0.330869 -0.089541
C6    C     C_2   0.348934 0.812306 0.154679 0.270087
C7    C     C_2   0.448065 0.829041 0.210388 -0.022578
C8    C     C_2   0.455318 0.805836 0.293878 -0.157078
C9    C     C_2   0.311365 0.318461 0.645598 0.194185
C10   C     C_2   0.337488 0.340468 0.826777 -0.175150
C11   C     C_2   0.438951 0.242457 0.779963 -0.013033
C12   C     C_R   0.369187 0.345865 0.357492 0.563206
C13   C     C_2   0.407112 0.214356 0.691332 -0.015096
C14   C     C_1   0.813419 0.343677 0.709382 -0.043311
C15   C     C_1   0.840962 0.314621 0.776942 -0.029807
C16   C     C_1   0.358755 0.763149 0.713528 -0.012603
C17   C     C_1   0.326252 0.810607 0.780524 -0.013643
C18   C     C_R   0.889715 0.309448 0.085288 0.558858
C19   C     C_R   0.318239 0.298595 0.120079 0.519212
C20   C     C_R   0.295299 0.889416 0.083247 0.552158
C21   C     C_R   0.884514 0.297323 0.858961 0.537544
C22   C     C_R   0.309939 0.294501 0.895208 0.518987
C23   C     C_R   0.777195 0.375515 0.404075 0.586279
C24   C     C_R   0.280711 0.880677 0.857269 0.539994
C25   C     C_R   0.381402 0.713647 0.631285 0.549318
C26   C     C_R   0.365856 0.345491 0.580497 0.561349
C27   C     C_R   0.770681 0.382339 0.630236 0.510790
C28   C     C_1   0.342077 0.334636 0.274272 -0.005516
C29   C     C_1   0.330299 0.324722 0.203402 -0.036172
C30   C     C_2   0.854295 0.319514 0.331235 -0.015259
Cr1   Cr    Cr6+3 0.608020 0.610770 0.522990 1.074195
Cr2   Cr    Cr6+3 0.289390 0.599570 0.488050 1.088723
Cr3   Cr    Cr6+3 0.602610 0.289690 0.489020 1.061687
Cr4   Cr    Cr6+3 0.053780 0.052210 0.965970 1.091200
Cr5   Cr    Cr6+3 0.060060 0.372530 0.992430 1.055524
Cr6   Cr    Cr6+3 0.372600 0.061970 0.991430 1.131176
H1    H     H_    0.246835 0.432970 0.805091 0.182225
H2    H     H_    0.788823 0.436364 0.191781 0.110484
H3    H     H_    0.561821 0.747462 0.323543 0.157871
H4    H     H_    0.231555 0.904590 0.302710 0.132901
O1    O     O_R   0.749250 0.499990 0.439200 -0.468530
O2    O     O_R   0.299400 0.468710 0.556310 -0.459021
O3    O     O_R   0.489240 0.256450 0.560730 -0.523956
O4    O     O_R   0.723350 0.306730 0.584410 -0.489104
O5    O     O_3   0.500010 0.500010 0.500020 -0.298278
O6    O     O_R   0.170650 0.915100 0.051290 -0.501849
O7    O     O_R   0.941960 0.184500 0.049060 -0.467271
O8    O     O_R   0.922640 0.402670 0.071640 -0.489102
O9    O     O_R   0.196880 0.368740 0.083740 -0.520314
O10   O     O_R   0.411120 0.181190 0.091480 -0.462796
O11   O     O_R   0.364220 0.944920 0.062310 -0.479521
O12   O     O_R   0.477870 0.725740 0.440280 -0.499094
O13   O     O_R   0.158740 0.906940 0.874970 -0.493618
O14   O     O_R   0.930920 0.176940 0.885610 -0.483340
O15   O     O_R   0.910730 0.394510 0.895320 -0.499002
O16   O     O_R   0.185840 0.361180 0.920280 -0.500756
O17   O     O_R   0.399210 0.173040 0.915160 -0.462782
O18   O     O_R   0.353170 0.937370 0.898860 -0.478972
O19   O     O_3   0.162150 0.162240 0.983280 -0.284345
O20   O     O_R   0.260770 0.742210 0.412610 -0.506530
O21   O     O_R   0.297990 0.466320 0.394220 -0.473139
O22   O     O_R   0.487720 0.253870 0.385870 -0.491678
O23   O     O_R   0.721940 0.304340 0.422320 -0.463006
O24   O     O_R   0.750770 0.502570 0.614050 -0.512400
O25   O     O_R   0.479280 0.728140 0.602370 -0.486519
O26   O     O_R   0.262290 0.744790 0.587460 -0.495353
C31   C     C_2   0.808949 0.104201 0.135900 0.334858
H5    H     H_    0.856725 0.000130 0.157030 0.133591
O27   O     O_2   0.738385 0.122158 0.070722 -0.477308
C32   C     C_2   0.489861 0.070927 0.648354 0.284557
H6    H     H_    0.433613 0.026965 0.602972 0.091120
O28   O     O_2   0.619985 0.006835 0.657906 -0.426531
O29   O     O_3   0.189000 0.431101 0.673559 -0.579748
C33   C     C_3   0.086683 0.383699 0.671385 -0.107453
H7    H     H_    0.125148 0.293831 0.708392 0.097249
H8    H     H_    0.054452 0.353044 0.608490 0.138048
H9    H     H_    0.991260 0.472869 0.697332 0.191710
O30   O     O_3   0.771526 0.143339 0.297690 -0.541751
C34   C     C_3   0.887374 0.023983 0.330764 -0.086919
H10   H     H_    0.939142 0.055540 0.387174 0.122222
H11   H     H_    0.968547 0.960177 0.287448 0.106881
H12   H     H_    0.846247 0.954557 0.345601 0.153253
C35   C     C_2   0.959561 0.366486 0.319291 0.152092
H13   H     H_    0.027968 0.314710 0.270820 0.093249
O31   O     O_2   0.973886 0.460559 0.364646 -0.478017
C36   C     C_2   0.563698 0.855257 0.191664 0.225560
H14   H     H_    0.604247 0.915793 0.236004 0.125196
O32   O     O_2   0.621518 0.801217 0.129740 -0.475020
O33   O     O_3   0.267205 0.756482 0.174969 -0.598224
C37   C     C_3   0.299882 0.625879 0.128308 -0.092298
H15   H     H_    0.410610 0.544899 0.145864 0.124144
H16   H     H_    0.284662 0.635450 0.062794 0.126621
H17   H     H_    0.224672 0.589738 0.140259 0.169087
C38   C     C_2   0.583242 0.155306 0.820477 0.333647
H18   H     H_    0.634270 0.208298 0.863129 0.105445
O34   O     O_2   0.639999 0.025670 0.812225 -0.416473

loop_
_geom_bond_atom_site_label_1
_geom_bond_atom_site_label_2
_ccdc_geom_bond_type
C2    C18   S    
Cr3   O5    S    
O29   C33   S    
Cr1   O12   S    
Cr6   O19   S    
C18   O7    A    
C22   O17   A    
C21   O15   A    
C7    C8    S    
C10   C22   S    
C33   H8    S    
C12   C28   S    
C10   H1    S    
C1    C5    S    
C28   C29   T    
Cr2   O21   S    
C20   O11   A    
Cr6   O18   S    
C21   O14   A    
C36   O32   D    
C7    C36   S    
C13   C32   S    
Cr5   O19   S    
Cr2   O5    S    
C30   C35   S    
C2    H2    S    
C9    C13   D    
C27   O4    A    
Cr3   O22   S    
C33   H9    S    
Cr5   O9    S    
C32   H6    S    
Cr4   O6    S    
C8    H3    S    
C14   C27   S    
C23   O23   A    
C9    O29   S    
Cr5   O8    S    
C9    C26   S    
C17   C24   S    
C33   H7    S    
Cr5   O15   S    
C31   H5    S    
Cr3   O3    S    
C23   C30   S    
C25   O25   A    
Cr6   O17   S    
C10   C11   D    
C1    O20   A    
C34   H11   S    
C36   H14   S    
C16   C17   T    
C22   O16   A    
C24   O13   A    
C31   O27   D    
C4    O30   S    
C34   H12   S    
C12   O22   A    
C19   O9    A    
C37   H16   S    
C35   H13   S    
Cr3   O23   S    
C38   O34   D    
Cr6   O11   S    
C11   C38   S    
C26   O3    A    
C35   O31   D    
Cr4   O14   S    
Cr4   O19   S    
Cr2   O20   S    
C3    C4    S    
C19   C29   S    
Cr6   O10   S    
C26   O2    A    
C37   H17   S    
Cr2   O26   S    
C16   C25   S    
Cr1   O25   S    
Cr1   O1    S    
Cr5   O16   S    
O30   C34   S    
Cr3   O4    S    
Cr1   O24   S    
C3    C31   S    
C25   O26   A    
C18   O8    A    
C5    C8    D    
C6    C7    D    
C6    O33   S    
C6    C20   S    
C23   O1    A    
C2    C3    D    
C12   O21   A    
C11   C13   S    
C19   O10   A    
C37   H15   S    
C38   H18   S    
C1    O12   A    
C4    C30   D    
C27   O24   A    
C34   H10   S    
C15   C21   S    
Cr4   O13   S    
C24   O18   A    
Cr1   O5    S    
C5    H4    S    
Cr2   O2    S    
C14   C15   T    
C32   O28   D    
Cr4   O7    S    
O33   C37   S    
C20   O6    A    
