data_mof_unit_51082.cif
_audit_creation_date              2012-10-26T20:17:41-0400
_audit_creation_method            fapswitch 2.2
_symmetry_space_group_name_H-M    P1
_symmetry_Int_Tables_number       1
_space_group_crystal_system       triclinic
_cell_length_a                    27.777504
_cell_length_b                    8.695092
_cell_length_c                    7.41474
_cell_angle_alpha                 102.366491
_cell_angle_beta                  94.060299
_cell_angle_gamma                 92.405567
_cell_volume                      1741.92129878

loop_
_atom_site_label
_atom_site_type_symbol
_atom_type_description
_atom_site_fract_x
_atom_site_fract_y
_atom_site_fract_z
_atom_type_partial_charge
C1    C     C_R   0.497737 0.200206 0.455072 0.579238
C2    C     C_R   0.869279 0.357801 0.441860 0.024598
C3    C     C_R   0.354658 0.499679 0.509001 0.015627
C4    C     C_R   0.645340 0.500313 0.490988 0.015555
C5    C     C_R   0.971587 0.354242 0.455718 0.018663
C6    C     C_R   0.028416 0.645646 0.544240 0.018668
C7    C     C_R   0.977107 0.646096 0.535622 0.019201
C8    C     C_R   0.022896 0.353791 0.464375 0.019203
C9    C     C_R   0.949041 0.500384 0.491895 0.034932
C10   C     C_R   0.050962 0.499503 0.508082 0.034935
C11   C     C_R   0.941693 0.213006 0.411465 -0.146283
C12   C     C_R   0.502263 0.799794 0.544929 0.579245
C13   C     C_R   0.058309 0.786883 0.588431 -0.146270
C14   C     C_R   0.891692 0.215162 0.405030 -0.111676
C15   C     C_R   0.108310 0.784729 0.594844 -0.111671
C16   C     C_R   0.407486 0.499904 0.502761 0.557654
C17   C     C_R   0.592513 0.500098 0.497239 0.557639
C18   C     C_R   0.047436 0.212052 0.431016 -0.145795
C19   C     C_R   0.952568 0.787834 0.569045 -0.145810
C20   C     C_2   0.489201 0.035194 0.436986 0.043678
C21   C     C_2   0.510799 0.964806 0.563015 0.043681
C22   C     C_R   0.175931 0.357950 0.483969 0.399917
C23   C     C_R   0.102274 0.499076 0.515347 -0.026633
C24   C     C_R   0.824074 0.641940 0.516067 0.399863
C25   C     C_R   0.181248 0.639082 0.561619 0.403118
C26   C     C_R   0.818753 0.360809 0.438285 0.403108
C27   C     C_R   0.274488 0.477127 0.349378 -0.048998
C28   C     C_R   0.725526 0.524146 0.650697 -0.049013
C29   C     C_R   0.324508 0.478079 0.343980 -0.121733
C30   C     C_R   0.675507 0.523222 0.656103 -0.121837
C31   C     C_R   0.333825 0.520648 0.679425 -0.129497
C32   C     C_R   0.666153 0.478003 0.320448 -0.129678
C33   C     C_R   0.283719 0.520153 0.684366 -0.047752
C34   C     C_R   0.897729 0.500811 0.484628 -0.026628
C35   C     C_R   0.716258 0.478428 0.315498 -0.047869
C36   C     C_R   0.254028 0.498198 0.519335 0.245062
C37   C     C_R   0.745969 0.501705 0.480624 0.244884
C38   C     C_R   0.125306 0.355651 0.479240 0.023956
C39   C     C_R   0.874698 0.644235 0.520793 0.023970
C40   C     C_R   0.097505 0.213379 0.438166 -0.116087
C41   C     C_R   0.902500 0.786506 0.561914 -0.116099
C42   C     C_R   0.130723 0.642090 0.558054 0.024577
Cu1   Cu    Cu3+1 0.505380 0.517380 0.684380 1.026152
Cu2   Cu    Cu3+1 0.494620 0.482620 0.315620 1.026126
H1    H     H_    0.356160 0.537620 0.808714 0.142700
H2    H     H_    0.339489 0.461729 0.210697 0.138921
H3    H     H_    0.748477 0.541760 0.778579 0.128478
H4    H     H_    0.251547 0.460548 0.221585 0.128196
H5    H     H_    0.870599 0.103604 0.371073 0.173763
H6    H     H_    0.129402 0.896288 0.628755 0.173752
H7    H     H_    0.955473 0.097409 0.380323 0.106363
H8    H     H_    0.044529 0.902482 0.619526 0.106340
H9    H     H_    0.029269 0.096681 0.398422 0.103992
H10   H     H_    0.970735 0.903205 0.601691 0.104012
H11   H     H_    0.643805 0.459983 0.191077 0.143075
H12   H     H_    0.462455 0.378135 0.948550 0.248714
H13   H     H_    0.537545 0.621866 0.051450 0.248740
H14   H     H_    0.267928 0.536557 0.816085 0.127778
H15   H     H_    0.732028 0.460962 0.183677 0.128161
H16   H     H_    0.114363 0.101491 0.410494 0.165040
H17   H     H_    0.885642 0.898395 0.589633 0.165069
H18   H     H_    0.660542 0.540658 0.789486 0.138990
I1    I     I_    0.432965 0.929444 0.227281 -0.283190
I2    I     I_    0.567033 0.070556 0.772727 -0.283417
N1    N     N_R   0.202633 0.498368 0.523669 -0.403553
N2    N     N_R   0.797368 0.501524 0.476297 -0.403515
N3    N     N_2   0.486510 0.456430 0.038510 -0.241113
N4    N     N_2   0.513490 0.543570 0.961490 -0.241101
O1    O     O_R   0.503500 0.286120 0.619780 -0.496415
O2    O     O_2   0.801664 0.778710 0.551300 -0.467027
O3    O     O_2   0.791196 0.224386 0.399050 -0.461733
O4    O     O_2   0.208806 0.775502 0.600818 -0.461604
O5    O     O_R   0.496500 0.713880 0.380220 -0.496424
O6    O     O_R   0.494410 0.256780 0.308360 -0.470704
O7    O     O_R   0.505590 0.743220 0.691640 -0.470697
O8    O     O_R   0.434810 0.514700 0.655690 -0.511712
O9    O     O_R   0.565190 0.485300 0.344310 -0.511749
O10   O     O_R   0.425720 0.485350 0.344280 -0.497588
O11   O     O_R   0.574280 0.514650 0.655720 -0.497563
O12   O     O_2   0.198345 0.221186 0.448769 -0.466902

loop_
_geom_bond_atom_site_label_1
_geom_bond_atom_site_label_2
_ccdc_geom_bond_type
C27   H4    S    
C28   H3    S    
C33   H14   S    
C40   H16   S    
C27   C29   A    
C41   H17   S    
C33   C36   A    
C24   O2    S    
C39   C41   A    
C23   C42   A    
C1    O6    A    
Cu2   O9    S    
C35   C37   A    
C5    C11   A    
C30   H18   S    
C11   C14   A    
C14   H5    S    
Cu1   O11   S    
C22   C38   A    
C17   O11   A    
C24   C39   A    
C35   H15   S    
C15   H6    S    
C3    C29   A    
C18   C40   A    
C21   I2    S    
C18   H9    S    
Cu1   N4    S    
C31   C33   A    
C32   H11   S    
C24   N2    A    
C2    C34   A    
Cu1   O1    S    
C12   O5    A    
C26   O3    S    
Cu1   O7    S    
N3    N4    D    
C26   N2    A    
C32   C35   A    
C25   N1    A    
C36   N1    S    
C12   C21   S    
C8    C18   A    
C34   C39   A    
Cu2   O6    S    
Cu1   Cu2   S    
C22   N1    A    
C5    C9    A    
C13   H8    S    
C37   N2    S    
C17   O9    A    
C2    C26   A    
C25   O4    S    
C3    C31   A    
C4    C32   A    
C4    C17   S    
C19   H10   S    
C7    C19   A    
C13   C15   A    
C9    C34   A    
C10   C23   A    
H13   N4    S    
C23   C38   A    
Cu1   O8    S    
C7    C9    A    
C1    C20   S    
C16   O8    A    
C15   C42   A    
C25   C42   A    
C6    C10   A    
C5    C8    A    
C6    C7    A    
C27   C36   A    
H12   N3    S    
C29   H2    S    
C20   I1    S    
C28   C30   A    
C22   O12   S    
C6    C13   A    
C38   C40   A    
C28   C37   A    
Cu2   O10   S    
C16   O10   A    
Cu2   O5    S    
C2    C14   A    
C1    O1    A    
C11   H7    S    
C20   C21   D    
C8    C10   A    
C31   H1    S    
C12   O7    A    
Cu2   N3    S    
C4    C30   A    
C3    C16   S    
C19   C41   A    
