data_mof_unit_5361.cif
_audit_creation_date              2012-12-11T14:43:40-0500
_audit_creation_method            fapswitch 2.2
_symmetry_space_group_name_H-M    P1
_symmetry_Int_Tables_number       1
_space_group_crystal_system       triclinic
_cell_length_a                    20.861658
_cell_length_b                    7.093418
_cell_length_c                    16.469064
_cell_angle_alpha                 91.408061
_cell_angle_beta                  92.802819
_cell_angle_gamma                 91.29684
_cell_volume                      2432.75589643

loop_
_atom_site_label
_atom_site_type_symbol
_atom_type_description
_atom_site_fract_x
_atom_site_fract_y
_atom_site_fract_z
_atom_type_partial_charge
O1    O     O_R   0.564840 0.505290 0.579830 -0.539875
O2    O     O_R   0.435160 0.005290 0.420170 -0.537513
O3    O     O_R   0.556720 0.179930 0.409350 -0.539733
O4    O     O_R   0.443280 0.679930 0.590650 -0.539198
C1    C     C_R   0.570397 0.344460 0.381466 0.697351
C2    C     C_R   0.429486 0.845399 0.618500 0.697958
O5    O     O_R   0.572280 0.175810 0.578530 -0.540798
O6    O     O_R   0.427720 0.675810 0.421470 -0.540527
O7    O     O_R   0.450830 0.001920 0.590540 -0.536480
O8    O     O_R   0.549170 0.501920 0.409460 -0.536095
C3    C     C_R   0.590016 0.348296 0.604820 0.688055
C4    C     C_R   0.409281 0.840686 0.395637 0.691661
O9    O     O_3   0.460130 0.338030 0.503750 -0.371026
O10   O     O_3   0.539870 0.838030 0.496250 -0.372183
V1    V     V_3+5 0.507400 0.064560 0.499310 1.415309
V2    V     V_3+5 0.492600 0.564560 0.500690 1.421260
C5    C     C_R   0.142197 0.933168 0.171728 -0.139574
C6    C     C_R   0.859895 0.389554 0.827451 -0.125722
C7    C     C_R   0.353447 0.835793 0.335412 -0.088243
C8    C     C_R   0.644294 0.375640 0.666285 -0.059645
C9    C     C_R   0.288631 0.664378 0.229004 -0.172390
C10   C     C_R   0.699729 0.579070 0.770200 -0.172216
C11   C     C_R   0.342925 0.678455 0.282324 -0.146273
C12   C     C_R   0.646264 0.536547 0.718215 -0.161960
C13   C     C_R   0.307967 0.979140 0.334164 -0.200470
C14   C     C_R   0.696927 0.255849 0.668408 -0.234229
C15   C     C_R   0.251995 0.964340 0.281730 0.102275
C16   C     C_R   0.752006 0.298864 0.720020 0.073149
C17   C     C_R   0.242613 0.805541 0.228398 0.100033
C18   C     C_R   0.753067 0.462735 0.771274 0.133798
C19   C     C_R   0.187775 0.789999 0.174910 -0.285874
C20   C     C_R   0.806886 0.507600 0.823701 -0.311022
C21   C     C_R   0.150290 0.088647 0.228162 0.147110
C22   C     C_R   0.860313 0.230753 0.773324 0.210567
C23   C     C_R   0.204812 0.103288 0.282560 0.184373
C24   C     C_R   0.806591 0.184312 0.720688 0.130295
H1    H     H_    0.181624 0.668457 0.133846 0.136883
H2    H     H_    0.806465 0.631021 0.863786 0.139263
H3    H     H_    0.282297 0.541493 0.188748 0.116738
H4    H     H_    0.699588 0.704640 0.809035 0.114195
H5    H     H_    0.376941 0.565325 0.282016 0.124244
H6    H     H_    0.606369 0.631737 0.717993 0.121622
C25   C     C_R   0.383911 0.877000 0.835725 -0.147718
C26   C     C_R   0.616065 0.355961 0.164243 -0.147952
H7    H     H_    0.471983 0.857320 0.774794 0.099936
H8    H     H_    0.527833 0.339597 0.225226 0.101465
H9    H     H_    0.307500 0.904482 0.957032 0.128640
H10   H     H_    0.692664 0.372057 0.042877 0.128974
C27   C     C_R   0.389989 0.856517 0.689887 -0.037481
C28   C     C_R   0.609918 0.352047 0.310086 -0.037137
C29   C     C_R   0.079807 0.897721 0.734539 -0.186729
C30   C     C_R   0.920391 0.415379 0.265470 -0.201609
C31   C     C_R   0.113788 0.885699 0.664437 -0.112117
C32   C     C_R   0.886373 0.406975 0.335550 -0.108036
C33   C     C_R   0.180425 0.880356 0.668987 -0.139992
C34   C     C_R   0.819718 0.392794 0.330958 -0.142937
C35   C     C_R   0.215558 0.886840 0.744766 0.030106
C36   C     C_R   0.784594 0.386604 0.255163 0.028960
C37   C     C_R   0.180479 0.900846 0.817736 0.068734
C38   C     C_R   0.819729 0.395043 0.182197 0.071997
C39   C     C_R   0.284386 0.878855 0.749992 0.071816
C40   C     C_R   0.715700 0.372764 0.249934 0.072032
C41   C     C_R   0.316722 0.885232 0.827816 0.111170
C42   C     C_R   0.683360 0.368046 0.172113 0.110900
C43   C     C_R   0.282248 0.899718 0.897799 -0.251051
C44   C     C_R   0.717923 0.375757 0.102102 -0.252548
C45   C     C_R   0.215444 0.907662 0.893972 0.152144
C46   C     C_R   0.784801 0.388809 0.105913 0.154568
C47   C     C_R   0.322733 0.864423 0.680935 -0.202102
C48   C     C_R   0.677276 0.363857 0.319000 -0.204141
C49   C     C_R   0.420164 0.862820 0.767333 -0.169862
C50   C     C_R   0.579723 0.348450 0.232661 -0.169376
C51   C     C_R   0.111643 0.906166 0.811225 -0.078133
C52   C     C_R   0.888559 0.409687 0.188773 -0.073078
H11   H     H_    0.027879 0.899888 0.728885 0.114316
H12   H     H_    0.972335 0.426531 0.271141 0.116643
H13   H     H_    0.202912 0.870469 0.611656 0.111437
H14   H     H_    0.797195 0.387178 0.388284 0.107788
O11   O     O_R   0.950790 0.256670 0.090520 -0.537334
O12   O     O_R   0.049210 0.756670 0.909480 -0.536744
O13   O     O_R   0.927720 0.590370 0.921470 -0.545150
O14   O     O_R   0.072280 0.090370 0.078530 -0.544910
C53   C     C_R   0.911887 0.417692 0.892630 0.779854
C54   C     C_R   0.088734 0.925925 0.107242 0.735907
O15   O     O_R   0.943270 0.586180 0.090640 -0.537229
O16   O     O_R   0.056730 0.086180 0.909360 -0.527655
O17   O     O_R   0.064850 0.759970 0.079840 -0.537130
O18   O     O_R   0.935150 0.259970 0.920160 -0.515529
C55   C     C_R   0.930005 0.417975 0.118478 0.764073
C56   C     C_R   0.070160 0.917063 0.881562 0.788396
O19   O     O_3   0.039850 0.428050 0.996240 -0.380354
O20   O     O_3   0.960150 0.928050 0.003760 -0.373288
V3    V     V_3+5 0.992610 0.701540 0.000700 1.431801
V4    V     V_3+5 0.007390 0.201540 0.999300 1.446001
H15   H     H_    0.302284 0.859586 0.619566 0.093299
H16   H     H_    0.697749 0.366256 0.380348 0.090255
H17   H     H_    0.088109 0.879730 0.605644 0.121685
H18   H     H_    0.912017 0.411550 0.394365 0.122240
N1    N     N_3   0.184003 0.920504 0.968998 -0.680298
H19   H     H_    0.196012 0.802035 0.002437 0.221469
H20   H     H_    0.201915 0.040473 0.001500 0.225675
N2    N     N_3   0.816276 0.397489 0.030890 -0.680390
H21   H     H_    0.802585 0.277684 0.995382 0.225522
H22   H     H_    0.799998 0.516176 0.000493 0.220447
N3    N     N_3   0.102976 0.231772 0.233609 -0.687367
H23   H     H_    0.105091 0.318285 0.183351 0.244652
H24   H     H_    0.057396 0.167934 0.235128 0.223270
N4    N     N_3   0.916212 0.116740 0.771134 -0.656714
H25   H     H_    0.932557 0.117155 0.712127 0.234477
H26   H     H_    0.903057 0.978279 0.784638 0.244545
N5    N     N_3   0.212241 0.260484 0.339077 -0.681748
H27   H     H_    0.211460 0.384758 0.306291 0.255083
H28   H     H_    0.173005 0.259627 0.376219 0.253134
N6    N     N_3   0.808801 0.019029 0.668898 -0.687820
H29   H     H_    0.771381 0.926320 0.682513 0.236285
H30   H     H_    0.802654 0.058854 0.608372 0.228630
H31   H     H_    0.315516 0.098976 0.375850 0.162082
H32   H     H_    0.695356 0.133908 0.627523 0.124473
H33   H     H_    0.408588 0.881848 0.895241 0.110808
H34   H     H_    0.591377 0.352635 0.104740 0.110879

loop_
_geom_bond_atom_site_label_1
_geom_bond_atom_site_label_2
_ccdc_geom_bond_type
C36   C40   A    
C44   C46   A    
C41   C43   A    
O14   V4    S    
H7    C49   S    
C12   H6    S    
C48   H16   S    
N5    H27   S    
O1    C3    A    
C54   O17   A    
O2    C4    A    
C2    O7    A    
N6    H29   S    
C25   C41   A    
C26   C42   A    
O5    C3    A    
N3    H24   S    
C52   C55   S    
C29   H11   S    
C51   C56   S    
C30   C52   A    
C33   H13   S    
C35   C37   A    
C15   C17   A    
C26   H34   S    
C36   C38   A    
C34   H14   S    
N4    H25   S    
C40   C48   A    
C38   C52   A    
C39   C41   A    
C28   C50   A    
C40   C42   A    
O16   V4    S    
C37   C45   A    
O15   V3    S    
C8    C12   A    
C34   C36   A    
C43   C45   A    
C20   H2    S    
C37   C51   A    
H8    C50   S    
C45   N1    S    
O5    V1    S    
C53   O18   A    
C24   N6    S    
O6    V2    S    
C27   C47   A    
O12   C56   A    
C5    C21   A    
O13   C53   A    
C30   C32   A    
O18   V4    S    
C31   C33   A    
C32   C34   A    
C3    C8    S    
C29   C51   A    
C21   N3    S    
O11   V4    S    
O4    C2    A    
O16   C56   A    
O15   C55   A    
C15   C23   A    
C9    C17   A    
C19   H1    S    
C29   C31   A    
C42   C44   A    
O4    V2    S    
C7    C11   A    
O19   V3    S    
O13   V3    S    
N1    H19   S    
C9    H3    S    
O6    C4    A    
C10   H4    S    
O20   V4    S    
C6    C53   S    
N5    H28   S    
O1    V2    S    
N2    H22   S    
O2    V1    S    
C6    C22   A    
C38   C46   A    
N1    H20   S    
O14   C54   A    
C9    C11   A    
C30   H12   S    
C5    C19   A    
C10   C12   A    
C1    C28   S    
C6    C20   A    
O3    C1    A    
C23   N5    S    
C39   C47   A    
C25   C49   A    
C10   C18   A    
C14   H32   S    
C46   N2    S    
C47   H15   S    
C13   H31   S    
N6    H30   S    
C35   C39   A    
C13   C15   A    
N3    H23   S    
C14   C16   A    
C11   H5    S    
C5    C54   S    
C31   H17   S    
C33   C35   A    
O7    V1    S    
C22   N4    S    
C1    O8    A    
C17   C19   A    
O8    V2    S    
O19   V4    S    
C18   C20   A    
C8    C14   A    
O17   V3    S    
C4    C7    S    
C16   C18   A    
O20   V3    S    
C21   C23   A    
N4    H26   S    
C26   C50   A    
C22   C24   A    
C2    C27   S    
C28   C48   A    
N2    H21   S    
C7    C13   A    
O11   C55   A    
C16   C24   A    
C27   C49   A    
O9    V2    S    
O10   V1    S    
C32   H18   S    
O3    V1    S    
H10   C44   S    
O12   V3    S    
H9    C43   S    
C25   H33   S    
