data_mof_unit_7673.cif
_audit_creation_date              2012-12-10T17:47:46-0500
_audit_creation_method            fapswitch 2.2
_symmetry_space_group_name_H-M    P1
_symmetry_Int_Tables_number       1
_space_group_crystal_system       triclinic
_cell_length_a                    10.777207
_cell_length_b                    10.679048
_cell_length_c                    9.94738
_cell_angle_alpha                 89.666407
_cell_angle_beta                  90.875969
_cell_angle_gamma                 92.468874
_cell_volume                      1143.63542522

loop_
_atom_site_label
_atom_site_type_symbol
_atom_type_description
_atom_site_fract_x
_atom_site_fract_y
_atom_site_fract_z
_atom_type_partial_charge
C1    C     C_R   0.509514 0.260410 0.501959 0.938774
C2    C     C_R   0.577875 0.063815 0.622762 0.173696
C3    C     C_R   0.532025 0.128251 0.506305 -0.084544
C4    C     C_R   0.257640 0.493700 0.498852 0.922522
C5    C     C_R   0.510536 0.064750 0.385237 -0.182950
C6    C     C_R   0.510171 0.937346 0.382185 -0.163911
C7    C     C_R   0.541866 0.871667 0.497757 -0.133578
C8    C     C_R   0.362242 0.311175 0.134948 -0.265383
C9    C     C_R   0.311746 0.206198 0.064900 -0.077933
C10   C     C_R   0.308842 0.210546 0.923645 -0.004573
C11   C     C_R   0.362345 0.315433 0.859075 -0.215382
C12   C     C_3   0.877372 0.492516 0.500959 -0.014781
C13   C     C_R   0.431994 0.408562 0.927387 0.123578
C14   C     C_R   0.431739 0.407909 0.070626 0.168947
C15   C     C_R   0.566567 0.587292 0.072199 -0.088195
C16   C     C_R   0.513660 0.739204 0.499595 0.878108
C17   C     C_R   0.566904 0.586793 0.929380 -0.094621
C18   C     C_R   0.741624 0.499046 0.500917 0.783659
C19   C     C_3   0.068487 0.426116 0.631365 -0.115611
C20   C     C_3   0.928006 0.446017 0.641209 -0.113991
C21   C     C_3   0.078551 0.624979 0.493591 -0.464052
C22   C     C_3   0.062998 0.414658 0.366046 -0.009514
C23   C     C_3   0.935193 0.628735 0.480015 -0.244949
C24   C     C_3   0.120083 0.486489 0.495692 -0.048934
C25   C     C_2   0.890122 0.693264 0.352502 0.446584
C26   C     C_2   0.697279 0.116096 0.982484 0.392668
C27   C     C_2   0.270339 0.092799 0.143075 0.343465
C28   C     C_2   0.247025 0.110440 0.840714 0.479140
C29   C     C_2   0.855370 0.339709 0.711343 0.478143
C30   C     C_2   0.093029 0.485279 0.235018 0.395435
C31   C     C_2   0.114494 0.285549 0.343519 0.340894
C32   C     C_3   0.917650 0.406392 0.381824 -0.119899
C33   C     C_R   0.611737 0.120931 0.748148 -0.165501
C34   C     C_R   0.666072 0.053314 0.853154 0.059162
C35   C     C_R   0.694167 0.928853 0.832154 -0.103219
C36   C     C_R   0.660215 0.870777 0.711739 -0.223959
C37   C     C_R   0.593098 0.934281 0.611321 0.117489
H1    H     H_    0.112784 0.477827 0.717852 0.181201
H2    H     H_    0.346126 0.316054 0.239205 0.241539
H3    H     H_    0.347277 0.324444 0.755015 0.226180
H4    H     H_    0.622592 0.656953 0.877106 0.136267
H5    H     H_    0.918893 0.525617 0.712094 0.090361
H6    H     H_    0.108082 0.670888 0.589902 0.187623
H7    H     H_    0.903586 0.688759 0.563038 0.119146
H8    H     H_    0.793245 0.716156 0.343302 0.071477
H9    H     H_    0.676338 0.213691 0.996498 0.045377
H10   H     H_    0.190241 0.282912 0.637041 0.244313
H11   H     H_    0.047696 0.236155 0.584257 0.300901
H12   H     H_    0.874698 0.443322 0.287751 0.191741
H13   H     H_    0.268128 0.095826 0.251330 0.147872
H14   H     H_    0.163899 0.060302 0.875476 0.138196
H15   H     H_    0.817151 0.355735 0.809840 0.049931
H16   H     H_    0.152095 0.569771 0.233430 0.147129
H17   H     H_    0.075769 0.226982 0.263193 0.123759
H18   H     H_    0.871722 0.232200 0.303210 0.204451
H19   H     H_    0.772559 0.276279 0.415038 0.218424
H20   H     H_    0.127320 0.682491 0.415849 0.217385
H21   H     H_    0.486001 0.112652 0.293284 0.167114
H22   H     H_    0.603464 0.218430 0.768645 0.158263
H23   H     H_    0.742506 0.876300 0.908636 0.176005
H24   H     H_    0.689487 0.776449 0.696365 0.143050
H25   H     H_    0.479361 0.890477 0.290453 0.193823
H26   H     H_    0.621282 0.658559 0.126082 0.150680
N1    N     N_R   0.498810 0.498800 0.142780 -0.124038
N2    N     N_R   0.498760 0.498720 0.857170 -0.128607
N3    N     N_3   0.096695 0.294215 0.652025 -0.413262
N4    N     N_3   0.867603 0.276491 0.396399 -0.394615
O1    O     O_R   0.500000 0.316780 0.614690 -0.654081
O2    O     O_2   0.745924 0.059746 0.075094 -0.568951
O3    O     O_2   0.245368 0.992104 0.089690 -0.563120
O4    O     O_2   0.288275 0.083464 0.731447 -0.583509
O5    O     O_2   0.839796 0.236380 0.661117 -0.598494
O6    O     O_2   0.052113 0.446166 0.127115 -0.598673
O7    O     O_2   0.201980 0.247090 0.408217 -0.656613
O8    O     O_R   0.499990 0.316750 0.385360 -0.641304
O9    O     O_R   0.314800 0.499990 0.614670 -0.634829
O10   O     O_R   0.314790 0.499970 0.385330 -0.636033
O11   O     O_R   0.500010 0.683250 0.614640 -0.603259
O12   O     O_R   0.500000 0.683220 0.385310 -0.624982
O13   O     O_R   0.685210 0.500030 0.614670 -0.649321
O14   O     O_R   0.685200 0.500010 0.385330 -0.645191
O15   O     O_2   0.959850 0.723669 0.261284 -0.545080
Zn1   Zn    Zn3+2 0.500010 0.500020 0.653130 0.938447
Zn2   Zn    Zn3+2 0.499990 0.499980 0.346870 0.946526

loop_
_geom_bond_atom_site_label_1
_geom_bond_atom_site_label_2
_ccdc_geom_bond_type
C35   C36   A    
C18   O14   A    
C13   N2    A    
C12   C23   S    
C22   C32   S    
C5    H21   S    
C36   C37   A    
O12   Zn2   S    
C4    C24   S    
C28   H14   S    
O8    Zn2   S    
N2    Zn1   S    
C1    O1    A    
C19   N3    S    
C34   C35   A    
N1    Zn2   S    
C21   H6    S    
O11   Zn1   S    
C26   C34   S    
C19   C20   S    
C8    C9    A    
C15   N1    A    
C8    H2    S    
C9    C10   A    
H10   N3    S    
C27   H13   S    
C29   O5    D    
C33   H22   S    
C13   C14   A    
C12   C32   S    
O13   Zn1   S    
O9    Zn1   S    
C20   C29   S    
C30   H16   S    
C22   C31   S    
C1    O8    A    
C30   O6    D    
C31   O7    D    
O10   Zn2   S    
C23   H7    S    
C35   H23   S    
C1    C3    S    
C21   H20   S    
C19   H1    S    
C20   H5    S    
C14   N1    A    
C12   C20   S    
C33   C34   A    
C7    C37   A    
C27   O3    D    
C32   N4    S    
C2    C33   A    
C7    C16   S    
C21   C23   S    
C25   O15   D    
C22   C24   S    
C28   O4    D    
C36   H24   S    
C25   H8    S    
O14   Zn2   S    
C9    C27   S    
C10   C28   S    
C15   C17   A    
C8    C14   A    
C22   C30   S    
O1    Zn1   S    
C3    C5    A    
H18   N4    S    
C6    C7    A    
H19   N4    S    
C17   N2    A    
C16   O12   A    
C6    H25   S    
C19   C24   S    
C4    O10   A    
C11   C13   A    
C2    C37   A    
C5    C6    A    
C2    C3    A    
C16   O11   A    
C23   C25   S    
C31   H17   S    
C11   H3    S    
C17   H4    S    
C32   H12   S    
C4    O9    A    
C10   C11   A    
C26   H9    S    
C18   O13   A    
C21   C24   S    
C12   C18   S    
C26   O2    D    
C15   H26   S    
H11   N3    S    
C29   H15   S    
