data_mof_unit_25626.cif
_audit_creation_date              2012-12-11T14:49:26-0500
_audit_creation_method            fapswitch 2.2
_symmetry_space_group_name_H-M    P1
_symmetry_Int_Tables_number       1
_space_group_crystal_system       triclinic
_cell_length_a                    16.938211
_cell_length_b                    16.756832
_cell_length_c                    19.680101
_cell_angle_alpha                 116.68441
_cell_angle_beta                  63.615274
_cell_angle_gamma                 100.097441
_cell_volume                      4468.9411222

loop_
_atom_site_label
_atom_site_type_symbol
_atom_type_description
_atom_site_fract_x
_atom_site_fract_y
_atom_site_fract_z
_atom_type_partial_charge
C1    C     C_R   0.041141 0.757942 0.007555 0.061648
C2    C     C_R   0.760000 0.453084 0.241521 -0.029221
C3    C     C_R   0.743660 0.456997 0.932604 0.007952
C4    C     C_R   0.963664 0.756883 0.247657 0.015761
C5    C     C_R   0.259829 0.517301 0.962485 -0.120732
C6    C     C_R   0.932137 0.257179 0.832438 -0.030544
C7    C     C_R   0.158886 0.506567 0.759609 0.032902
C8    C     C_R   0.040041 0.308698 0.062775 -0.108041
C9    C     C_R   0.969600 0.239947 0.981210 -0.072097
C10   C     C_R   0.238556 0.574020 0.833825 -0.188280
C11   C     C_R   0.195260 0.439209 0.038892 -0.099432
C12   C     C_R   0.757637 0.432486 0.166515 -0.036621
C13   C     C_R   0.005893 0.333083 0.754838 -0.107928
C14   C     C_R   0.275251 0.451770 0.980041 0.039594
C15   C     C_R   0.968188 0.253482 0.753428 -0.033742
C16   C     C_R   0.235943 0.549179 0.758144 0.072293
C17   C     C_R   0.016857 0.224730 0.016944 0.005477
C18   C     C_R   0.018307 0.103734 0.645388 -0.115381
C19   C     C_R   0.965192 0.179720 0.681551 -0.014643
C20   C     C_R   0.912794 0.188784 0.647616 -0.217351
C21   C     C_R   0.911597 0.120645 0.574467 0.127249
C22   C     C_R   0.962424 0.041980 0.537749 -0.013804
C23   C     C_R   0.819330 0.504717 0.908003 0.040190
C24   C     C_R   0.014560 0.032458 0.574130 0.108643
C25   C     C_R   0.861235 0.130478 0.537651 -0.090271
C26   C     C_R   0.862808 0.061726 0.461842 -0.075911
C27   C     C_R   0.911664 0.981532 0.426159 0.079646
C28   C     C_R   0.961149 0.972407 0.464864 0.017432
C29   C     C_R   0.009754 0.892833 0.430471 0.154522
C30   C     C_R   0.058003 0.882375 0.467743 -0.225945
C31   C     C_R   0.060033 0.951373 0.539362 -0.151752
C32   C     C_R   0.911067 0.908503 0.354030 -0.213314
C33   C     C_R   0.959372 0.831266 0.322292 0.078203
C34   C     C_R   0.951173 0.672006 0.243931 -0.082143
C35   C     C_R   0.009093 0.823544 0.359146 -0.241691
C36   C     C_R   0.329423 0.452280 0.617819 -0.255437
C37   C     C_R   0.311298 0.537941 0.682668 0.120649
C38   C     C_R   0.367956 0.607796 0.677307 -0.273234
C39   C     C_R   0.443722 0.592225 0.604307 0.142177
C40   C     C_R   0.462149 0.505439 0.537988 0.036565
C41   C     C_R   0.404559 0.435411 0.545447 0.132963
C42   C     C_R   0.501097 0.661535 0.596392 -0.205516
C43   C     C_R   0.575981 0.645382 0.522497 -0.203245
C44   C     C_R   0.593870 0.559746 0.456680 0.148579
C45   C     C_R   0.748998 0.433632 0.989767 -0.097649
C46   C     C_R   0.537663 0.488812 0.464221 0.036131
C47   C     C_R   0.556052 0.401803 0.397843 0.036473
C48   C     C_R   0.497705 0.332727 0.407540 -0.195477
C49   C     C_R   0.422569 0.349608 0.480906 -0.183568
C50   C     C_R   0.666523 0.544535 0.382737 -0.289626
C51   C     C_R   0.684613 0.459726 0.316509 0.048358
C52   C     C_R   0.630702 0.386958 0.322833 -0.087871
C53   C     C_R   0.674099 0.432177 0.901293 0.114702
C54   C     C_R   0.361577 0.408413 0.944431 0.130330
C55   C     C_R   0.458319 0.320809 0.947884 -0.221908
C56   C     C_R   0.023373 0.751488 0.170096 -0.119338
C57   C     C_R   0.373375 0.344214 0.966780 -0.158150
C58   C     C_R   0.435402 0.439152 0.893639 -0.255933
C59   C     C_R   0.518511 0.425035 0.883676 0.179560
C60   C     C_R   0.531061 0.367093 0.912707 0.127657
C61   C     C_R   0.613359 0.364716 0.913653 -0.074615
C62   C     C_R   0.660619 0.485775 0.869128 -0.213775
C63   C     C_R   0.586132 0.478104 0.855384 -0.222365
C64   C     C_R   0.823604 0.169312 0.116213 0.236480
C65   C     C_R   0.956153 0.860419 0.993838 0.105960
C66   C     C_R   0.896011 0.941057 0.950094 -0.203295
C67   C     C_R   0.840357 0.489841 0.239084 -0.043146
C68   C     C_R   0.934650 0.864152 0.934168 -0.203043
C69   C     C_R   0.940277 0.936684 0.070407 -0.069447
C70   C     C_R   0.903634 0.016078 0.085633 0.124106
C71   C     C_R   0.879218 0.016637 0.025643 0.154737
C72   C     C_R   0.837348 0.092650 0.042492 -0.309312
C73   C     C_R   0.850225 0.171171 0.174471 -0.026554
C74   C     C_R   0.889095 0.094522 0.159905 -0.257716
C75   C     C_R   0.954818 0.690418 0.940241 -0.158655
C76   C     C_R   0.985299 0.773491 0.979334 0.027903
H1    H     H_    0.068705 0.322258 0.105944 0.116653
H2    H     H_    0.939155 0.188836 0.944013 0.122342
H3    H     H_    0.287258 0.614913 0.854667 0.102426
H4    H     H_    0.185248 0.396282 0.069180 0.094860
H5    H     H_    0.029585 0.354485 0.705252 0.104582
H6    H     H_    0.874284 0.250265 0.678457 0.147261
H7    H     H_    0.705503 0.402372 0.146485 0.162453
H8    H     H_    0.872673 0.909307 0.322742 0.166707
H9    H     H_    0.047629 0.762725 0.331652 0.144492
H10   H     H_    0.093946 0.820439 0.441640 0.140757
H11   H     H_    0.096326 0.939531 0.567499 0.167090
H12   H     H_    0.285830 0.397936 0.624666 0.132928
H13   H     H_    0.352767 0.673333 0.729426 0.126236
H14   H     H_    0.487648 0.728066 0.646850 0.133243
H15   H     H_    0.619614 0.699829 0.516547 0.132249
H16   H     H_    0.708838 0.599699 0.375874 0.128835
H17   H     H_    0.508478 0.265649 0.358441 0.131883
H18   H     H_    0.378116 0.295689 0.486909 0.139865
H19   H     H_    0.703358 0.539234 0.860455 0.130202
H20   H     H_    0.464919 0.273661 0.968773 0.129179
H21   H     H_    0.576578 0.522957 0.833360 0.131223
H22   H     H_    0.317483 0.315379 0.002145 0.117297
H23   H     H_    0.428946 0.483867 0.870394 0.114707
H24   H     H_    0.816316 0.093433 0.998248 0.165372
H25   H     H_    0.913060 0.654377 0.295699 0.124054
H26   H     H_    0.878503 0.941145 0.903431 0.128503
H27   H     H_    0.907995 0.097633 0.206767 0.177645
H28   H     H_    0.946078 0.806430 0.875391 0.127636
H29   H     H_    0.706618 0.390878 0.017906 0.144629
H30   H     H_    0.054051 0.807011 0.155477 0.133091
H31   H     H_    0.913743 0.676371 0.907450 0.112463
H32   H     H_    0.305724 0.546414 0.921673 0.096876
N1    N     N_R   0.036080 0.671900 0.995420 -0.055947
N2    N     N_R   0.954660 0.334720 0.880230 -0.040862
N3    N     N_R   0.116260 0.502360 0.832930 -0.054725
N4    N     N_R   0.012950 0.371090 0.051890 -0.042101
N5    N     N_R   0.963920 0.328100 0.004580 -0.037999
N6    N     N_R   0.165290 0.545350 0.880240 -0.046326
N7    N     N_R   0.132570 0.490700 0.051900 -0.034735
N8    N     N_R   0.996640 0.382750 0.832930 -0.054049
N9    N     N_R   0.834710 0.454650 0.119760 -0.064168
N10   N     N_R   0.867430 0.509300 0.948100 -0.052064
N11   N     N_R   0.003360 0.617250 0.167070 -0.027050
N12   N     N_R   0.825450 0.461270 0.995400 -0.052327
N13   N     N_R   0.045340 0.665280 0.119770 -0.051720
N14   N     N_R   0.883740 0.497640 0.167070 -0.050031
N15   N     N_R   0.987050 0.628910 0.948110 -0.048949
N16   N     N_R   0.174550 0.538730 0.004600 -0.047660
Ni1   Ni    Ni4+2 0.104370 0.604370 0.000010 0.203708
Ni2   Ni    Ni4+2 0.895630 0.395630 0.999990 0.276863
Ni3   Ni    Ni4+2 0.991920 0.505780 0.891500 0.201353
Ni4   Ni    Ni4+2 0.008080 0.494220 0.108500 0.281677
N17   N     N_3   0.112139 0.813420 0.021338 -0.226830
H33   H     H_    0.170285 0.774285 0.981805 0.097993
H34   H     H_    0.119118 0.863845 0.001793 0.107392
C77   C     C_2   0.859352 0.202284 0.863214 0.414269
H35   H     H_    0.847904 0.138149 0.819528 0.015679
O1    O     O_2   0.809513 0.229607 0.937287 -0.592295
N18   N     N_3   0.117147 0.504594 0.709732 -0.214394
H36   H     H_    0.134128 0.443518 0.657075 0.096359
H37   H     H_    0.048823 0.508337 0.743965 0.110188
C78   C     C_2   0.079612 0.102340 0.680776 0.497814
H38   H     H_    0.056937 0.125346 0.747657 -0.005082
O2    O     O_2   0.157051 0.079494 0.635675 -0.576482
N19   N     N_3   0.810908 0.212028 0.576638 -0.218916
H39   H     H_    0.831648 0.240778 0.534230 0.115043
H40   H     H_    0.744290 0.197050 0.592294 0.099644
C79   C     C_2   0.814096 0.076508 0.421364 0.469699
H41   H     H_    0.748401 0.107123 0.458613 0.012108
O3    O     O_2   0.848770 0.059342 0.346957 -0.629274
N20   N     N_3   0.861088 0.509297 0.828626 -0.225451
H42   H     H_    0.843260 0.455012 0.784803 0.106130
H43   H     H_    0.840878 0.568626 0.835130 0.078104
C80   C     C_2   0.653107 0.295577 0.254469 0.489630
H44   H     H_    0.660931 0.241359 0.267007 0.006680
O4    O     O_2   0.656392 0.278787 0.186227 -0.588611
N21   N     N_3   0.634555 0.296832 0.928886 -0.200777
H45   H     H_    0.590227 0.302646 0.988588 0.119926
H46   H     H_    0.627800 0.234357 0.884756 0.119665
N22   N     N_3   0.837897 0.251718 0.248252 -0.228427
H47   H     H_    0.799663 0.237518 0.300077 0.116454
H48   H     H_    0.899665 0.271167 0.249172 0.124999
N23   N     N_3   0.955436 0.930499 0.134108 -0.216321
H49   H     H_    0.895870 0.943495 0.187134 0.166145
H50   H     H_    0.001021 0.978044 0.148990 0.122592
C81   C     C_2   0.881074 0.493383 0.292793 0.428561
H51   H     H_    0.841030 0.484998 0.349993 0.026946
O5    O     O_2   0.960258 0.502995 0.272348 -0.596912

loop_
_geom_bond_atom_site_label_1
_geom_bond_atom_site_label_2
_ccdc_geom_bond_type
C66   C68   A    
C75   H31   S    
C20   H6    S    
C3    C53   S    
C73   C74   A    
C66   H26   S    
C3    C23   A    
C19   C20   A    
N9    N14   A    
C2    C12   A    
C23   N10   A    
C78   H38   S    
N18   H36   S    
C36   H12   S    
C40   C46   A    
C38   H13   S    
C26   C27   A    
C29   C30   A    
C65   C76   S    
C18   C24   A    
C22   C24   A    
C28   C29   A    
N20   H43   S    
C81   H51   S    
C1    N17   S    
C8    N4    A    
C72   H24   S    
C38   C39   A    
C69   N23   S    
C11   C14   A    
N12   Ni2   S    
C44   C50   A    
C13   H5    S    
C18   C19   A    
C18   C78   S    
N20   H42   S    
C1    N1    A    
C6    C15   A    
C46   C47   A    
C53   C61   A    
C47   C48   A    
C45   H29   S    
C77   H35   S    
N8    Ni3   S    
C70   C74   A    
C64   C73   A    
N23   H50   S    
C70   C71   A    
N1    Ni1   S    
C49   H18   S    
N21   H46   S    
C11   N7    A    
N9    Ni2   S    
C10   N6    A    
C16   C37   S    
N11   Ni4   S    
C59   C60   A    
C22   C28   A    
C21   C22   A    
C4    C56   A    
C6    N2    A    
C36   C41   A    
C26   C79   S    
C41   C49   A    
N4    N5    A    
C44   C46   A    
C39   C42   A    
C81   O5    D    
N11   N13   A    
C32   H8    S    
C4    C34   A    
C34   H25   S    
C31   H11   S    
C48   H17   S    
C51   C52   A    
C79   O3    D    
C2    C67   A    
C11   H4    S    
C39   C40   A    
N6    Ni1   S    
N1    N15   A    
N5    Ni2   S    
C6    C77   S    
C58   C59   A    
C23   N20   S    
C3    C45   A    
C43   H15   S    
N7    Ni4   S    
C12   H7    S    
C60   C61   A    
C42   H14   S    
N19   H40   S    
N22   H47   S    
C15   C19   S    
C75   C76   A    
C66   C71   A    
N13   Ni1   S    
C37   C38   A    
C53   C62   A    
N15   Ni3   S    
N23   H49   S    
C5    N16   A    
C65   C68   A    
C62   C63   A    
C50   C51   A    
C25   N19   S    
C56   H30   S    
C5    C14   A    
C78   O2    D    
N2    Ni2   S    
C77   O1    D    
C45   N12   A    
C50   H16   S    
C48   C49   A    
C14   C54   S    
C55   C57   A    
C43   C44   A    
N3    Ni3   S    
C8    H1    S    
C75   N15   A    
C30   H10   S    
N10   Ni3   S    
C67   N14   A    
N2    N8    A    
C7    N18   S    
N17   H33   S    
C54   C58   A    
C9    C17   A    
C34   N11   A    
N18   H37   S    
C21   C25   A    
C4    C33   S    
C36   C37   A    
N7    N16   A    
C62   H19   S    
C27   C32   A    
C1    C76   A    
C7    C16   A    
C58   H23   S    
C68   H28   S    
C55   H20   S    
C61   N21   S    
C10   H3    S    
C47   C52   A    
C29   C35   A    
C59   C63   A    
C8    C17   A    
C79   H41   S    
C9    N5    A    
C32   C33   A    
C13   C15   A    
C25   C26   A    
C24   C31   A    
C71   C72   A    
C63   H21   S    
C10   C16   A    
N19   H39   S    
C56   N13   A    
C35   H9    S    
C67   C81   S    
C30   C31   A    
C65   C69   A    
C57   H22   S    
C73   N22   S    
N22   H48   S    
C33   C35   A    
C7    N3    A    
N3    N6    A    
C80   O4    D    
C9    H2    S    
C64   C72   A    
N14   Ni4   S    
C69   C70   A    
N10   N12   A    
N4    Ni4   S    
C13   N8    A    
C2    C51   S    
C12   N9    A    
C20   C21   A    
C52   C80   S    
C42   C43   A    
C27   C28   A    
C80   H44   S    
N16   Ni1   S    
C40   C41   A    
N21   H45   S    
C55   C60   A    
C54   C57   A    
C74   H27   S    
N17   H34   S    
C5    H32   S    
