data_mof_unit_17611.cif
_audit_creation_date              2012-12-11T19:09:52-0500
_audit_creation_method            fapswitch 2.2
_symmetry_space_group_name_H-M    P1
_symmetry_Int_Tables_number       1
_space_group_crystal_system       triclinic
_cell_length_a                    8.257417
_cell_length_b                    15.121397
_cell_length_c                    27.078941
_cell_angle_alpha                 99.100444
_cell_angle_beta                  93.027416
_cell_angle_gamma                 81.155289
_cell_volume                      3297.50826766

loop_
_atom_site_label
_atom_site_type_symbol
_atom_type_description
_atom_site_fract_x
_atom_site_fract_y
_atom_site_fract_z
_atom_type_partial_charge
Ba1   Ba    Ba6+2 0.860050 0.456430 0.522540 1.719059
Ba2   Ba    Ba6+2 0.329780 0.543490 0.477450 1.713005
C1    C     C_3   0.759943 0.119290 0.642872 -0.333481
C2    C     C_R   0.904713 0.589363 0.181089 0.571264
C3    C     C_2   0.753170 0.558227 0.273902 -0.076743
C4    C     C_3   0.159495 0.263122 0.651093 0.311613
C5    C     C_3   0.730656 0.585966 0.329305 -0.068510
C6    C     C_1   0.982637 0.483262 0.342859 0.039859
C7    C     C_2   0.024870 0.480663 0.295457 -0.056351
C8    C     C_2   0.902210 0.517216 0.257276 0.206789
C9    C     C_R   0.019375 0.506110 0.102816 -0.078615
C10   C     C_R   0.059106 0.428986 0.126782 -0.050520
C11   C     C_R   0.136598 0.348829 0.099276 -0.040440
C12   C     C_3   0.697711 0.212779 0.629530 0.318340
C13   C     C_R   0.941580 0.586642 0.130374 -0.023409
C14   C     C_2   0.840616 0.526380 0.360467 -0.297074
C15   C     C_2   0.348243 0.473588 0.640104 -0.235667
C16   C     C_3   0.165155 0.236573 0.703259 0.262491
C17   C     C_R   0.173657 0.417588 0.972555 0.020140
C18   C     C_R   0.051727 0.577919 0.976213 0.019940
C19   C     C_R   0.131186 0.496096 0.948921 0.052055
C20   C     C_R   0.253107 0.338109 0.943602 -0.098149
C21   C     C_R   0.289098 0.335752 0.893742 -0.050567
C22   C     C_R   0.248049 0.412393 0.870012 -0.035320
C23   C     C_3   0.467886 0.674004 0.632765 0.706503
C24   C     C_R   0.168867 0.492701 0.897392 -0.078215
C25   C     C_R   0.127945 0.569557 0.873255 -0.037425
C26   C     C_R   0.167461 0.565228 0.822348 0.601857
C27   C     C_R   0.285167 0.409605 0.819336 0.576384
C28   C     C_3   0.221855 0.263562 0.408907 0.302290
C29   C     C_2   0.435383 0.440287 0.726167 -0.042025
C30   C     C_3   0.458006 0.412666 0.670739 -0.031981
C31   C     C_1   0.205429 0.515787 0.657325 0.017048
C32   C     C_2   0.162722 0.517097 0.704569 -0.121098
C33   C     C_2   0.285978 0.481025 0.742819 0.183025
C34   C     C_3   0.404388 0.715006 0.684551 -0.136868
C35   C     C_R   0.135892 0.420834 0.023932 0.018944
C36   C     C_R   0.056968 0.502744 0.051283 0.052344
C37   C     C_R   0.015016 0.581351 0.027708 0.019411
C38   C     C_R   0.174183 0.344690 0.049273 -0.093007
C39   C     C_R   0.901866 0.663531 0.106784 -0.054321
C40   C     C_3   0.245355 0.161794 0.391341 -0.335672
C41   C     C_R   0.011731 0.653737 0.950676 -0.096460
C42   C     C_R   0.049081 0.649506 0.900624 -0.055052
C43   C     C_R   0.937415 0.661130 0.056863 -0.098725
C44   C     C_R   0.336251 0.173856 0.524671 0.016776
C45   C     C_3   0.028190 0.739499 0.348708 0.385478
C46   C     C_R   0.574099 0.208577 0.487381 0.022392
C47   C     C_R   0.760687 0.774247 0.493800 -0.290745
C48   C     C_R   0.848407 0.831130 0.474415 0.001755
C49   C     C_R   0.786418 0.922777 0.477025 -0.114594
C50   C     C_R   0.635445 0.959552 0.500143 -0.018004
C51   C     C_R   0.553839 0.902189 0.525165 -0.102692
C52   C     C_3   0.954298 0.737473 0.594986 0.324068
C53   C     C_R   0.564454 0.052398 0.500349 -0.008468
C54   C     C_R   0.404650 0.081732 0.519113 -0.142877
C55   C     C_R   0.320246 0.020158 0.535811 -0.076354
C56   C     C_3   0.033856 0.765967 0.297075 -0.285975
C57   C     C_R   0.404116 0.941169 0.549248 0.388346
C58   C     C_R   0.644119 0.117141 0.482178 -0.161197
C59   C     C_R   0.424908 0.236821 0.510802 0.086150
C60   C     C_R   0.619158 0.807960 0.520779 0.030432
C61   C     C_3   0.885629 0.832104 0.620335 -0.310674
C62   C     C_3   0.692337 0.340865 0.371259 0.294166
C63   C     C_3   0.653042 0.326114 0.315052 0.352413
C64   C     C_3   0.531406 0.780377 0.350057 0.364824
C65   C     C_3   0.447104 0.877140 0.348413 0.243643
C66   C     C_R   0.019642 0.433194 0.177651 0.618655
H1    H     H_    0.733621 0.213435 0.590629 0.060160
H2    H     H_    0.822668 0.348777 0.378097 -0.000210
H3    H     H_    0.613849 0.404175 0.387337 -0.012536
H4    H     H_    0.895443 0.104751 0.640873 0.177338
H5    H     H_    0.661446 0.388851 0.299537 -0.058376
H6    H     H_    0.525520 0.310967 0.308404 0.046357
H7    H     H_    0.561656 0.223839 0.631361 -0.024582
H8    H     H_    0.706526 0.067357 0.615962 0.061380
H9    H     H_    0.363402 0.651314 0.609206 -0.056944
H10   H     H_    0.301001 0.770418 0.681915 0.144626
H11   H     H_    0.360926 0.662696 0.702834 0.033815
H12   H     H_    0.322298 0.144807 0.357753 0.152885
H13   H     H_    0.503945 0.742669 0.708482 0.122791
H14   H     H_    0.723462 0.115374 0.681265 0.138546
H15   H     H_    0.126961 0.681559 0.351634 0.090545
H16   H     H_    0.907301 0.718776 0.352888 -0.109160
H17   H     H_    0.139274 0.802564 0.294982 0.150220
H18   H     H_    0.049808 0.704013 0.268827 0.107877
H19   H     H_    0.918714 0.810209 0.288643 0.120597
H20   H     H_    0.630589 0.765568 0.322437 -0.067977
H21   H     H_    0.586153 0.776978 0.388357 -0.049117
H22   H     H_    0.540446 0.924026 0.353610 -0.012334
H23   H     H_    0.306894 0.125045 0.421035 0.053146
H24   H     H_    0.056427 0.319187 0.649104 0.045223
H25   H     H_    0.385993 0.881480 0.311179 0.085874
H26   H     H_    0.148518 0.452295 0.284148 0.125344
H27   H     H_    0.168945 0.288175 0.116417 0.140237
H28   H     H_    0.531038 0.415832 0.751843 0.115108
H29   H     H_    0.350189 0.272743 0.873696 0.137046
H30   H     H_    0.290210 0.275701 0.958186 0.075742
H31   H     H_    0.233412 0.279896 0.031636 0.076836
H32   H     H_    0.657930 0.583113 0.248222 0.113559
H33   H     H_    0.842200 0.726761 0.126988 0.129097
H34   H     H_    0.124435 0.138910 0.381812 0.159409
H35   H     H_    0.950801 0.718239 0.968156 0.074096
H36   H     H_    0.276136 0.286779 0.644923 -0.036555
H37   H     H_    0.015430 0.709907 0.883333 0.127697
H38   H     H_    0.038774 0.544824 0.715814 0.144039
H39   H     H_    0.902020 0.723822 0.042432 0.075409
H40   H     H_    0.815326 0.533834 0.399944 0.073009
H41   H     H_    0.380677 0.474750 0.602099 0.055376
H42   H     H_    0.195691 0.039859 0.547775 0.149198
H43   H     H_    0.760260 0.099304 0.464171 0.110550
H44   H     H_    0.807838 0.702674 0.489588 0.046284
H45   H     H_    0.851360 0.701800 0.579773 0.001904
H46   H     H_    0.857050 0.962800 0.459542 0.087047
H47   H     H_    0.134015 0.298763 0.730754 0.073568
H48   H     H_    0.072064 0.191797 0.706197 0.088409
H49   H     H_    0.343053 0.285052 0.418106 0.035873
H50   H     H_    0.143593 0.279043 0.442194 0.082642
H51   H     H_    0.896043 0.099990 0.293618 0.358917
H52   H     H_    0.594537 0.559988 0.606347 0.309867
H53   H     H_    0.336435 0.132751 0.695382 0.347707
H54   H     H_    0.390435 0.917356 0.417650 0.299309
H55   H     H_    0.431068 0.357405 0.541244 0.300318
H56   H     H_    0.034868 0.742070 0.564231 0.059459
H57   H     H_    0.548457 0.969524 0.654541 0.323832
H58   H     H_    0.794369 0.826581 0.647797 0.168146
H59   H     H_    0.828224 0.874584 0.592561 0.060714
H60   H     H_    0.983272 0.866359 0.641255 0.187564
N1    N     N_R   0.943306 0.513024 0.204650 -0.428774
N2    N     N_R   0.245133 0.485543 0.795524 -0.427426
O1    O     O_2   0.906490 0.548660 0.619040 -0.423782
O2    O     O_2   0.187466 0.824248 0.473391 -0.449610
O3    O     O_3   0.051815 0.813801 0.384996 -0.548755
O4    O     O_3   0.138490 0.548590 0.558860 -0.486577
O5    O     O_3   0.572560 0.389970 0.472910 -0.468268
O6    O     O_2   0.345680 0.723560 0.528460 -0.432804
O7    O     O_3   0.536273 0.739939 0.613217 -0.561734
O8    O     O_2   0.403373 0.544007 0.324084 -0.508531
O9    O     O_3   0.418442 0.718804 0.337203 -0.586899
O10   O     O_2   0.051105 0.365183 0.197511 -0.528005
O11   O     O_2   0.352820 0.338697 0.796366 -0.559005
O12   O     O_3   0.660689 0.265959 0.391778 -0.605927
O13   O     O_2   0.838651 0.660502 0.204315 -0.619987
O14   O     O_2   0.134918 0.633009 0.802316 -0.589328
O15   O     O_3   0.686290 0.382320 0.585720 -0.517652
O16   O     O_2   0.786828 0.452795 0.676539 -0.456347
O17   O     O_3   0.044657 0.692948 0.630989 -0.632346
O18   O     O_3   0.767265 0.278876 0.663008 -0.605228
O19   O     O_2   0.844020 0.276410 0.471510 -0.467383
O20   O     O_3   0.101490 0.335510 0.560360 -0.439994
O21   O     O_2   0.995022 0.177693 0.526949 -0.499269
O22   O     O_2   0.956593 0.264335 0.281330 -0.262935
O23   O     O_3   0.135452 0.188183 0.615318 -0.599954
O24   O     O_2   0.726037 0.213475 0.229692 -0.253411
O25   O     O_3   0.806664 0.143293 0.310796 -0.502462
O26   O     O_3   0.589863 0.601309 0.638581 -0.731726
O27   O     O_3   0.322478 0.194290 0.715175 -0.678035
O28   O     O_3   0.329607 0.903552 0.385436 -0.667178
O29   O     O_3   0.358114 0.326242 0.516744 -0.720436
O30   O     O_2   0.233232 0.005900 0.633085 -0.328680
O31   O     O_2   0.252791 0.846083 0.603998 -0.321700
O32   O     O_3   0.510416 0.909697 0.647439 -0.518949
O33   O     O_2   0.283210 0.451320 0.380930 -0.474828
O34   O     O_3   0.051220 0.451340 0.441130 -0.488433
O35   O     O_3   0.503420 0.617610 0.414270 -0.459509
O36   O     O_3   0.147475 0.306522 0.369930 -0.587361
O37   O     O_3   0.617160 0.609950 0.527080 -0.510483
O38   O     O_3   0.088220 0.664410 0.439630 -0.505417
P1    P     P_3+3 0.071960 0.575810 0.612130 1.014277
P2    P     P_3+3 0.664360 0.290070 0.457280 1.020565
P3    P     P_3+3 0.139864 0.218149 0.555663 0.993588
P4    P     P_3+3 0.117760 0.424110 0.387870 1.032727
P5    P     P_3+3 0.044091 0.782852 0.444291 1.001465
P6    P     P_3+3 0.675006 0.385262 0.650106 0.962790
P7    P     P_3+3 0.529337 0.722293 0.547565 1.036728
P8    P     P_3+3 0.513887 0.612756 0.349810 0.953813
S1    S     S_3+6 0.790769 0.235587 0.282395 -0.031989
S2    S     S_3+6 0.345640 0.924532 0.609014 -0.109926

loop_
_geom_bond_atom_site_label_1
_geom_bond_atom_site_label_2
_ccdc_geom_bond_type
C53   C54   A    
O36   P4    S    
C20   H30   S    
C12   O18   S    
Ba1   O15   S    
H57   O32   S    
C19   C24   A    
C31   P1    S    
C56   H19   S    
C2    O13   D    
C51   C57   A    
C63   H5    S    
C42   H37   S    
C54   C55   A    
O35   P8    S    
C40   H12   S    
C10   C66   A    
C24   C25   A    
Ba2   O4    S    
H55   O29   S    
C11   H27   S    
C48   P5    S    
C23   H9    S    
C17   C19   A    
C22   C24   A    
O7    P7    S    
C35   C38   A    
C59   O29   S    
C64   H20   S    
C36   C37   A    
C55   C57   A    
C52   C61   S    
Ba1   O37   S    
C29   H28   S    
C52   H45   S    
C40   H34   S    
Ba1   P2    S    
H52   O26   S    
O21   P3    D    
C44   P3    S    
C32   C33   S    
C62   H3    S    
O22   S1    D    
C22   C27   A    
C11   C38   A    
C17   C35   A    
C9    C13   A    
C25   C42   A    
C64   O9    S    
C29   C30   S    
Ba1   O34   S    
C39   H33   S    
C6    C7    D    
O4    P1    S    
O16   P6    D    
C21   C22   A    
Ba1   O19   S    
O15   P6    S    
C26   O14   D    
C62   H2    S    
C7    C8    S    
O30   S2    D    
C61   H60   S    
C50   C53   A    
C37   C43   A    
C64   C65   S    
O6    P7    D    
C6    P4    S    
C6    C14   D    
H53   O27   S    
C53   C58   A    
C45   O3    S    
C23   O26   S    
O9    P8    S    
C15   C31   D    
C38   H31   S    
C56   H18   S    
C46   C58   A    
C64   H21   S    
C41   H35   S    
O38   P5    S    
C4    C16   S    
C49   H46   S    
C44   C59   A    
O19   P2    D    
C32   H38   S    
C17   C20   A    
C13   C39   A    
Ba2   O34   S    
C3    C5    S    
C18   C37   A    
C28   H50   S    
C65   H25   S    
C30   P6    S    
C65   H22   S    
Ba2   O6    S    
C63   H6    S    
C49   C50   A    
Ba2   O33   S    
C9    C36   A    
C23   O7    S    
C41   C42   A    
C35   C36   A    
O33   P4    D    
C51   C60   A    
O20   P3    S    
C33   N2    S    
C3    H32   S    
C34   H13   S    
C27   O11   D    
C5    P8    S    
O23   P3    S    
C1    H14   S    
C48   C49   A    
H54   O28   S    
Ba1   O20   S    
C45   H16   S    
C18   C19   A    
C1    H8    S    
C62   O12   S    
Ba2   O35   S    
C28   O36   S    
C1    C12   S    
C47   H44   S    
C46   P2    S    
C5    C14   S    
C21   H29   S    
C45   H15   S    
O8    P8    D    
C12   H1    S    
C29   C33   D    
O34   P4    S    
C16   H48   S    
Ba1   O4    S    
C56   H17   S    
Ba2   O38   S    
C18   C41   A    
C50   C51   A    
O37   P7    S    
C52   H56   S    
O1    P1    D    
H51   O25   S    
C47   C60   A    
C57   S2    S    
Ba2   O5    S    
Ba1   O1    S    
C34   H11   S    
C15   H41   S    
C16   H47   S    
C9    C10   A    
C55   H42   S    
C2    N1    Am   
C28   H49   S    
C44   C54   A    
C4    H36   S    
O12   P2    S    
C62   C63   S    
C2    C13   A    
C1    H4    S    
C8    N1    S    
C3    C8    D    
C16   O27   S    
C34   H10   S    
C12   H7    S    
C45   C56   S    
C46   C59   A    
C63   S1    S    
C4    H24   S    
C60   P7    S    
Ba1   Ba2   S    
Ba1   P1    S    
C31   C32   D    
C65   O28   S    
C26   N2    Am   
O2    P5    D    
C7    H26   S    
C66   N1    Am   
O18   P6    S    
O32   S2    S    
C4    O23   S    
C66   O10   D    
C14   H40   S    
C23   C34   S    
C43   H39   S    
O5    P2    S    
C27   N2    Am   
O25   S1    S    
C61   H58   S    
C10   C11   A    
C47   C48   A    
O24   S1    D    
C40   H23   S    
C25   C26   A    
C58   H43   S    
C15   C30   S    
C39   C43   A    
C20   C21   A    
C28   C40   S    
O31   S2    D    
Ba1   O5    S    
O3    P5    S    
Ba2   O37   S    
C61   H59   S    
O17   P1    S    
Ba2   P4    S    
C52   O17   S    
