data_mof_unit_5870.cif
_audit_creation_date              2012-10-26T19:52:29-0400
_audit_creation_method            fapswitch 2.2
_symmetry_space_group_name_H-M    P1
_symmetry_Int_Tables_number       1
_space_group_crystal_system       triclinic
_cell_length_a                    9.540271
_cell_length_b                    10.832448
_cell_length_c                    13.362542
_cell_angle_alpha                 89.937965
_cell_angle_beta                  72.496273
_cell_angle_gamma                 89.452055
_cell_volume                      1316.94116267

loop_
_atom_site_label
_atom_site_type_symbol
_atom_type_description
_atom_site_fract_x
_atom_site_fract_y
_atom_site_fract_z
_atom_type_partial_charge
C1    C     C_R   0.500489 0.737251 0.497287 0.550121
C2    C     C_R   0.371620 0.522597 0.815484 -0.023804
C3    C     C_R   0.372939 0.938686 0.528750 -0.026300
C4    C     C_R   0.421168 0.509182 0.700187 0.530775
C5    C     C_R   0.501629 0.869854 0.492713 0.000567
C6    C     C_R   0.634973 0.934459 0.457000 -0.165883
C7    C     C_R   0.634572 0.063893 0.460667 -0.166379
C8    C     C_R   0.501888 0.129694 0.504502 -0.016461
C9    C     C_R   0.374447 0.061438 0.544424 0.022537
C10   C     C_3   0.213555 0.066672 0.606210 0.150976
C11   C     C_3   0.212769 0.927329 0.582529 -0.206873
C12   C     C_R   0.427308 0.540306 0.982124 0.036483
C13   C     C_R   0.940929 0.398009 0.467913 0.128582
C14   C     C_R   0.907112 0.595644 0.541616 -0.021591
C15   C     C_R   0.055877 0.595620 0.541616 -0.029755
C16   C     C_R   0.499705 0.262630 0.502676 0.532537
C17   C     C_R   0.087858 0.397465 0.468981 0.203721
C18   C     C_3   0.139956 0.336006 0.364595 0.132570
C19   C     C_3   0.981542 0.338717 0.362244 -0.226662
C20   C     C_R   0.578684 0.502475 0.299661 0.533620
C21   C     C_R   0.782256 0.620500 0.031037 -0.141854
C22   C     C_R   0.622972 0.523569 0.186270 -0.021847
C23   C     C_R   0.467605 0.560897 0.872301 -0.014512
C24   C     C_R   0.227481 0.488513 0.870339 -0.203348
C25   C     C_R   0.179863 0.488462 0.979081 -0.139866
C26   C     C_R   0.276834 0.515684 0.036032 0.260561
C27   C     C_3   0.256863 0.174410 0.749163 0.021314
C28   C     C_3   0.379515 0.115826 0.786420 -0.271300
C29   C     C_3   0.469383 0.212627 0.821914 -0.481176
C30   C     C_3   0.315037 0.183430 0.291256 0.010651
C31   C     C_3   0.277103 0.160372 0.189067 -0.288114
C32   C     C_3   0.408081 0.105944 0.104436 -0.486659
C33   C     C_3   0.146647 0.632269 0.178318 -0.011658
C34   C     C_R   0.538512 0.549643 0.032744 0.035264
C35   C     C_3   0.238445 0.713700 0.227574 -0.257752
C36   C     C_3   0.151033 0.826445 0.281492 -0.482564
C37   C     C_R   0.674884 0.605073 0.979810 0.041342
C38   C     C_R   0.702064 0.644847 0.876676 -0.144308
C39   C     C_R   0.600777 0.621936 0.823203 -0.120220
C40   C     C_R   0.521029 0.500676 0.132698 -0.122428
C41   C     C_R   0.754956 0.582300 0.134715 -0.144209
Cu1   Cu    Cu3+1 0.359330 0.500020 0.500010 0.923083
Cu2   Cu    Cu3+1 0.640670 0.499980 0.499990 0.913297
H1    H     H_    0.834753 0.601543 0.175263 0.113941
H2    H     H_    0.933214 0.245662 0.364331 0.137866
H3    H     H_    0.885694 0.664648 0.991752 0.107410
H4    H     H_    0.429321 0.442964 0.170366 0.162169
H5    H     H_    0.066878 0.465523 0.019956 0.130778
H6    H     H_    0.626176 0.657236 0.744261 0.142732
H7    H     H_    0.738632 0.885586 0.425980 0.128003
H8    H     H_    0.179319 0.222829 0.816928 0.148513
H9    H     H_    0.299264 0.246031 0.688822 0.155543
H10   H     H_    0.329810 0.052603 0.852941 0.167097
H11   H     H_    0.454625 0.060214 0.722473 0.176736
H12   H     H_    0.737354 0.111733 0.429453 0.130367
H13   H     H_    0.523570 0.274613 0.755733 0.180104
H14   H     H_    0.555963 0.166242 0.848713 0.150038
H15   H     H_    0.397924 0.267392 0.888220 0.157342
H16   H     H_    0.361843 0.097065 0.313508 0.154465
H17   H     H_    0.401835 0.254595 0.280141 0.135370
H18   H     H_    0.183552 0.095631 0.204446 0.170289
H19   H     H_    0.243568 0.248354 0.159636 0.175045
H20   H     H_    0.501068 0.171674 0.085007 0.150966
H21   H     H_    0.376035 0.087883 0.032625 0.150436
H22   H     H_    0.443704 0.017252 0.131357 0.150530
H23   H     H_    0.144125 0.123898 0.570395 0.169076
H24   H     H_    0.963642 0.400716 0.300848 0.123538
H25   H     H_    0.150784 0.461277 0.829106 0.137275
H26   H     H_    0.042470 0.610233 0.239763 0.147201
H27   H     H_    0.116162 0.684830 0.115780 0.122643
H28   H     H_    0.273256 0.659642 0.286777 0.206956
H29   H     H_    0.338278 0.744637 0.165698 0.163739
H30   H     H_    0.111210 0.880628 0.224723 0.142043
H31   H     H_    0.222301 0.885881 0.312873 0.156217
H32   H     H_    0.055359 0.797405 0.347750 0.144483
H33   H     H_    0.189926 0.866981 0.652930 0.160362
H34   H     H_    0.150692 0.904637 0.526732 0.091536
H35   H     H_    0.837511 0.674170 0.573800 0.112892
H36   H     H_    0.096831 0.673741 0.574055 0.115525
H37   H     H_    0.214798 0.396019 0.304984 0.157243
H38   H     H_    0.803643 0.691051 0.836216 0.105327
N1    N     N_R   0.852320 0.499070 0.499340 -0.239374
N2    N     N_R   0.148230 0.499110 0.499340 -0.258411
O1    O     O_R   0.381190 0.680360 0.500000 -0.509268
O2    O     O_3   0.188257 0.213937 0.374701 -0.590816
O3    O     O_3   0.221646 0.519284 0.144197 -0.630961
O4    O     O_R   0.618780 0.680320 0.499990 -0.518585
O5    O     O_R   0.323230 0.500000 0.650990 -0.507155
O6    O     O_R   0.560820 0.499960 0.650980 -0.501502
O7    O     O_R   0.381220 0.319680 0.500010 -0.486822
O8    O     O_R   0.618810 0.319640 0.500000 -0.500749
O9    O     O_R   0.439180 0.500040 0.349020 -0.519600
O10   O     O_R   0.676770 0.500000 0.349010 -0.501003
O11   O     O_3   0.177958 0.080615 0.716992 -0.580027

loop_
_geom_bond_atom_site_label_1
_geom_bond_atom_site_label_2
_ccdc_geom_bond_type
C1    O4    A    
C40   H4    S    
C20   O10   A    
C16   O7    A    
C34   C37   A    
C31   H18   S    
C35   C36   S    
C7    H12   S    
C7    C8    A    
C1    O1    A    
C20   O9    A    
C12   C23   A    
Cu2   O6    S    
C34   C40   A    
C5    C6    A    
C28   C29   S    
C4    O6    A    
C11   H33   S    
C30   C31   S    
C22   C41   A    
C10   O11   S    
C18   C19   S    
C11   H34   S    
Cu2   O10   S    
C15   H36   S    
C8    C9    A    
C30   H17   S    
C19   H24   S    
C9    C10   S    
C33   H26   S    
C35   H28   S    
C8    C16   S    
C31   H19   S    
C27   H8    S    
C10   H23   S    
C18   O2    S    
C13   C19   S    
Cu1   O1    S    
C24   C25   A    
C32   H21   S    
C10   C11   S    
C28   H11   S    
C15   N2    A    
C25   C26   A    
C13   N1    A    
Cu2   O8    S    
C12   C26   A    
Cu1   O7    S    
C2    C4    S    
C33   O3    S    
C37   C38   A    
C3    C9    A    
C36   H32   S    
C31   C32   S    
C26   O3    S    
C22   C40   A    
C30   H16   S    
C17   C18   S    
C6    H7    S    
C30   O2    S    
C25   H5    S    
C36   H31   S    
C33   H27   S    
C21   C41   A    
C39   H6    S    
C20   C22   S    
C35   H29   S    
C38   H38   S    
C2    C24   A    
C41   H1    S    
C1    C5    S    
Cu1   O5    S    
Cu1   Cu2   S    
C14   N1    A    
C12   C34   A    
C27   C28   S    
C27   H9    S    
C21   H3    S    
Cu1   N2    S    
C32   H20   S    
C29   H14   S    
C3    C5    A    
C28   H10   S    
C19   H2    S    
C6    C7    A    
C4    O5    A    
C29   H13   S    
C13   C17   A    
Cu2   O4    S    
C38   C39   A    
C23   C39   A    
C33   C35   S    
Cu1   O9    S    
C14   H35   S    
C3    C11   S    
C36   H30   S    
C24   H25   S    
C21   C37   A    
C29   H15   S    
C16   O8    A    
C18   H37   S    
C2    C23   A    
Cu2   N1    S    
C14   C15   A    
C27   O11   S    
C17   N2    A    
C32   H22   S    
