data_mof_unit_30382.cif
_audit_creation_date              2012-12-10T17:13:35-0500
_audit_creation_method            fapswitch 2.2
_symmetry_space_group_name_H-M    P1
_symmetry_Int_Tables_number       1
_space_group_crystal_system       triclinic
_cell_length_a                    10.84161
_cell_length_b                    12.999492
_cell_length_c                    11.702155
_cell_angle_alpha                 100.401455
_cell_angle_beta                  95.022009
_cell_angle_gamma                 91.505227
_cell_volume                      1614.42822357

loop_
_atom_site_label
_atom_site_type_symbol
_atom_type_description
_atom_site_fract_x
_atom_site_fract_y
_atom_site_fract_z
_atom_type_partial_charge
C1    C     C_R   0.502020 0.298793 0.477705 0.847818
C2    C     C_3   0.879089 0.503974 0.508543 -0.027189
C3    C     C_3   0.923890 0.608661 0.469527 -0.193975
C4    C     C_3   0.919854 0.412710 0.413624 0.207470
C5    C     C_R   0.501895 0.814329 0.534898 -0.029826
C6    C     C_R   0.509411 0.184661 0.463464 -0.070805
C7    C     C_R   0.548221 0.013419 0.352934 -0.197432
C8    C     C_R   0.542434 0.121464 0.358945 0.173229
C9    C     C_R   0.485905 0.138203 0.559163 -0.293074
C10   C     C_R   0.492870 0.030769 0.552454 0.162552
C11   C     C_R   0.523201 0.968109 0.448183 0.130933
C12   C     C_R   0.260284 0.505709 0.500262 0.871065
C13   C     C_R   0.527525 0.860409 0.440064 -0.247740
C14   C     C_R   0.474277 0.876746 0.639613 -0.157752
C15   C     C_R   0.469392 0.984765 0.648253 -0.190299
C16   C     C_R   0.393855 0.389104 0.019184 -0.301158
C17   C     C_R   0.403409 0.402083 0.141815 0.079275
C18   C     C_R   0.541159 0.548749 0.158871 0.073303
C19   C     C_R   0.532860 0.539545 0.035916 -0.061337
C20   C     C_R   0.457966 0.459311 0.963544 -0.031339
C21   C     C_R   0.451926 0.452110 0.838612 0.508342
C22   C     C_R   0.593381 0.599502 0.863512 0.502271
C23   C     C_R   0.501484 0.700933 0.521933 0.812425
C24   C     C_R   0.598179 0.609711 0.984835 -0.307449
C25   C     C_R   0.740368 0.499188 0.501903 0.842801
C26   C     C_3   0.088068 0.514525 0.631995 -0.006629
C27   C     C_3   0.946035 0.488405 0.633191 0.519694
C28   C     C_3   0.068449 0.608402 0.452824 0.554783
C29   C     C_3   0.062690 0.407312 0.427332 -0.547948
C30   C     C_3   0.122730 0.511115 0.502226 -0.070434
Cu1   Cu    Cu3+1 0.509350 0.507730 0.615930 0.971577
Cu2   Cu    Cu3+1 0.490650 0.492270 0.384070 0.937640
H1    H     H_    0.890635 0.429222 0.325178 0.103868
H2    H     H_    0.873885 0.605520 0.381404 0.166410
H3    H     H_    0.550545 0.812403 0.359512 0.143451
H4    H     H_    0.454211 0.841947 0.713716 0.169106
H5    H     H_    0.572329 0.964160 0.273596 0.136761
H6    H     H_    0.446422 0.032047 0.729117 0.140433
H7    H     H_    0.461192 0.185652 0.639336 0.194111
H8    H     H_    0.136157 0.448609 0.663504 0.213353
H9    H     H_    0.337749 0.323171 0.970205 0.139158
H10   H     H_    0.654399 0.673285 0.039316 0.169550
H11   H     H_    0.352718 0.348075 0.182626 0.116996
H12   H     H_    0.599713 0.610228 0.213951 0.107810
H13   H     H_    0.097545 0.390076 0.339636 0.166280
H14   H     H_    0.089646 0.340348 0.470211 0.233785
N1    N     N_R   0.523430 0.519360 0.790130 -0.244040
N2    N     N_R   0.476570 0.480640 0.209880 -0.181428
O1    O     O_R   0.506640 0.354460 0.582000 -0.532881
O2    O     O_R   0.490840 0.341410 0.386200 -0.594172
O3    O     O_R   0.325590 0.506510 0.597900 -0.554980
O4    O     O_R   0.309790 0.493450 0.402100 -0.596919
O5    O     O_R   0.509160 0.658590 0.613800 -0.598781
O6    O     O_R   0.493360 0.645540 0.418000 -0.592932
O7    O     O_R   0.690210 0.506550 0.597900 -0.631804
O8    O     O_R   0.674410 0.493490 0.402100 -0.592776
C31   C     C_3   0.142262 0.612958 0.722059 -0.859720
H15   H     H_    0.166121 0.590823 0.808450 0.227595
H16   H     H_    0.228252 0.647970 0.698199 0.270566
H17   H     H_    0.077273 0.677005 0.734910 0.224778
C32   C     C_3   0.084104 0.601915 0.320904 -0.770688
H18   H     H_    0.041802 0.670554 0.290938 0.223786
H19   H     H_    0.182989 0.606181 0.304337 0.262244
H20   H     H_    0.038608 0.531148 0.264642 0.169320
C33   C     C_3   0.574091 0.165621 0.253787 -0.809339
H21   H     H_    0.608075 0.104929 0.185614 0.212392
H22   H     H_    0.490386 0.197411 0.213650 0.231774
H23   H     H_    0.648576 0.227801 0.279424 0.257252
O9    O     O_3   0.373642 0.379888 0.763885 -0.713595
H24   H     H_    0.299188 0.366724 0.803049 0.296156
O10   O     O_3   0.658205 0.675822 0.823562 -0.750850
H25   H     H_    0.672777 0.649673 0.742504 0.366863
O11   O     O_3   0.934812 0.381413 0.641762 -0.704959
H26   H     H_    0.845478 0.361271 0.639286 0.360466
C34   C     C_3   0.896228 0.548025 0.747059 -0.786780
H27   H     H_    0.877950 0.630229 0.744240 0.222903
H28   H     H_    0.812027 0.508899 0.769434 0.239727
H29   H     H_    0.962397 0.545209 0.824174 0.227489
O12   O     O_3   0.137465 0.701150 0.506395 -0.733208
H30   H     H_    0.100754 0.737995 0.575158 0.342039
C35   C     C_3   0.875052 0.710942 0.536153 -0.877183
H31   H     H_    0.914864 0.732080 0.627435 0.232743
H32   H     H_    0.897362 0.776740 0.491571 0.256775
H33   H     H_    0.772770 0.705478 0.535769 0.226285
O13   O     O_3   0.863248 0.315788 0.421082 -0.711988
H34   H     H_    0.881146 0.265503 0.350546 0.326006

loop_
_geom_bond_atom_site_label_1
_geom_bond_atom_site_label_2
_ccdc_geom_bond_type
C24   H10   S    
O11   H26   S    
C19   C20   A    
C25   O8    A    
C35   H33   S    
C6    C9    A    
C35   H31   S    
C7    C8    A    
O13   H34   S    
C7    C11   A    
C26   C27   S    
C3    C28   S    
C13   H3    S    
C10   C15   A    
C14   H4    S    
C31   H16   S    
C9    H7    S    
C18   C19   A    
C32   H19   S    
C28   O12   S    
Cu2   O4    S    
C12   O4    A    
C16   C17   A    
C33   H22   S    
C3    C35   S    
C17   N2    A    
C2    C27   S    
C9    C10   A    
C5    C13   A    
C4    C29   S    
C28   C32   S    
C22   N1    A    
C8    C33   S    
Cu1   N1    S    
Cu2   N2    S    
C32   H18   S    
Cu1   O1    S    
C27   C34   S    
Cu2   O6    S    
C35   H32   S    
C23   O5    A    
C1    C6    S    
C31   H17   S    
C6    C8    A    
C4    O13   S    
C3    H2    S    
C34   H29   S    
C29   H13   S    
C32   H20   S    
C2    C4    S    
C34   H27   S    
C17   H11   S    
C15   H6    S    
C29   C30   S    
C18   H12   S    
Cu1   Cu2   S    
C5    C23   S    
C16   C20   A    
C33   H23   S    
C7    H5    S    
Cu1   O5    S    
C34   H28   S    
Cu2   O2    S    
C5    C14   A    
C26   C30   S    
C22   C24   A    
C22   O10   S    
C12   O3    A    
C23   O6    A    
C1    O2    A    
C4    H1    S    
C12   C30   S    
C25   O7    A    
Cu1   O3    S    
C18   N2    A    
C29   H14   S    
C28   C30   S    
C19   C24   A    
O10   H25   S    
C11   C13   A    
C26   H8    S    
C31   H15   S    
C2    C3    S    
C2    C25   S    
O9    H24   S    
C26   C31   S    
C10   C11   A    
O12   H30   S    
C20   C21   A    
C33   H21   S    
C21   O9    S    
C14   C15   A    
Cu1   O7    S    
C27   O11   S    
C1    O1    A    
C16   H9    S    
Cu2   O8    S    
C21   N1    A    
