data_mof_unit_56332.cif
_audit_creation_date              2012-12-10T20:40:00-0500
_audit_creation_method            fapswitch 2.2
_symmetry_space_group_name_H-M    P1
_symmetry_Int_Tables_number       1
_space_group_crystal_system       triclinic
_cell_length_a                    23.338008
_cell_length_b                    10.669568
_cell_length_c                    9.84861
_cell_angle_alpha                 89.936298
_cell_angle_beta                  90.320676
_cell_angle_gamma                 89.953397
_cell_volume                      2452.32679574

loop_
_atom_site_label
_atom_site_type_symbol
_atom_type_description
_atom_site_fract_x
_atom_site_fract_y
_atom_site_fract_z
_atom_type_partial_charge
C1    C     C_R   0.501846 0.259920 0.500111 0.884690
C2    C     C_R   0.970990 0.468852 0.742885 -0.158632
C3    C     C_R   0.030618 0.469938 0.743987 -0.159490
C4    C     C_R   0.060833 0.512223 0.629959 -0.015506
C5    C     C_R   0.030725 0.556981 0.515428 -0.021781
C6    C     C_R   0.060665 0.598803 0.400211 -0.015634
C7    C     C_R   0.030260 0.645018 0.287355 -0.159603
C8    C     C_R   0.970607 0.647799 0.288046 -0.159125
C9    C     C_R   0.120615 0.508943 0.626359 0.505681
C10   C     C_R   0.120422 0.590595 0.399980 0.506401
C11   C     C_R   0.244259 0.637617 0.489614 -0.089532
C12   C     C_R   0.389673 0.498539 0.499715 0.870384
C13   C     C_R   0.303256 0.624351 0.484833 -0.256644
C14   C     C_R   0.328051 0.505701 0.499172 -0.041224
C15   C     C_R   0.293889 0.398038 0.517339 0.057209
C16   C     C_R   0.234410 0.412692 0.519726 -0.120725
C17   C     C_R   0.209745 0.531939 0.506832 0.278321
C18   C     C_R   0.764666 0.470491 0.402732 -0.091643
C19   C     C_R   0.705399 0.458226 0.399852 -0.220600
C20   C     C_R   0.672531 0.513255 0.502219 -0.036116
C21   C     C_R   0.698947 0.582972 0.605508 -0.215865
C22   C     C_R   0.757972 0.597954 0.606238 -0.088597
C23   C     C_R   0.501635 0.740128 0.499930 0.881277
C24   C     C_R   0.791100 0.540608 0.505822 0.295764
C25   C     C_R   0.512410 0.063751 0.623324 0.145665
C26   C     C_R   0.511342 0.128672 0.500641 -0.108421
C27   C     C_R   0.521006 0.064937 0.378387 -0.222324
C28   C     C_R   0.520752 0.935438 0.378234 -0.221627
C29   C     C_R   0.510790 0.871480 0.500303 -0.108423
C30   C     C_R   0.512054 0.935925 0.623084 0.126719
C31   C     C_3   0.472484 0.928949 0.741715 -0.474132
C32   C     C_3   0.472964 0.071000 0.742222 -0.497335
C33   C     C_R   0.473522 0.405842 0.071030 0.210199
C34   C     C_R   0.610624 0.501574 0.500417 0.868219
C35   C     C_R   0.530481 0.586336 0.072337 -0.121241
C36   C     C_R   0.530511 0.586309 0.928231 -0.126840
C37   C     C_R   0.473362 0.406130 0.928356 0.212313
C38   C     C_3   0.411237 0.374022 0.922142 -0.495470
C39   C     C_3   0.411539 0.372643 0.076256 -0.509097
C40   C     C_R   0.880495 0.600265 0.401964 0.503938
C41   C     C_R   0.880842 0.506737 0.622890 0.505185
C42   C     C_R   0.940596 0.511555 0.628408 -0.012863
C43   C     C_R   0.970507 0.557864 0.515228 -0.021628
C44   C     C_R   0.940357 0.602977 0.400937 -0.013272
H1    H     H_    0.948865 0.433716 0.831491 0.194320
H2    H     H_    0.685347 0.404188 0.319579 0.159660
H3    H     H_    0.673847 0.627554 0.684118 0.154800
H4    H     H_    0.778096 0.653170 0.685399 0.156595
H5    H     H_    0.524533 0.113994 0.282424 0.172797
H6    H     H_    0.524257 0.886627 0.282231 0.168734
H7    H     H_    0.429988 0.888503 0.714896 0.206934
H8    H     H_    0.493542 0.887130 0.832622 0.203527
H9    H     H_    0.430721 0.113014 0.716157 0.194391
H10   H     H_    0.494341 0.111348 0.833357 0.207915
H11   H     H_    0.554167 0.657471 0.127039 0.146349
H12   H     H_    0.052883 0.435541 0.833362 0.195278
H13   H     H_    0.554237 0.657387 0.873985 0.143629
H14   H     H_    0.384666 0.450731 0.878288 0.231445
H15   H     H_    0.403563 0.280155 0.877053 0.193152
H16   H     H_    0.384810 0.447898 0.121577 0.231613
H17   H     H_    0.404655 0.277562 0.119316 0.196856
H18   H     H_    0.052389 0.678259 0.197905 0.194581
H19   H     H_    0.948334 0.683116 0.199108 0.193920
H20   H     H_    0.225280 0.729925 0.480521 0.152506
H21   H     H_    0.329762 0.706886 0.471983 0.143294
H22   H     H_    0.206919 0.331682 0.531767 0.144992
H23   H     H_    0.790127 0.424988 0.325505 0.156545
N1    N     N_R   0.852131 0.550478 0.510737 -0.356291
N2    N     N_R   0.148942 0.545335 0.511582 -0.353340
N3    N     N_R   0.499610 0.499140 0.142800 -0.106807
N4    N     N_R   0.499610 0.499180 0.857150 -0.105655
O1    O     O_R   0.500010 0.316790 0.614690 -0.615374
O2    O     O_2   0.851636 0.456459 0.727577 -0.557202
O3    O     O_2   0.150345 0.469330 0.736304 -0.554734
O4    O     O_2   0.149798 0.625174 0.288379 -0.554096
O5    O     O_R   0.500000 0.316760 0.385350 -0.627918
O6    O     O_R   0.416160 0.499980 0.614700 -0.617506
O7    O     O_R   0.416150 0.499940 0.385360 -0.619425
O8    O     O_R   0.500000 0.683240 0.614650 -0.620907
O9    O     O_R   0.499990 0.683210 0.385310 -0.623875
O10   O     O_R   0.583850 0.500060 0.614640 -0.616162
O11   O     O_R   0.583840 0.500020 0.385300 -0.616702
O12   O     O_2   0.850772 0.646784 0.295255 -0.557080
Zn1   Zn    Zn3+2 0.500000 0.500020 0.653130 0.947763
Zn2   Zn    Zn3+2 0.500000 0.499980 0.346870 0.944453
C45   C     C_3   0.319400 0.268332 0.535082 -0.445057
C46   C     C_3   0.339035 0.214177 0.398815 -0.348699
C47   C     C_3   0.356625 0.076899 0.412637 -0.873587
H24   H     H_    0.391063 0.066376 0.489788 0.263817
H25   H     H_    0.319301 0.018914 0.442913 0.261967
H26   H     H_    0.372840 0.042160 0.313787 0.255871
H27   H     H_    0.303712 0.221125 0.322926 0.237714
H28   H     H_    0.376172 0.268237 0.360608 0.233584
H29   H     H_    0.355976 0.271826 0.607754 0.196731
H30   H     H_    0.287029 0.204347 0.580162 0.216112

loop_
_geom_bond_atom_site_label_1
_geom_bond_atom_site_label_2
_ccdc_geom_bond_type
C22   H4    S    
C46   C47   S    
C17   N2    S    
C41   C42   A    
C47   H25   S    
C19   C20   A    
C31   H8    S    
C19   H2    S    
C7    C8    A    
C13   H21   S    
C26   C27   A    
C37   C38   S    
C18   C24   A    
C23   C29   S    
C28   C29   A    
C9    N2    A    
O8    Zn1   S    
C15   C16   A    
C18   C19   A    
C10   O4    S    
C45   H29   S    
C38   H14   S    
C28   H6    S    
C35   C36   A    
C35   N3    A    
C16   C17   A    
C12   O7    A    
C34   O10   A    
C23   O9    A    
C29   C30   A    
C36   N4    A    
C20   C34   S    
C25   C32   S    
C5    C43   A    
C13   C14   A    
C40   O12   S    
C32   H10   S    
C41   N1    A    
C2    H1    S    
C38   C39   S    
C39   H17   S    
C1    O1    A    
C35   H11   S    
C36   H13   S    
C45   C46   S    
O6    Zn1   S    
C25   C26   A    
C33   C37   A    
C43   C44   A    
C7    H18   S    
O9    Zn2   S    
C3    H12   S    
C31   C32   S    
C47   H26   S    
C30   C31   S    
C12   O6    A    
C33   C39   S    
C20   C21   A    
O1    Zn1   S    
C33   N3    A    
C15   C45   S    
O7    Zn2   S    
C12   C14   S    
C11   H20   S    
C37   N4    A    
C40   N1    A    
C1    C26   S    
C22   C24   A    
C16   H22   S    
C9    O3    S    
C3    C4    A    
C32   H9    S    
O10   Zn1   S    
C46   H27   S    
N4    Zn1   S    
C25   C30   A    
C11   C17   A    
C1    O5    A    
C8    C44   A    
C31   H7    S    
C4    C5    A    
C6    C10   A    
C6    C7    A    
O11   Zn2   S    
C2    C3    A    
C18   H23   S    
C11   C13   A    
C5    C6    A    
C2    C42   A    
C39   H16   S    
C46   H28   S    
C45   H30   S    
C24   N1    S    
C8    H19   S    
C41   O2    S    
C38   H15   S    
C10   N2    A    
C40   C44   A    
C47   H24   S    
C42   C43   A    
C27   C28   A    
C14   C15   A    
C34   O11   A    
C23   O8    A    
C4    C9    A    
C21   C22   A    
N3    Zn2   S    
O5    Zn2   S    
C27   H5    S    
C21   H3    S    
