data_mof_unit_66175.cif
_audit_creation_date              2013-03-05T16:31:08-0500
_audit_creation_method            fapswitch 2.2
_symmetry_space_group_name_H-M    P1
_symmetry_Int_Tables_number       1
_space_group_crystal_system       triclinic
_cell_length_a                    38.532968
_cell_length_b                    32.072514
_cell_length_c                    21.852161
_cell_angle_alpha                 90.006435
_cell_angle_beta                  56.221838
_cell_angle_gamma                 90.067286
_cell_volume                      22447.2497715

loop_
_atom_site_label
_atom_site_type_symbol
_atom_site_description
_atom_site_fract_x
_atom_site_fract_y
_atom_site_fract_z
_atom_type_partial_charge
O1    O     O_R   0.939010 0.534400 0.560970 -0.620874
O2    O     O_R   0.060990 0.534400 0.439030 -0.614134
O3    O     O_R   0.439010 0.034400 0.560970 -0.621073
O4    O     O_R   0.560990 0.034400 0.439030 -0.613974
O5    O     O_R   0.938970 0.465540 0.561010 -0.583982
O6    O     O_R   0.061030 0.465540 0.438990 -0.595434
O7    O     O_R   0.438970 0.965540 0.561010 -0.583808
O8    O     O_R   0.561030 0.965540 0.438990 -0.595326
C1    C     C_R   0.919393 0.499929 0.583166 0.936754
C2    C     C_R   0.080660 0.499971 0.417982 0.938198
C3    C     C_R   0.419387 0.999927 0.583063 0.936856
C4    C     C_R   0.580658 0.999973 0.417912 0.938055
O9    O     O_R   0.999990 0.534400 0.407410 -0.595619
O10   O     O_R   0.000010 0.534400 0.592590 -0.603841
O11   O     O_R   0.499990 0.034400 0.407410 -0.596722
O12   O     O_R   0.500010 0.034400 0.592590 -0.603575
O13   O     O_R   0.999950 0.465540 0.407450 -0.632707
O14   O     O_R   0.000050 0.465540 0.592550 -0.629612
O15   O     O_R   0.499950 0.965540 0.407450 -0.632305
O16   O     O_R   0.500050 0.965540 0.592550 -0.629762
C5    C     C_R   0.999512 0.500142 0.379091 1.023394
C6    C     C_R   0.000049 0.500162 0.621277 1.022144
C7    C     C_R   0.499566 0.000147 0.379049 1.023311
C8    C     C_R   0.500055 0.000160 0.621273 1.022568
Zn1   Zn    Zn3+2 0.000000 0.545950 0.500000 1.090356
Zn2   Zn    Zn3+2 0.500000 0.045950 0.500000 1.089442
Zn3   Zn    Zn3+2 0.000000 0.454000 0.500000 1.096802
Zn4   Zn    Zn3+2 0.500000 0.954000 0.500000 1.097091
C9    C     C_1   0.999818 0.375079 0.000886 0.029240
C10   C     C_1   0.499916 0.875124 0.000450 0.031988
C11   C     C_1   0.499986 0.624464 0.000039 -0.141399
C12   C     C_1   0.001266 0.124500 0.998737 -0.137221
C13   C     C_R   0.999514 0.293189 0.001472 -0.155610
C14   C     C_R   0.499860 0.793283 0.000470 -0.157591
C15   C     C_R   0.993390 0.271712 0.951997 0.213395
C16   C     C_R   0.008445 0.271681 0.047334 0.212515
C17   C     C_R   0.489402 0.771780 0.956685 0.215373
C18   C     C_R   0.510336 0.771734 0.044157 0.215116
C19   C     C_3   0.011983 0.545171 0.274181 0.075738
C20   C     C_3   0.983097 0.543731 0.730057 0.076298
C21   C     C_3   0.512733 0.044996 0.273545 0.074901
C22   C     C_3   0.483263 0.043780 0.729916 0.076485
H1    H     H_    0.986674 0.565426 0.314855 0.181126
H2    H     H_    0.006064 0.566654 0.691575 0.184271
H3    H     H_    0.487765 0.065666 0.313906 0.181744
H4    H     H_    0.506319 0.066612 0.691347 0.184160
C23   C     C_3   0.012322 0.546430 0.201464 0.259147
C24   C     C_3   0.982725 0.545111 0.802831 0.266969
C25   C     C_3   0.513078 0.046276 0.200820 0.259894
C26   C     C_3   0.482897 0.045156 0.802682 0.266900
C27   C     C_3   0.030239 0.465222 0.256638 -0.007629
C28   C     C_3   0.973021 0.462401 0.740283 -0.001778
C29   C     C_3   0.529746 0.964789 0.257106 -0.008005
C30   C     C_3   0.472881 0.962486 0.740415 -0.001798
C31   C     C_3   0.952165 0.490885 0.335007 0.206978
C32   C     C_3   0.048129 0.496222 0.664307 0.209952
C33   C     C_3   0.452069 0.991690 0.335172 0.206893
C34   C     C_3   0.548113 0.996019 0.664337 0.209874
C35   C     C_3   0.999346 0.500508 0.311451 -0.371105
C36   C     C_3   0.000206 0.500656 0.688813 -0.373034
C37   C     C_3   0.499400 0.000539 0.311429 -0.371275
C38   C     C_3   0.500209 0.000643 0.688817 -0.373062
C39   C     C_3   0.000646 0.499078 0.189460 -0.474411
C40   C     C_3   0.999191 0.499193 0.810510 -0.479280
C41   C     C_3   0.500658 0.999109 0.189482 -0.475365
C42   C     C_3   0.499188 0.999177 0.810520 -0.479166
C43   C     C_3   0.036044 0.466537 0.179126 0.322192
C44   C     C_3   0.967231 0.463231 0.817813 0.322819
C45   C     C_3   0.535544 0.966029 0.179597 0.321267
C46   C     C_3   0.467091 0.963332 0.817947 0.323353
C47   C     C_3   0.954358 0.483112 0.259975 0.325658
C48   C     C_3   0.046810 0.487956 0.738382 0.329067
C49   C     C_3   0.454130 0.983848 0.260280 0.329885
C50   C     C_3   0.546764 0.987768 0.738441 0.328949
H5    H     H_    0.013344 0.436087 0.283247 0.162863
H6    H     H_    0.992793 0.435166 0.710830 0.164528
H7    H     H_    0.512404 0.935914 0.284160 0.163219
H8    H     H_    0.492547 0.935174 0.711069 0.164409
C51   C     C_R   0.727922 0.466284 0.800471 0.183876
C52   C     C_R   0.271589 0.485809 0.174900 0.183218
C53   C     C_R   0.227923 0.966272 0.800254 0.183544
C54   C     C_R   0.771588 0.986481 0.174424 0.183412
C55   C     C_R   0.706365 0.501442 0.799413 -0.192586
C56   C     C_R   0.293705 0.503087 0.202873 -0.193838
C57   C     C_R   0.206365 0.001464 0.799324 -0.193129
C58   C     C_R   0.793712 0.003072 0.202878 -0.193530
C59   C     C_R   0.727966 0.535739 0.753248 0.273974
C60   C     C_R   0.272684 0.518713 0.275213 0.271746
C61   C     C_R   0.227959 0.035779 0.753207 0.275119
C62   C     C_R   0.772702 0.018032 0.275636 0.270769
C63   C     C_R   0.771731 0.534671 0.707140 0.078142
C64   C     C_R   0.228917 0.516923 0.320277 0.091386
C65   C     C_R   0.271721 0.034693 0.707009 0.078322
C66   C     C_R   0.728931 0.016299 0.320620 0.091911
C67   C     C_R   0.793298 0.499434 0.707861 -0.135732
C68   C     C_R   0.206763 0.499358 0.292580 -0.133329
C69   C     C_R   0.293291 0.999428 0.707625 -0.136109
C70   C     C_R   0.706766 0.999388 0.292455 -0.132965
C71   C     C_R   0.771731 0.465297 0.754383 0.214113
C72   C     C_R   0.227777 0.483924 0.220126 0.204028
C73   C     C_R   0.271729 0.965273 0.754099 0.213943
C74   C     C_R   0.727774 0.984605 0.219591 0.203738
C75   C     C_1   0.661746 0.500881 0.841628 0.171728
C76   C     C_1   0.338301 0.501740 0.159218 0.171791
C77   C     C_1   0.161745 0.000913 0.841593 0.171487
C78   C     C_1   0.838306 0.001708 0.159201 0.171965
C79   C     C_1   0.837907 0.499559 0.664157 0.090355
C80   C     C_1   0.162153 0.499702 0.337011 0.086160
C81   C     C_1   0.337901 0.999553 0.663921 0.090165
C82   C     C_1   0.662154 0.999728 0.336898 0.085966
C83   C     C_1   0.875196 0.499787 0.627413 -0.083706
C84   C     C_1   0.124861 0.499937 0.374010 -0.088190
C85   C     C_1   0.375190 0.999782 0.627220 -0.084362
C86   C     C_1   0.624861 0.999948 0.373912 -0.088071
C87   C     C_1   0.624434 0.500401 0.877173 -0.062780
C88   C     C_1   0.375597 0.500743 0.122954 -0.061562
C89   C     C_1   0.124433 0.000426 0.877166 -0.065124
C90   C     C_1   0.875601 0.000715 0.122940 -0.059790
C91   C     C_1   0.499960 0.661752 0.000116 0.076662
C92   C     C_1   0.002652 0.161780 0.997201 0.077763
O17   O     O_R   0.965540 0.560940 0.034450 -0.617731
O18   O     O_R   0.034460 0.560940 0.965550 -0.627350
O19   O     O_R   0.465540 0.060940 0.034450 -0.619152
O20   O     O_R   0.534460 0.060940 0.965550 -0.626724
C93   C     C_R   0.000030 0.580620 0.000255 1.014450
C94   C     C_R   0.500030 0.080621 0.000198 1.015114
O21   O     O_R   0.965550 0.499950 0.127040 -0.570358
O22   O     O_R   0.034450 0.499950 0.872960 -0.568196
O23   O     O_R   0.465550 0.999950 0.127040 -0.569888
O24   O     O_R   0.534450 0.999950 0.872960 -0.568580
O25   O     O_R   0.034410 0.500000 0.058200 -0.615555
O26   O     O_R   0.965590 0.500000 0.941800 -0.619319
O27   O     O_R   0.534410 0.000000 0.058200 -0.616214
O28   O     O_R   0.465590 0.000000 0.941800 -0.619195
C95   C     C_R   0.000223 0.499259 0.121510 1.052922
C96   C     C_R   0.999753 0.499497 0.878444 1.061144
C97   C     C_R   0.500224 0.999306 0.121522 1.053567
C98   C     C_R   0.499752 0.999481 0.878447 1.060528
Zn5   Zn    Zn3+2 0.954000 0.499940 0.045990 1.129106
Zn6   Zn    Zn3+2 0.046000 0.499940 0.954010 1.135816
Zn7   Zn    Zn3+2 0.454000 0.999940 0.045990 1.128177
Zn8   Zn    Zn3+2 0.546000 0.999940 0.954010 1.138335
O29   O     O_R   0.965550 0.438960 0.034430 -0.574649
O30   O     O_R   0.034450 0.438960 0.965570 -0.577518
O31   O     O_R   0.465550 0.938960 0.034430 -0.577087
O32   O     O_R   0.534450 0.938960 0.965570 -0.572919
C99   C     C_1   0.999604 0.337797 0.001328 0.172599
C100  C     C_1   0.499882 0.837859 0.000503 0.173854
C101  C     C_R   0.999962 0.419269 0.000403 1.028157
C102  C     C_R   0.499974 0.919285 0.000296 1.027520
O33   O     O_R   0.499940 0.439020 0.947690 -0.590482
O34   O     O_R   0.500060 0.439020 0.052310 -0.588550
O35   O     O_R   0.999940 0.939020 0.947690 -0.590605
O36   O     O_R   0.000060 0.939020 0.052310 -0.588614
C103  C     C_R   0.500000 0.419789 0.000001 0.867922
C104  C     C_R   0.999998 0.919788 0.000003 0.867836
O37   O     O_R   0.560960 0.500010 0.886780 -0.603792
O38   O     O_R   0.439040 0.500010 0.113220 -0.594111
O39   O     O_R   0.060960 0.000010 0.886780 -0.603793
O40   O     O_R   0.939040 0.000010 0.113220 -0.591619
O41   O     O_R   0.560970 0.499940 0.991330 -0.593611
O42   O     O_R   0.439030 0.499940 0.008670 -0.591746
O43   O     O_R   0.060970 0.999940 0.991330 -0.595895
O44   O     O_R   0.939030 0.999940 0.008670 -0.591667
C105  C     C_R   0.580223 0.499995 0.920193 0.874224
C106  C     C_R   0.419785 0.499973 0.079805 0.865460
C107  C     C_R   0.080223 0.000004 0.920192 0.870464
C108  C     C_R   0.919787 0.999963 0.079802 0.867365
Zn9   Zn    Zn3+2 0.499970 0.500020 0.930220 1.081082
Zn10  Zn    Zn3+2 0.500030 0.500020 0.069780 1.086530
Zn11  Zn    Zn3+2 0.999970 0.000020 0.930220 1.081369
Zn12  Zn    Zn3+2 0.000030 0.000020 0.069780 1.089339
O45   O     O_R   0.500000 0.561000 0.947810 -0.606623
O46   O     O_R   0.500000 0.561000 0.052190 -0.605432
O47   O     O_R   0.000000 0.061000 0.947810 -0.606488
O48   O     O_R   1.000000 0.061000 0.052190 -0.602129
C109  C     C_R   0.500004 0.580275 0.000000 0.882354
C110  C     C_R   0.000099 0.080292 0.999905 0.879327
C111  C     C_R   0.523781 0.272074 0.932906 0.262599
C112  C     C_R   0.476418 0.272114 0.067634 0.260866
C113  C     C_R   0.024132 0.772057 0.933064 0.262740
C114  C     C_R   0.975999 0.772118 0.067652 0.260789
C115  C     C_R   0.500082 0.293707 0.000212 -0.197256
C116  C     C_R   0.000051 0.793701 0.000286 -0.197299
C117  C     C_R   0.976105 0.728320 0.067738 0.087973
C118  C     C_R   0.024080 0.728267 0.933261 0.088552
C119  C     C_R   0.476527 0.228317 0.067693 0.087851
C120  C     C_R   0.523721 0.228284 0.933075 0.088523
C121  C     C_R   0.000112 0.706654 0.000559 -0.071174
C122  C     C_R   0.500136 0.206658 0.000431 -0.071130
C123  C     C_1   0.500044 0.338308 0.000089 0.170359
C124  C     C_1   0.000021 0.838304 0.000133 0.170382
C125  C     C_1   0.000090 0.662057 0.000602 -0.027097
C126  C     C_1   0.500107 0.162061 0.000466 -0.026915
C127  C     C_1   0.000078 0.624793 0.000472 -0.088269
C128  C     C_1   0.500083 0.124797 0.000366 -0.087448
C129  C     C_1   0.500019 0.375601 0.000011 -0.048511
C130  C     C_1   0.000007 0.875598 0.000029 -0.048484
C131  C     C_R   0.509442 0.727866 0.045350 0.075779
C132  C     C_R   0.490361 0.727915 0.955258 0.073356
C133  C     C_R   0.011398 0.227886 0.043506 0.078214
C134  C     C_R   0.996364 0.227940 0.948121 0.076971
C135  C     C_R   0.499923 0.706371 0.000239 0.008881
C136  C     C_R   0.004449 0.206402 0.995048 0.004821
N1    N     N_R   0.048553 0.564687 0.268728 0.246207
O49   O     O_R   0.042903 0.597447 0.308548 -0.360404
O50   O     O_R   0.086689 0.553443 0.220465 -0.244110
N2    N     N_R   0.944635 0.558811 0.737068 0.240984
O51   O     O_R   0.946897 0.591073 0.698764 -0.367701
O52   O     O_R   0.907821 0.544173 0.785382 -0.260233
N3    N     N_R   0.549627 0.063859 0.267822 0.245497
O53   O     O_R   0.544511 0.096580 0.307377 -0.360194
O54   O     O_R   0.587579 0.052088 0.219542 -0.243637
N4    N     N_R   0.444860 0.059022 0.736884 0.241223
O55   O     O_R   0.447239 0.091312 0.698533 -0.368030
O56   O     O_R   0.407993 0.044498 0.785201 -0.260439
N5    N     N_R   0.948359 0.438430 0.248000 0.225026
O57   O     O_R   0.955240 0.407199 0.277837 -0.361703
O58   O     O_R   0.936895 0.429385 0.203587 -0.313874
N6    N     N_R   0.057333 0.443940 0.745055 0.226177
O59   O     O_R   0.053022 0.412444 0.712303 -0.371219
O60   O     O_R   0.070809 0.435655 0.786762 -0.313090
N7    N     N_R   0.447421 0.939240 0.249121 0.223242
O61   O     O_R   0.453912 0.907949 0.279387 -0.369453
O62   O     O_R   0.435635 0.930297 0.205132 -0.322045
N8    N     N_R   0.557119 0.943720 0.745310 0.225916
O63   O     O_R   0.552708 0.912229 0.712671 -0.372339
O64   O     O_R   0.570522 0.935401 0.787115 -0.312472
N9    N     N_R   0.029994 0.423550 0.160734 0.258004
O65   O     O_R   0.023015 0.417550 0.109646 -0.339555
O66   O     O_R   0.043854 0.391691 0.177990 -0.228003
N10   N     N_R   0.977566 0.421146 0.832060 0.257443
O67   O     O_R   0.985788 0.416075 0.881750 -0.346212
O68   O     O_R   0.966496 0.387990 0.812518 -0.220692
N11   N     N_R   0.528816 0.923150 0.161872 0.258063
O69   O     O_R   0.521578 0.917277 0.111081 -0.338665
O70   O     O_R   0.542285 0.891084 0.179421 -0.224185
N12   N     N_R   0.477264 0.921204 0.832349 0.257167
O71   O     O_R   0.485456 0.916099 0.882070 -0.346712
O72   O     O_R   0.466053 0.888091 0.812955 -0.220932
N13   N     N_R   0.794290 0.430350 0.756896 0.263082
O73   O     O_R   0.823232 0.412123 0.696456 -0.324269
O74   O     O_R   0.786033 0.416713 0.819757 -0.241143
N14   N     N_R   0.204642 0.467794 0.191543 0.265694
O75   O     O_R   0.175761 0.439765 0.228005 -0.276868
O76   O     O_R   0.212347 0.481180 0.128916 -0.238467
N15   N     N_R   0.294293 0.930293 0.756492 0.263037
O77   O     O_R   0.323213 0.912095 0.695993 -0.324715
O78   O     O_R   0.286065 0.916594 0.819303 -0.241646
N16   N     N_R   0.704631 0.969164 0.190571 0.265627
O79   O     O_R   0.675763 0.941019 0.226219 -0.274622
O80   O     O_R   0.712324 0.983289 0.128351 -0.238390
N17   N     N_R   0.705325 0.430920 0.846053 0.247829
O81   O     O_R   0.713750 0.393551 0.818203 -0.282306
O82   O     O_R   0.676250 0.435914 0.915491 -0.329485
N18   N     N_R   0.293610 0.468654 0.101756 0.247830
O83   O     O_R   0.284613 0.431480 0.090638 -0.280720
O84   O     O_R   0.322765 0.490057 0.046035 -0.329775
N19   N     N_R   0.205331 0.930890 0.845780 0.248023
O85   O     O_R   0.213725 0.893540 0.817850 -0.282351
O86   O     O_R   0.176291 0.935848 0.915247 -0.330162
N20   N     N_R   0.793600 0.969997 0.100809 0.247815
O87   O     O_R   0.784562 0.933110 0.088650 -0.279507
O88   O     O_R   0.822787 0.991726 0.045696 -0.329076
N21   N     N_R   0.705587 0.571335 0.752063 0.226127
O89   O     O_R   0.675759 0.588163 0.813279 -0.375682
O90   O     O_R   0.715915 0.588001 0.689789 -0.326763
N22   N     N_R   0.295669 0.535718 0.303572 0.228239
O91   O     O_R   0.325545 0.562540 0.265137 -0.373806
O92   O     O_R   0.285771 0.525677 0.369125 -0.321991
N23   N     N_R   0.205574 0.071414 0.752167 0.225902
O93   O     O_R   0.175777 0.088210 0.813453 -0.386752
O94   O     O_R   0.215864 0.088146 0.689959 -0.328928
N24   N     N_R   0.795699 0.034290 0.304493 0.228339
O95   O     O_R   0.825596 0.061215 0.266864 -0.367161
O96   O     O_R   0.785781 0.023472 0.369744 -0.319993
N25   N     N_2   0.793842 0.569639 0.661384 -0.261327
H9    H     H_    0.819901 0.562194 0.610415 0.223055
C137  C     C_3   0.801781 0.602330 0.697690 -0.591922
H10   H     H_    0.822905 0.590833 0.713624 0.234819
H11   H     H_    0.772071 0.613282 0.747517 0.265840
H12   H     H_    0.816908 0.629170 0.659618 0.241983
N26   N     N_2   0.207478 0.533836 0.392814 -0.261260
H13   H     H_    0.180802 0.517988 0.431531 0.218674
C138  C     C_3   0.201545 0.578505 0.396168 -0.646917
H14   H     H_    0.179443 0.586630 0.380498 0.226757
H15   H     H_    0.231758 0.594723 0.358808 0.274233
H16   H     H_    0.188568 0.589559 0.453096 0.235710
N27   N     N_2   0.293831 0.069664 0.661261 -0.260890
H17   H     H_    0.319863 0.062218 0.610258 0.222946
C139  C     C_3   0.301825 0.102325 0.697541 -0.595858
H18   H     H_    0.322976 0.090796 0.713394 0.235154
H19   H     H_    0.272139 0.113280 0.747414 0.264870
H20   H     H_    0.316945 0.129171 0.659480 0.241683
N28   N     N_2   0.707512 0.032623 0.393566 -0.261617
H21   H     H_    0.680718 0.016781 0.431855 0.218684
C140  C     C_3   0.701887 0.077358 0.397971 -0.645645
H22   H     H_    0.679837 0.086152 0.382509 0.226319
H23   H     H_    0.732202 0.093485 0.360987 0.275019
H24   H     H_    0.688998 0.087878 0.455147 0.235893
N29   N     N_2   0.047719 0.706282 0.865194 -0.265216
H25   H     H_    0.061656 0.679281 0.866920 0.254294
C141  C     C_3   0.026398 0.700710 0.828342 -0.536140
H26   H     H_    0.998827 0.680020 0.861370 0.236528
H27   H     H_    0.048040 0.686254 0.773631 0.270900
H28   H     H_    0.016119 0.731240 0.819768 0.246657
N30   N     N_2   0.952392 0.706396 0.135929 -0.263114
H29   H     H_    0.938662 0.679191 0.134229 0.256515
C142  C     C_3   0.973447 0.701366 0.173346 -0.537472
H30   H     H_    0.001120 0.680842 0.140787 0.223445
H31   H     H_    0.951720 0.686971 0.228121 0.274411
H32   H     H_    0.983507 0.732085 0.181822 0.248843
N31   N     N_2   0.546969 0.206316 0.864936 -0.264728
H33   H     H_    0.560988 0.179273 0.866258 0.255003
C143  C     C_3   0.525200 0.200867 0.828857 -0.536385
H34   H     H_    0.497724 0.180099 0.862136 0.234983
H35   H     H_    0.546609 0.186562 0.773920 0.272033
H36   H     H_    0.514708 0.231425 0.820849 0.246386
N32   N     N_2   0.453239 0.206390 0.135935 -0.263445
H37   H     H_    0.439372 0.179181 0.134654 0.256396
C144  C     C_3   0.474828 0.201377 0.172408 -0.536656
H38   H     H_    0.502375 0.180745 0.139477 0.224467
H39   H     H_    0.453364 0.187122 0.227410 0.274502
H40   H     H_    0.485169 0.232088 0.180306 0.248426
N33   N     N_R   0.548228 0.294383 0.864330 0.227193
O97   O     O_R   0.586506 0.283267 0.815409 -0.307862
O98   O     O_R   0.531732 0.324591 0.848999 -0.362620
N34   N     N_R   0.451925 0.294469 0.136087 0.225035
O99   O     O_R   0.413656 0.283242 0.185039 -0.317368
O100  O     O_R   0.468369 0.324850 0.151271 -0.360041
N35   N     N_R   0.048952 0.794352 0.864551 0.227251
O101  O     O_R   0.087322 0.783233 0.816237 -0.308124
O102  O     O_R   0.032720 0.824551 0.848645 -0.362565
N36   N     N_R   0.951116 0.794484 0.136006 0.225057
O103  O     O_R   0.912749 0.783261 0.184333 -0.316643
O104  O     O_R   0.967281 0.824875 0.151753 -0.359945
N37   N     N_R   0.014648 0.294326 0.097364 0.223473
O105  O     O_R   0.987070 0.321349 0.142710 -0.276732
O106  O     O_R   0.048415 0.288905 0.096343 -0.319552
N38   N     N_R   0.984268 0.294381 0.905766 0.226237
O107  O     O_R   0.953596 0.320926 0.934486 -0.279707
O108  O     O_R   0.007199 0.289366 0.834717 -0.318609
N39   N     N_R   0.521633 0.794415 0.087401 0.226220
O109  O     O_R   0.551668 0.821749 0.056354 -0.283079
O110  O     O_R   0.501261 0.788639 0.158164 -0.319175
N40   N     N_R   0.478079 0.794505 0.913550 0.227159
O111  O     O_R   0.448076 0.821792 0.944697 -0.286029
O112  O     O_R   0.498419 0.788844 0.842774 -0.315491
N41   N     N_2   0.520366 0.705108 0.088431 -0.288687
H41   H     H_    0.542411 0.719294 0.094215 0.279952
C145  C     C_3   0.485264 0.688916 0.157226 -0.610624
H42   H     H_    0.465838 0.714838 0.194180 0.270223
H43   H     H_    0.496888 0.670203 0.185015 0.244588
H44   H     H_    0.465551 0.668414 0.147544 0.234800
N42   N     N_2   0.479472 0.705199 0.912057 -0.291128
H45   H     H_    0.457402 0.719335 0.906352 0.279726
C146  C     C_3   0.514597 0.689206 0.843177 -0.607058
H46   H     H_    0.533988 0.715236 0.806360 0.271091
H47   H     H_    0.502999 0.670512 0.815288 0.243619
H48   H     H_    0.534338 0.668736 0.852751 0.236003
N43   N     N_2   0.018573 0.205040 0.091526 -0.288927
H49   H     H_    0.007103 0.218740 0.141992 0.279461
C147  C     C_3   0.060675 0.189407 0.057406 -0.609922
H50   H     H_    0.083200 0.215665 0.038617 0.271394
H51   H     H_    0.069481 0.169209 0.009604 0.233180
H52   H     H_    0.062667 0.170521 0.097930 0.244157
N44   N     N_2   0.988553 0.205169 0.900816 -0.289407
H53   H     H_    0.967655 0.218895 0.891637 0.280816
C148  C     C_3   0.025558 0.189668 0.834096 -0.611179
H54   H     H_    0.045416 0.215996 0.798973 0.270197
H55   H     H_    0.016271 0.170815 0.802802 0.244605
H56   H     H_    0.044023 0.169472 0.847089 0.234141
N45   N     N_R   0.981800 0.577520 0.207768 0.149030
O113  O     O_R   0.978050 0.582585 0.152690 -0.460540
O114  O     O_R   0.967761 0.607546 0.255983 -0.445468
N46   N     N_R   0.010104 0.579104 0.799400 0.146681
O115  O     O_R   0.013672 0.584321 0.854657 -0.470578
O116  O     O_R   0.020546 0.610638 0.754816 -0.451545
N47   N     N_R   0.483018 0.077815 0.206705 0.148729
O117  O     O_R   0.479289 0.082898 0.151607 -0.462409
O118  O     O_R   0.469496 0.108080 0.254406 -0.446753
N48   N     N_R   0.510402 0.079047 0.799130 0.146914
O119  O     O_R   0.513979 0.084264 0.854377 -0.470298
O120  O     O_R   0.520993 0.110525 0.754386 -0.451613
N49   N     N_2   0.053785 0.560424 0.139534 -0.248151
H57   H     H_    0.064839 0.548225 0.088627 0.261672
C149  C     C_3   0.063823 0.604695 0.131440 -0.502821
H58   H     H_    0.052482 0.620183 0.100243 0.207190
H59   H     H_    0.098222 0.608625 0.100103 0.244090
H60   H     H_    0.049732 0.620520 0.185291 0.271553
N50   N     N_2   0.940060 0.555165 0.865592 -0.247173
H61   H     H_    0.929436 0.541807 0.915479 0.266373
C150  C     C_3   0.926033 0.598310 0.877296 -0.502588
H62   H     H_    0.936530 0.615161 0.908701 0.215997
H63   H     H_    0.891395 0.599034 0.909855 0.236967
H64   H     H_    0.938049 0.614996 0.824753 0.272033
N51   N     N_2   0.554746 0.059694 0.138743 -0.248280
H65   H     H_    0.565732 0.047333 0.087980 0.262351
C151  C     C_3   0.565396 0.103824 0.130103 -0.501278
H66   H     H_    0.554171 0.119520 0.098891 0.208062
H67   H     H_    0.599850 0.107281 0.098560 0.244020
H68   H     H_    0.551617 0.119788 0.183763 0.271384
N52   N     N_2   0.440272 0.055360 0.865420 -0.246934
H69   H     H_    0.429628 0.042046 0.915349 0.266197
C152  C     C_3   0.426399 0.098555 0.876984 -0.504434
H70   H     H_    0.436933 0.115357 0.908373 0.215521
H71   H     H_    0.391764 0.099400 0.909504 0.236813
H72   H     H_    0.438494 0.115212 0.824387 0.272035
N53   N     N_R   0.069880 0.459362 0.251511 0.285297
O121  O     O_R   0.091740 0.425817 0.220533 -0.219378
O122  O     O_R   0.082066 0.484446 0.282672 -0.319352
N54   N     N_R   0.934110 0.452368 0.744861 0.285672
O123  O     O_R   0.915925 0.416651 0.772218 -0.228320
O124  O     O_R   0.919240 0.476031 0.716444 -0.325820
N55   N     N_R   0.569308 0.958313 0.252021 0.285812
O125  O     O_R   0.590641 0.924435 0.221528 -0.219572
O126  O     O_R   0.581888 0.983183 0.282822 -0.317906
N56   N     N_R   0.433935 0.952606 0.745019 0.285549
O127  O     O_R   0.415603 0.916965 0.772528 -0.228226
O128  O     O_R   0.419174 0.976319 0.716472 -0.326130
N57   N     N_R   0.079242 0.478493 0.117703 0.223790
O129  O     O_R   0.105010 0.497868 0.128370 -0.243861
O130  O     O_R   0.095364 0.462059 0.052756 -0.279973
N58   N     N_R   0.923190 0.470813 0.880445 0.222136
O131  O     O_R   0.895199 0.486532 0.871749 -0.257083
O132  O     O_R   0.909435 0.454000 0.944343 -0.283797
N59   N     N_R   0.578900 0.977323 0.117949 0.223766
O133  O     O_R   0.605033 0.996199 0.128267 -0.242746
O134  O     O_R   0.594664 0.960761 0.053197 -0.274997
N60   N     N_R   0.423077 0.971078 0.880544 0.222242
O135  O     O_R   0.395156 0.986927 0.871784 -0.257605
O136  O     O_R   0.409239 0.954279 0.944485 -0.283104
N61   N     N_2   0.934678 0.454762 0.385758 -0.274595
H73   H     H_    0.953665 0.431089 0.382210 0.269574
C153  C     C_3   0.890748 0.443427 0.426451 -0.620650
H74   H     H_    0.881759 0.428964 0.479511 0.237796
H75   H     H_    0.885082 0.420117 0.395539 0.269512
H76   H     H_    0.870197 0.470672 0.439766 0.240423
N62   N     N_2   0.069177 0.462346 0.609554 -0.275456
H77   H     H_    0.052547 0.437194 0.609772 0.266776
C154  C     C_3   0.114001 0.455547 0.567808 -0.647572
H78   H     H_    0.124477 0.443012 0.512743 0.222227
H79   H     H_    0.121898 0.432221 0.595589 0.275674
H80   H     H_    0.131654 0.484614 0.558726 0.238831
N63   N     N_2   0.434026 0.955872 0.386538 -0.274550
H81   H     H_    0.452662 0.931962 0.383474 0.269485
C155  C     C_3   0.389929 0.945206 0.427437 -0.622821
H82   H     H_    0.380718 0.930969 0.480775 0.237272
H83   H     H_    0.383913 0.921913 0.396962 0.269487
H84   H     H_    0.369802 0.972749 0.440217 0.240303
N64   N     N_2   0.569032 0.962055 0.609727 -0.275382
H85   H     H_    0.552315 0.936950 0.610069 0.266887
C156  C     C_3   0.613831 0.955098 0.568004 -0.646917
H86   H     H_    0.624264 0.942539 0.512973 0.222251
H87   H     H_    0.621645 0.931736 0.595854 0.275828
H88   H     H_    0.631583 0.984101 0.558847 0.238843
N65   N     N_2   0.924469 0.526981 0.374352 -0.313919
H89   H     H_    0.924738 0.552280 0.345384 0.261599
C157  C     C_3   0.910028 0.537707 0.449131 -0.737337
H90   H     H_    0.929891 0.562562 0.449561 0.264462
H91   H     H_    0.909494 0.510183 0.479450 0.233942
H92   H     H_    0.877696 0.549880 0.477645 0.231087
N66   N     N_2   0.071852 0.535168 0.629281 -0.316071
H93   H     H_    0.069093 0.560064 0.661164 0.260225
C158  C     C_3   0.085861 0.547637 0.555383 -0.722281
H94   H     H_    0.064553 0.571390 0.556824 0.267233
H95   H     H_    0.088497 0.520704 0.522094 0.232302
H96   H     H_    0.117159 0.562093 0.528757 0.228520
N67   N     N_2   0.424962 0.028239 0.373896 -0.314377
H97   H     H_    0.425608 0.053499 0.344498 0.261488
C159  C     C_3   0.410554 0.039200 0.448576 -0.734275
H98   H     H_    0.430586 0.063952 0.448760 0.264722
H99   H     H_    0.409795 0.011758 0.479258 0.233529
H100  H     H_    0.378318 0.051613 0.476886 0.230461
N68   N     N_2   0.571988 0.034868 0.629145 -0.316190
H101  H     H_    0.569324 0.059780 0.660924 0.260368
C160  C     C_3   0.585975 0.047288 0.555240 -0.722746
H102  H     H_    0.564695 0.071065 0.556658 0.267355
H103  H     H_    0.588562 0.020332 0.522037 0.232233
H104  H     H_    0.617289 0.061705 0.528543 0.228761
N69   N     N_2   0.919927 0.506171 0.263558 -0.282220
H105  H     H_    0.922868 0.537041 0.249947 0.269625
C161  C     C_3   0.876606 0.493004 0.309812 -0.617847
H106  H     H_    0.860438 0.510168 0.362761 0.221044
H107  H     H_    0.873227 0.459036 0.320065 0.264361
H108  H     H_    0.860713 0.500842 0.281751 0.239994
N70   N     N_2   0.078740 0.514267 0.737583 -0.285847
H109  H     H_    0.072491 0.544409 0.755677 0.267208
C162  C     C_3   0.123197 0.505964 0.689642 -0.609974
H110  H     H_    0.137342 0.525431 0.639305 0.220793
H111  H     H_    0.130134 0.472693 0.674578 0.264794
H112  H     H_    0.138282 0.514718 0.718752 0.241073
N71   N     N_2   0.420064 0.007419 0.263469 -0.281973
H113  H     H_    0.423518 0.038205 0.249176 0.269241
C163  C     C_3   0.376533 0.994979 0.310038 -0.618634
H114  H     H_    0.360674 0.012488 0.362624 0.220858
H115  H     H_    0.372597 0.961087 0.321005 0.264239
H116  H     H_    0.360749 0.002983 0.281853 0.239688
N72   N     N_2   0.578795 0.013965 0.737525 -0.286080
H117  H     H_    0.572669 0.044139 0.755467 0.267328
C164  C     C_3   0.623219 0.005478 0.689647 -0.608242
H118  H     H_    0.637454 0.024886 0.639229 0.220645
H119  H     H_    0.630022 0.972179 0.674721 0.264930
H120  H     H_    0.638327 0.014172 0.718743 0.241400

loop_
_geom_bond_atom_site_label_1
_geom_bond_atom_site_label_2
_geom_bond_distance
_ccdc_geom_bond_type
C126  C128  1.195178 T    
N59   O133  1.297040 A    
C20   N2    1.484275 S    
C33   N63   1.481072 S    
C146  H46   1.110315 S    
C131  N41   1.427474 S    
C31   C35   1.619757 S    
C147  H51   1.110037 S    
N65   H89   1.025666 S    
Zn8   O32   1.989981 S    
C139  H18   1.111575 S    
C21   C37   1.583652 S    
C157  H90   1.108121 S    
C149  H60   1.107788 S    
C29   C45   1.580962 S    
N37   O105  1.301299 A    
C15   N38   1.438215 S    
C141  H27   1.109910 S    
N29   H25   1.031209 S    
O27   C97   1.274189 A    
C51   C71   1.405212 A    
N52   C152  1.456150 S    
C33   N67   1.483585 S    
C5    C35   1.481711 S    
C64   N26   1.426185 S    
C59   C63   1.403906 A    
N51   C151  1.455953 S    
C6    C36   1.479278 S    
C67   C71   1.407678 A    
C150  H63   1.110110 S    
N16   O80   1.301278 A    
N23   O93   1.301343 A    
C13   C16   1.408132 A    
N14   O75   1.301273 A    
C151  H67   1.110009 S    
N24   O95   1.301329 A    
O25   Zn6   2.062161 S    
C13   C99   1.430703 S    
O37   Zn9   1.985835 S    
C76   C88   1.195036 T    
C14   C100  1.429674 S    
C163  H114  1.108641 S    
N72   C164  1.452059 S    
O33   C103  1.300081 A    
C87   C105  1.416058 S    
N56   O128  1.298730 A    
Zn7   O31   1.990952 S    
C148  H56   1.110050 S    
C41   C97   1.494465 S    
N1    O50   1.296010 A    
C68   C80   1.428925 S    
C78   C90   1.194990 T    
C133  C136  1.408005 A    
C12   C110  1.418310 S    
C21   C25   1.582402 S    
N12   O72   1.302497 A    
C53   N19   1.438841 S    
N66   H93   1.025669 S    
O44   C108  1.297816 A    
N38   O107  1.301164 A    
C58   C62   1.408167 A    
C60   N22   1.440470 S    
C154  H80   1.104354 S    
C111  C120  1.404466 A    
O16   Zn4   2.057016 S    
N67   H97   1.025663 S    
O13   C5    1.275825 A    
O7    Zn4   1.990084 S    
C114  C117  1.404721 A    
C66   N28   1.426213 S    
C156  H88   1.104328 S    
O15   C7    1.275821 A    
C155  H83   1.107457 S    
C9    C99   1.195733 T    
N9    O65   1.299765 A    
C112  C119  1.404684 A    
N68   C160  1.445376 S    
O34   Zn10  1.993158 S    
N42   H45   1.031051 S    
C30   C46   1.581336 S    
N64   C156  1.453175 S    
O19   Zn7   1.990551 S    
N10   O68   1.302490 A    
O40   Zn12  1.985838 S    
O9    C5    1.266084 A    
Zn5   O29   1.990952 S    
N70   C162  1.452056 S    
C142  H30   1.111047 S    
O35   C104  1.300109 A    
O43   Zn12  1.994159 S    
O46   C109  1.297213 A    
O39   Zn11  1.985835 S    
C39   C47   1.661293 S    
C146  H48   1.109772 S    
N71   C163  1.452163 S    
O8    Zn4   1.989109 S    
C149  H58   1.110958 S    
C25   N47   1.489455 S    
C19   C23   1.582316 S    
Zn10  O46   1.993367 S    
C20   C24   1.582950 S    
C52   N18   1.438846 S    
O3    Zn2   1.987909 S    
C56   C60   1.408250 A    
O21   C95   1.273046 A    
N19   O86   1.301272 A    
C25   N51   1.476466 S    
N20   O88   1.301249 A    
C33   C37   1.619462 S    
C26   N48   1.488855 S    
C150  H62   1.111160 S    
N45   O114  1.302813 A    
C160  H103  1.097036 S    
C152  H70   1.111156 S    
O28   Zn7   2.062165 S    
C31   N61   1.481112 S    
C42   C46   1.628244 S    
O42   Zn9   1.994155 S    
N57   O130  1.303136 A    
O39   C107  1.298729 A    
O40   C108  1.298499 A    
N63   H81   1.027651 S    
C3    C85   1.415679 S    
N60   O136  1.303056 A    
C154  H79   1.107650 S    
C9    C101  1.417319 S    
O29   C101  1.271032 A    
C161  H108  1.110015 S    
O23   C97   1.273179 A    
C43   N9    1.489963 S    
C138  H15   1.110953 S    
C144  H38   1.111148 S    
C21   H3    1.095810 S    
N13   O74   1.301268 A    
N53   O121  1.301211 A    
O41   C105  1.297881 A    
C153  H75   1.107430 S    
N32   C144  1.445951 S    
N41   H41   1.031055 S    
C20   C36   1.580070 S    
C34   N68   1.483603 S    
C119  N32   1.426325 S    
C145  H42   1.110319 S    
C158  H96   1.107448 S    
C145  H44   1.109777 S    
N28   C140  1.446500 S    
C53   C73   1.405189 A    
O26   Zn5   2.062165 S    
O5    C1    1.271095 A    
C157  H91   1.097079 S    
O27   Zn8   2.062161 S    
C55   C75   1.429551 S    
C50   N72   1.483195 S    
C40   C44   1.628054 S    
N54   O123  1.301205 A    
C139  H19   1.111010 S    
C159  H99   1.096942 S    
N17   O81   1.301281 A    
N4    O56   1.296364 A    
N31   C143  1.445926 S    
C93   C127  1.416768 S    
C151  H66   1.110994 S    
C42   C50   1.663182 S    
C64   C68   1.409148 A    
C120  C122  1.408809 A    
N13   O73   1.301305 A    
C33   C49   1.613461 S    
N33   O98   1.301267 A    
C28   C36   1.598420 S    
O5    Zn3   1.990084 S    
C29   C37   1.597012 S    
O6    Zn3   1.989109 S    
C132  N42   1.427477 S    
N18   O84   1.301247 A    
N55   O126  1.298472 A    
C32   N62   1.480728 S    
C28   N54   1.481103 S    
C22   C38   1.580159 S    
O31   C102  1.271136 A    
C72   N14   1.438894 S    
O26   C96   1.274128 A    
C18   N39   1.438088 S    
O48   C110  1.297512 A    
O32   C102  1.271229 A    
N25   H9    1.030870 S    
N18   O83   1.301286 A    
C140  H23   1.110922 S    
C58   C78   1.428980 S    
N6    O59   1.300760 A    
N46   O116  1.302848 A    
N69   H105  1.021699 S    
C4    C86   1.415824 S    
C142  H31   1.109815 S    
C48   N6    1.498574 S    
C150  H64   1.107931 S    
C49   N7    1.497453 S    
O13   Zn3   2.057101 S    
O3    C3    1.272588 A    
C152  H72   1.107928 S    
O37   C105  1.298742 A    
N36   O103  1.301254 A    
O38   Zn10  1.985838 S    
C32   C48   1.612937 S    
N5    O57   1.300683 A    
C26   N52   1.477028 S    
N35   O102  1.301265 A    
O17   C93   1.271566 A    
C69   C81   1.428784 S    
N40   O112  1.300629 A    
C161  H106  1.108627 S    
C42   C98   1.496567 S    
O8    C4    1.270666 A    
C144  H40   1.110947 S    
N27   H17   1.030905 S    
C54   C74   1.405355 A    
C62   N24   1.440459 S    
C27   C43   1.580976 S    
O15   Zn4   2.057101 S    
N21   O90   1.301295 A    
C22   C26   1.582907 S    
N58   O131  1.297251 A    
N42   C146  1.447998 S    
C124  C130  1.196116 T    
N39   O110  1.300629 A    
C92   C136  1.432230 S    
C147  H52   1.110305 S    
O4    C4    1.272579 A    
C16   C133  1.408058 A    
C65   C69   1.408863 A    
C34   N64   1.480725 S    
C34   C50   1.612911 S    
O20   C94   1.271503 A    
N50   C150  1.456149 S    
C143  H36   1.110978 S    
C8    C38   1.479369 S    
O14   C6    1.275518 A    
C79   C83   1.194329 T    
N34   O99   1.301257 A    
C149  H59   1.109996 S    
C113  C118  1.404436 A    
N7    O62   1.302908 A    
C117  C121  1.408862 A    
N20   O87   1.301285 A    
C133  N43   1.427493 S    
O33   Zn9   1.993240 S    
O10   C6    1.264904 A    
O18   C93   1.271499 A    
N25   C137  1.446133 S    
O22   Zn6   2.052179 S    
O18   Zn6   1.991523 S    
C50   N8    1.498509 S    
N51   H65   1.022259 S    
C56   C76   1.429056 S    
C68   C72   1.408075 A    
C13   C15   1.407885 A    
N14   O76   1.301281 A    
C163  H116  1.110014 S    
N24   O96   1.301328 A    
C61   C65   1.403953 A    
O24   Zn8   2.052179 S    
C114  C116  1.409561 A    
C29   N55   1.480492 S    
C63   C67   1.408866 A    
N64   H85   1.027975 S    
C94   C128  1.416832 S    
C20   H2    1.096332 S    
C32   C36   1.618011 S    
N8    O63   1.300754 A    
C164  H120  1.109999 S    
N26   H13   1.030822 S    
C117  N30   1.426364 S    
Zn9   O45   1.993280 S    
C46   N12   1.488920 S    
N49   C149  1.455907 S    
C53   C57   1.409052 A    
Zn12  O48   1.993367 S    
C148  H55   1.110300 S    
O2    C2    1.272609 A    
C34   C38   1.618021 S    
C55   C59   1.408861 A    
C49   N71   1.483262 S    
N48   O119  1.299758 A    
C70   C82   1.428968 S    
C14   C17   1.407634 A    
C52   C56   1.408870 A    
C88   C106  1.415530 S    
C40   C96   1.496666 S    
N11   O69   1.299698 A    
N47   O117  1.299746 A    
C30   N56   1.481082 S    
N43   C147  1.447762 S    
N57   O129  1.296996 A    
C134  C136  1.407698 A    
N38   O108  1.300742 A    
N56   O127  1.301203 A    
O22   C96   1.274330 A    
C23   C39   1.645347 S    
C10   C102  1.416352 S    
O23   Zn7   2.052177 S    
C66   C70   1.409212 A    
C22   H4    1.096295 S    
C17   C132  1.407260 A    
C156  H87   1.107652 S    
C119  C122  1.408870 A    
O42   C106  1.297869 A    
N52   H69   1.021307 S    
N2    O51   1.302974 A    
C114  N36   1.440091 S    
C54   N20   1.438855 S    
C147  H50   1.110512 S    
C116  C124  1.430528 S    
C2    C84   1.415770 S    
O47   C110  1.297488 A    
O36   C104  1.299935 A    
C103  C129  1.417221 S    
N29   C141  1.445934 S    
C143  H34   1.111643 S    
C146  H47   1.110299 S    
C61   N23   1.440436 S    
N71   H113  1.021644 S    
C131  C135  1.408138 A    
N65   C157  1.444786 S    
N62   C154  1.453194 S    
C77   C89   1.195346 T    
N37   O106  1.300744 A    
C62   C66   1.403667 A    
C141  H28   1.110978 S    
N15   O78   1.301295 A    
O12   Zn2   2.057170 S    
C155  H82   1.110270 S    
C123  C129  1.196081 T    
C23   N45   1.489632 S    
C91   C135  1.431056 S    
N7    O61   1.300702 A    
N28   H21   1.030779 S    
C57   C61   1.408869 A    
C30   C38   1.598403 S    
C28   H6    1.101752 S    
N16   O79   1.301269 A    
C54   C58   1.408843 A    
N30   H29   1.031196 S    
C14   C18   1.407583 A    
C75   C87   1.195355 T    
N62   H77   1.027987 S    
C138  H14   1.111478 S    
C48   N70   1.483180 S    
N59   O134  1.303133 A    
C24   N50   1.477055 S    
N3    O53   1.303111 A    
O34   C103  1.299931 A    
C19   C35   1.584281 S    
O1    C1    1.272549 A    
C24   N46   1.488854 S    
C60   C64   1.403698 A    
C11   C91   1.195902 T    
C67   C79   1.428768 S    
C59   N21   1.440438 S    
C161  H107  1.105128 S    
C73   N15   1.438819 S    
O38   C106  1.298485 A    
N49   H57   1.022451 S    
C113  C116  1.409392 A    
C134  N44   1.427524 S    
N12   O71   1.299423 A    
C104  C130  1.417282 S    
Zn6   O30   1.989981 S    
O19   C94   1.271582 A    
O6    C2    1.270584 A    
O4    Zn2   1.988882 S    
C145  H43   1.110301 S    
C15   C134  1.407371 A    
C10   C100  1.195156 T    
C138  H16   1.109895 S    
C47   N5    1.497308 S    
C65   N27   1.426237 S    
C43   N57   1.494530 S    
C118  C121  1.408777 A    
N54   O124  1.298731 A    
C155  H84   1.104804 S    
N9    O66   1.302611 A    
N35   O101  1.301257 A    
C70   C74   1.408115 A    
C137  H11   1.111009 S    
C51   C55   1.409084 A    
C47   N69   1.483264 S    
O17   Zn5   1.990551 S    
N31   H33   1.031205 S    
C89   C107  1.416032 S    
C41   C45   1.630861 S    
C90   C108  1.415450 S    
N10   O67   1.299438 A    
O2    Zn1   1.988882 S    
O10   Zn1   2.057170 S    
C45   N11   1.489713 S    
N33   O97   1.301257 A    
N32   H37   1.031195 S    
C80   C84   1.194487 T    
C7    C37   1.481268 S    
N22   O91   1.301332 A    
C18   C131  1.407234 A    
N27   C139  1.446149 S    
C40   C48   1.663297 S    
C30   H8    1.101749 S    
C1    C83   1.415705 S    
C151  H68   1.107809 S    
N39   O109  1.301141 A    
N26   C138  1.446462 S    
C140  H22   1.111474 S    
C29   H7    1.101396 S    
N44   H53   1.031009 S    
C16   N37   1.438699 S    
C159  H98   1.108188 S    
N6    O60   1.302844 A    
N40   O111  1.301167 A    
N50   H61   1.021272 S    
C162  H111  1.105078 S    
N1    O49   1.303137 A    
O7    C3    1.271008 A    
C46   N60   1.493495 S    
C120  N31   1.426202 S    
C25   C41   1.645862 S    
C11   C109  1.417276 S    
C44   N58   1.493463 S    
C27   H5    1.101300 S    
C160  H104  1.107288 S    
O25   C95   1.274098 A    
C152  H71   1.110103 S    
N36   O104  1.301269 A    
N47   O118  1.302793 A    
C63   N25   1.426234 S    
N72   H117  1.021541 S    
C41   C49   1.661717 S    
C137  H12   1.110282 S    
N63   C155  1.453624 S    
N60   O135  1.297234 A    
C27   N53   1.480377 S    
C24   C40   1.649311 S    
C158  H95   1.097047 S    
C141  H26   1.111658 S    
C144  H39   1.109758 S    
C31   C47   1.613542 S    
N53   O122  1.298424 A    
C111  N33   1.440107 S    
N21   O89   1.301314 A    
C28   C44   1.581294 S    
C112  C115  1.409490 A    
C81   C85   1.194333 T    
C153  H76   1.104821 S    
N58   O132  1.303050 A    
N41   C145  1.447987 S    
C52   C72   1.405343 A    
O1    Zn1   1.987909 S    
N11   O70   1.302589 A    
O20   Zn8   1.991523 S    
C32   N66   1.483638 S    
O21   Zn5   2.052177 S    
C12   C92   1.196445 T    
C57   C77   1.429534 S    
C111  C115  1.409353 A    
C51   N17   1.438843 S    
C157  H92   1.109367 S    
C39   C43   1.631427 S    
C143  H35   1.109845 S    
O16   C8    1.275475 A    
C139  H20   1.110284 S    
C160  H102  1.108193 S    
N34   O100  1.301265 A    
C159  H100  1.109391 S    
N68   H101  1.025652 S    
N17   O82   1.301265 A    
N4    O55   1.302981 A    
O11   Zn2   2.057097 S    
C19   H1    1.095710 S    
C125  C127  1.195150 T    
Zn11  O47   1.993280 S    
N30   C142  1.445957 S    
C39   C95   1.493994 S    
C71   N13   1.438836 S    
O43   C107  1.297884 A    
O30   C101  1.271849 A    
C22   N4    1.484275 S    
C121  C125  1.430315 S    
N55   O125  1.301210 A    
O45   C109  1.297257 A    
C137  H10   1.111574 S    
O35   Zn11  1.993240 S    
C158  H94   1.108236 S    
O36   Zn12  1.993158 S    
C163  H115  1.105112 S    
C26   C42   1.649170 S    
C113  N35   1.440107 S    
C17   N40   1.438150 S    
C23   N49   1.476386 S    
O41   Zn10  1.994159 S    
N2    O52   1.296383 A    
N3    O54   1.296068 A    
N8    O64   1.302848 A    
C164  H119  1.105084 S    
C140  H24   1.109888 S    
C118  N29   1.426208 S    
C27   C35   1.596822 S    
N19   O85   1.301289 A    
C31   N65   1.483510 S    
N70   H109  1.021535 S    
N46   O115  1.299768 A    
C148  H54   1.110524 S    
C45   N59   1.494377 S    
C142  H32   1.110935 S    
N23   O94   1.301321 A    
C82   C86   1.194518 T    
N48   O120  1.302820 A    
C74   N16   1.438871 S    
O14   Zn3   2.057016 S    
O9    Zn1   2.057097 S    
N22   O92   1.301327 A    
C115  C123  1.430470 S    
O28   C98   1.274087 A    
N15   O77   1.301315 A    
C112  N34   1.440099 S    
N5    O58   1.302909 A    
N61   C153  1.453679 S    
N43   H49   1.030991 S    
C162  H110  1.108831 S    
N67   C159  1.444930 S    
N45   O113  1.299746 A    
C154  H78   1.110256 S    
C132  C135  1.408117 A    
C19   N1    1.484228 S    
O11   C7    1.265819 A    
N69   C161  1.452161 S    
N44   C148  1.447711 S    
C156  H86   1.110253 S    
C162  H112  1.110000 S    
C122  C126  1.430340 S    
C153  H74   1.110261 S    
C21   N3    1.484241 S    
C44   N10   1.488838 S    
O12   C8    1.264995 A    
N61   H73   1.027596 S    
N66   C158  1.445453 S    
O44   Zn11  1.994155 S    
C164  H118  1.108838 S    
C69   C73   1.407665 A    
O24   C98   1.274327 A    
