data_mof_unit_32303.cif
_audit_creation_date              2012-12-11T14:01:16-0500
_audit_creation_method            fapswitch 2.2
_symmetry_space_group_name_H-M    P1
_symmetry_Int_Tables_number       1
_space_group_crystal_system       triclinic
_cell_length_a                    18.984215
_cell_length_b                    10.917448
_cell_length_c                    18.772193
_cell_angle_alpha                 89.775061
_cell_angle_beta                  90.716506
_cell_angle_gamma                 90.177928
_cell_volume                      3890.35695508

loop_
_atom_site_label
_atom_site_type_symbol
_atom_type_description
_atom_site_fract_x
_atom_site_fract_y
_atom_site_fract_z
_atom_type_partial_charge
C1    C     C_R   0.287982 0.003599 0.861691 0.554928
C2    C     C_R   0.713283 0.007149 0.138429 0.544883
C3    C     C_R   0.787721 0.504233 0.861705 0.570120
C4    C     C_R   0.228296 0.545859 0.148193 0.559620
C5    C     C_R   0.549815 0.064965 0.053623 -0.108343
C6    C     C_R   0.541977 0.050051 0.906163 -0.091150
C7    C     C_R   0.055341 0.563694 0.052154 -0.098603
C8    C     C_R   0.046758 0.546855 0.904732 -0.079645
C9    C     C_R   0.060759 0.668695 0.009952 -0.151899
C10   C     C_R   0.058324 0.659948 0.936393 -0.124718
C11   C     C_R   0.552481 0.170982 0.012020 -0.148477
C12   C     C_R   0.550393 0.163364 0.938458 -0.127189
C13   C     C_2   0.263263 0.629178 0.931344 -0.113354
C14   C     C_2   0.757442 0.562361 0.087423 -0.103436
C15   C     C_2   0.743433 0.062565 0.913133 -0.114978
C16   C     C_2   0.257613 0.061623 0.087688 -0.105251
C17   C     C_2   0.254525 0.606946 0.084909 -0.103806
C18   C     C_2   0.769600 0.539190 0.933838 -0.102329
C19   C     C_2   0.732505 0.044188 0.066904 -0.102510
C20   C     C_2   0.270288 0.037744 0.934106 -0.101205
C21   C     C_2   0.307680 0.560988 0.047128 -0.152821
C22   C     C_2   0.724058 0.473312 0.972851 -0.168213
C23   C     C_2   0.777786 0.978081 0.028375 -0.164446
C24   C     C_2   0.224411 0.972371 0.973018 -0.174097
C25   C     C_2   0.318601 0.600686 0.973285 -0.164377
C26   C     C_2   0.708209 0.508552 0.046443 -0.161878
C27   C     C_2   0.793572 0.013058 0.954759 -0.156753
C28   C     C_2   0.208451 0.007843 0.046581 -0.166646
C29   C     C_2   0.509409 0.834141 0.587670 -0.074662
C30   C     C_2   0.490537 0.832251 0.411769 -0.073483
C31   C     C_2   0.008940 0.333911 0.587625 -0.072357
C32   C     C_2   0.989932 0.332563 0.411600 -0.073701
C33   C     C_2   0.521767 0.781029 0.468277 0.030483
C34   C     C_2   0.481270 0.777567 0.531469 0.033052
C35   C     C_2   0.018998 0.278462 0.468313 0.030011
C36   C     C_2   0.978461 0.280649 0.531494 0.032554
C37   C     C_2   0.239708 0.555168 0.587368 -0.133360
C38   C     C_2   0.760326 0.554354 0.412629 -0.127191
C39   C     C_2   0.739375 0.055382 0.587413 -0.127535
C40   C     C_2   0.259985 0.054131 0.412681 -0.133998
C41   C     C_2   0.221961 0.519457 0.434471 -0.116771
C42   C     C_2   0.778323 0.519008 0.565546 -0.115150
C43   C     C_2   0.721895 0.018622 0.434500 -0.117192
C44   C     C_2   0.278310 0.019688 0.565562 -0.116257
C45   C     C_R   0.474908 0.821767 0.850538 0.525872
C46   C     C_R   0.562085 0.819269 0.138813 0.546425
C47   C     C_R   0.974954 0.321593 0.850527 0.533392
C48   C     C_R   0.062518 0.319133 0.138867 0.562521
C49   C     C_2   0.167953 0.520011 0.479579 -0.138931
C50   C     C_2   0.832385 0.521298 0.520577 -0.139241
C51   C     C_2   0.667630 0.023161 0.479161 -0.138218
C52   C     C_2   0.332043 0.018030 0.520162 -0.140442
C53   C     C_2   0.175652 0.557919 0.554603 -0.015573
C54   C     C_2   0.824482 0.558000 0.445248 -0.013632
C55   C     C_2   0.675467 0.059996 0.554332 -0.013160
C56   C     C_2   0.324277 0.055862 0.444981 -0.014942
C57   C     C_R   0.272256 0.676268 0.859720 0.542716
C58   C     C_R   0.739863 0.633002 0.150210 0.537302
C59   C     C_R   0.760220 0.133060 0.849868 0.542908
C60   C     C_R   0.239900 0.132843 0.150268 0.544797
C61   C     C_R   0.291389 0.996673 0.640273 0.563992
C62   C     C_R   0.708771 0.996746 0.359741 0.561732
C63   C     C_R   0.791381 0.496629 0.640310 0.561563
C64   C     C_R   0.208785 0.496842 0.359786 0.559970
C65   C     C_R   0.474928 0.824482 0.653287 0.513798
C66   C     C_R   0.524178 0.824036 0.345773 0.530927
C67   C     C_R   0.975346 0.324524 0.653687 0.513808
C68   C     C_R   0.024498 0.324006 0.346078 0.531093
C69   C     C_R   0.258376 0.631572 0.648588 0.531267
C70   C     C_R   0.741597 0.631191 0.351394 0.526827
C71   C     C_R   0.758317 0.131550 0.648632 0.522653
C72   C     C_R   0.241531 0.131226 0.351451 0.523584
C73   C     C_R   0.549317 0.831798 0.061363 -0.003610
C74   C     C_R   0.518833 0.829021 0.915178 0.002701
C75   C     C_R   0.050322 0.331085 0.061217 -0.000292
C76   C     C_R   0.019046 0.327809 0.915141 0.002691
C77   C     C_R   0.545490 0.946283 0.022446 0.014093
C78   C     C_R   0.535689 0.941869 0.947329 0.022875
C79   C     C_R   0.048529 0.445002 0.021642 0.018746
C80   C     C_R   0.038280 0.440003 0.946570 0.023789
C81   C     C_R   0.531417 0.719811 0.952222 -0.151298
C82   C     C_R   0.547203 0.721492 0.023765 -0.156610
C83   C     C_R   0.030132 0.218508 0.952660 -0.142594
C84   C     C_R   0.046410 0.220390 0.024097 -0.152549
Cr1   Cr    Cr6+3 0.230530 0.836340 0.748870 1.032892
Cr2   Cr    Cr6+3 0.769470 0.836340 0.251130 1.042067
Cr3   Cr    Cr6+3 0.730530 0.336340 0.748870 1.035343
Cr4   Cr    Cr6+3 0.269470 0.336340 0.251130 1.039655
Cr5   Cr    Cr6+3 0.387420 0.989430 0.750820 1.027038
Cr6   Cr    Cr6+3 0.612580 0.989430 0.249180 1.018975
Cr7   Cr    Cr6+3 0.887420 0.489430 0.750820 1.029663
Cr8   Cr    Cr6+3 0.112580 0.489430 0.249180 1.019124
Cr9   Cr    Cr6+3 0.385640 0.677860 0.749230 1.039359
Cr10  Cr    Cr6+3 0.614360 0.677860 0.250770 1.033969
Cr11  Cr    Cr6+3 0.885640 0.177860 0.749230 1.038723
Cr12  Cr    Cr6+3 0.114360 0.177860 0.250770 1.037750
H1    H     H_    0.523727 0.631321 0.927320 0.143159
H2    H     H_    0.554011 0.634163 0.050491 0.134568
H3    H     H_    0.020923 0.130007 0.928275 0.144844
H4    H     H_    0.052006 0.133064 0.051122 0.135742
H5    H     H_    0.115102 0.502564 0.458926 0.171459
H6    H     H_    0.885335 0.506047 0.541483 0.172948
H7    H     H_    0.614584 0.009578 0.458015 0.175372
H8    H     H_    0.384743 0.998913 0.540586 0.168750
H9    H     H_    0.275665 0.537800 0.451226 0.174668
H10   H     H_    0.724461 0.534674 0.548545 0.177668
H11   H     H_    0.775914 0.032160 0.451684 0.177637
H12   H     H_    0.224841 0.040052 0.548956 0.175689
H13   H     H_    0.283044 0.505528 0.564044 0.138495
H14   H     H_    0.716998 0.504238 0.436156 0.136919
H15   H     H_    0.782464 0.004790 0.564364 0.138038
H16   H     H_    0.216414 0.004975 0.436475 0.137794
H17   H     H_    0.550458 0.082876 0.109482 0.178589
H18   H     H_    0.542660 0.047628 0.848593 0.131568
H19   H     H_    0.055208 0.582100 0.107912 0.181936
H20   H     H_    0.046394 0.543323 0.847154 0.132258
H21   H     H_    0.067457 0.757525 0.034661 0.109389
H22   H     H_    0.064516 0.741210 0.903802 0.123686
H23   H     H_    0.557202 0.259757 0.037219 0.112823
H24   H     H_    0.554835 0.245518 0.906321 0.123183
H25   H     H_    0.340618 0.487974 0.068360 0.156179
H26   H     H_    0.695445 0.396642 0.949571 0.150054
H27   H     H_    0.805716 0.900822 0.051822 0.155211
H28   H     H_    0.195310 0.896448 0.949546 0.140524
H29   H     H_    0.371792 0.601580 0.952586 0.154724
H30   H     H_    0.654674 0.496951 0.064992 0.138613
H31   H     H_    0.847575 0.005584 0.936861 0.155910
H32   H     H_    0.154788 0.996859 0.064895 0.137981
H33   H     H_    0.224096 0.684000 0.064571 0.109837
H34   H     H_    0.795867 0.619319 0.955910 0.113661
H35   H     H_    0.706945 0.124759 0.044501 0.120418
H36   H     H_    0.297001 0.117257 0.956366 0.121367
H37   H     H_    0.209887 0.623286 0.951227 0.125164
H38   H     H_    0.811722 0.567531 0.069905 0.114248
H39   H     H_    0.689295 0.064901 0.930788 0.121866
H40   H     H_    0.311986 0.066289 0.070422 0.115213
H41   H     H_    0.437866 0.870208 0.413546 0.095402
H42   H     H_    0.559808 0.880772 0.585665 0.100012
H43   H     H_    0.938802 0.376291 0.413162 0.099973
H44   H     H_    0.061075 0.374475 0.585568 0.097211
O1    O     O_R   0.215090 0.709860 0.828130 -0.532630
O2    O     O_R   0.784910 0.709860 0.171870 -0.528799
O3    O     O_R   0.715090 0.209860 0.828130 -0.536696
O4    O     O_R   0.284910 0.209860 0.171870 -0.518301
O5    O     O_R   0.445660 0.919250 0.676780 -0.525413
O6    O     O_R   0.554340 0.919250 0.323220 -0.518166
O7    O     O_R   0.945660 0.419250 0.676780 -0.527118
O8    O     O_R   0.054340 0.419250 0.323220 -0.517685
O9    O     O_R   0.456260 0.718170 0.670000 -0.489715
O10   O     O_R   0.543740 0.718170 0.330000 -0.485688
O11   O     O_R   0.956260 0.218170 0.670000 -0.489213
O12   O     O_R   0.043740 0.218170 0.330000 -0.486817
O13   O     O_R   0.320940 0.626760 0.674370 -0.487864
O14   O     O_R   0.679060 0.626760 0.325630 -0.491200
O15   O     O_R   0.820940 0.126760 0.674370 -0.492198
O16   O     O_R   0.179060 0.126760 0.325630 -0.494159
O17   O     O_3   0.334530 0.834540 0.749640 -0.307313
O18   O     O_3   0.665470 0.834540 0.250360 -0.312361
O19   O     O_3   0.834530 0.334540 0.749640 -0.292899
O20   O     O_3   0.165470 0.334540 0.250360 -0.298647
O21   O     O_R   0.236990 0.958390 0.823710 -0.493093
O22   O     O_R   0.763010 0.958390 0.176290 -0.475660
O23   O     O_R   0.736990 0.458390 0.823710 -0.484565
O24   O     O_R   0.263010 0.458390 0.176290 -0.488680
O25   O     O_R   0.332380 0.074750 0.830850 -0.495155
O26   O     O_R   0.667620 0.074750 0.169150 -0.526215
O27   O     O_R   0.832380 0.574750 0.830850 -0.501829
O28   O     O_R   0.167620 0.574750 0.169150 -0.540455
O29   O     O_R   0.445800 0.917770 0.825070 -0.522480
O30   O     O_R   0.554200 0.917770 0.174930 -0.531541
O31   O     O_R   0.945800 0.417770 0.825070 -0.521198
O32   O     O_R   0.054200 0.417770 0.174930 -0.523398
O33   O     O_R   0.456410 0.716580 0.829970 -0.526907
O34   O     O_R   0.543590 0.716580 0.170030 -0.505745
O35   O     O_R   0.956410 0.216580 0.829970 -0.518241
O36   O     O_R   0.043590 0.216580 0.170030 -0.506364
O37   O     O_R   0.321080 0.625290 0.822650 -0.480904
O38   O     O_R   0.678920 0.625290 0.177350 -0.512170
O39   O     O_R   0.821080 0.125290 0.822650 -0.490424
O40   O     O_R   0.178920 0.125290 0.177350 -0.513359
O41   O     O_R   0.214930 0.711450 0.668160 -0.520051
O42   O     O_R   0.785070 0.711450 0.331840 -0.521348
O43   O     O_R   0.714930 0.211450 0.668160 -0.524692
O44   O     O_R   0.285070 0.211450 0.331840 -0.520168
O45   O     O_R   0.236850 0.959870 0.675420 -0.466192
O46   O     O_R   0.763150 0.959870 0.324580 -0.463407
O47   O     O_R   0.736850 0.459870 0.675420 -0.467021
O48   O     O_R   0.263150 0.459870 0.324580 -0.471199
O49   O     O_R   0.332230 0.076350 0.670880 -0.469584
O50   O     O_R   0.667770 0.076350 0.329120 -0.470175
O51   O     O_R   0.832230 0.576350 0.670880 -0.471981
O52   O     O_R   0.167770 0.576350 0.329120 -0.477565
C85   C     C_2   0.111061 0.601566 0.590767 0.266501
H45   H     H_    0.107323 0.598642 0.648364 0.121635
O53   O     O_2   0.060366 0.638222 0.556243 -0.445926
C86   C     C_2   0.888997 0.602089 0.408616 0.266850
H46   H     H_    0.892577 0.598739 0.351028 0.124474
O54   O     O_2   0.939771 0.639609 0.442730 -0.445445
C87   C     C_2   0.611079 0.105191 0.590273 0.266481
H47   H     H_    0.606800 0.100985 0.647806 0.118629
O55   O     O_2   0.561144 0.144550 0.555629 -0.443840
C88   C     C_2   0.388969 0.098465 0.408145 0.267486
H48   H     H_    0.392038 0.096426 0.350500 0.123699
O56   O     O_2   0.440447 0.133314 0.442145 -0.446890
C89   C     C_2   0.596369 0.737187 0.470394 0.254523
H49   H     H_    0.633280 0.764733 0.429774 0.109700
O57   O     O_2   0.617188 0.671037 0.518745 -0.513431
C90   C     C_2   0.408809 0.723464 0.528932 0.255350
H50   H     H_    0.369367 0.750856 0.566841 0.108341
O58   O     O_2   0.392678 0.649074 0.483143 -0.507090
C91   C     C_2   0.092114 0.227766 0.471135 0.253974
H51   H     H_    0.130849 0.254908 0.432196 0.109469
O59   O     O_2   0.109604 0.156361 0.518264 -0.508259
C92   C     C_2   0.904331 0.233775 0.529596 0.256191
H52   H     H_    0.866804 0.261846 0.569285 0.109640
O60   O     O_2   0.884631 0.164582 0.482445 -0.511541

loop_
_geom_bond_atom_site_label_1
_geom_bond_atom_site_label_2
_ccdc_geom_bond_type
C16   C28   D    
Cr3   O23   S    
C38   C70   S    
C15   C59   S    
Cr9   O33   S    
C72   O16   A    
C37   C69   S    
Cr8   O8    S    
C9    H21   S    
Cr9   O9    S    
C35   C36   S    
C11   H23   S    
C2    O22   A    
Cr7   O7    S    
C81   C82   A    
C3    O27   A    
C62   O50   A    
C77   C78   A    
Cr5   O5    S    
C29   H42   S    
C33   C89   S    
C50   C54   S    
C7    C79   A    
C88   O56   D    
C10   H22   S    
Cr5   O49   S    
Cr7   O27   S    
C47   C76   S    
C66   O10   A    
C45   O33   A    
Cr3   O43   S    
C92   O60   D    
C75   C84   A    
Cr4   O44   S    
C56   C88   S    
C51   H7    S    
Cr12  O12   S    
C24   H28   S    
Cr1   O21   S    
C3    C18   S    
C5    H17   S    
C26   H30   S    
C7    H19   S    
C25   H29   S    
C6    H18   S    
Cr11  O35   S    
C36   C92   S    
C48   O32   A    
Cr11  O11   S    
C27   H31   S    
C70   O42   A    
C39   C55   D    
C91   H51   S    
C90   H50   S    
C40   C56   D    
C4    O24   A    
Cr2   O22   S    
C23   C27   S    
C38   H14   S    
C18   C22   D    
Cr12  O36   S    
C9    C10   A    
C2    O26   A    
Cr7   O19   S    
C68   O8    A    
C3    O23   A    
C62   O46   A    
C37   C53   D    
C44   C52   D    
C89   O57   D    
C1    O21   A    
C87   H47   S    
Cr10  O18   S    
C30   H41   S    
C12   H24   S    
Cr6   O26   S    
C61   O49   A    
C47   O31   A    
C82   H2    S    
C48   C75   S    
C13   C25   D    
C75   C79   A    
C28   H32   S    
Cr1   O17   S    
C20   H36   S    
Cr8   O52   S    
C76   C83   A    
C41   C49   D    
C64   O52   A    
C87   O55   D    
C61   O45   A    
C22   H26   S    
C37   H13   S    
C44   H12   S    
C19   H35   S    
C14   C58   S    
C55   C87   S    
C54   C86   S    
C88   H48   S    
C17   H33   S    
C84   H4    S    
C32   C35   D    
C71   O43   A    
C13   C57   S    
C72   O44   A    
C32   H43   S    
C86   O54   D    
C21   C25   S    
Cr1   O1    S    
Cr9   O37   S    
C92   H52   S    
Cr3   O47   S    
C14   H38   S    
C51   C55   S    
C34   C90   S    
Cr4   O24   S    
Cr7   O51   S    
C29   C34   D    
C69   O13   A    
C46   O30   A    
C45   C74   S    
C85   O53   D    
Cr6   O18   S    
C31   C67   S    
C68   O12   A    
C35   C91   S    
Cr2   O46   S    
Cr2   O18   S    
Cr8   O28   S    
C15   C27   D    
C83   C84   A    
C38   C54   D    
C1    O25   A    
Cr10  O14   S    
C71   O15   A    
Cr6   O30   S    
C46   O34   A    
C33   C34   S    
C58   O38   A    
C43   H11   S    
C14   C26   D    
Cr9   O17   S    
C42   H10   S    
Cr5   O25   S    
C64   O48   A    
C22   C26   S    
C41   H9    S    
C42   C50   D    
C16   C60   S    
C4    C17   S    
C30   C66   S    
Cr11  O39   S    
Cr12  O20   S    
Cr10  O34   S    
C50   H6    S    
C63   O47   A    
C5    C11   A    
C67   O7    A    
Cr11  O19   S    
C18   H34   S    
C76   C80   A    
C74   C81   A    
C5    C77   A    
C16   H40   S    
C6    C12   A    
C73   C82   A    
C19   C23   D    
Cr2   O2    S    
C8    C80   A    
Cr6   O50   S    
C7    C9    A    
C89   H49   S    
C52   H8    S    
C1    C20   S    
Cr1   O41   S    
C58   O2    A    
C40   C72   S    
C30   C33   D    
C91   O59   D    
C2    C19   S    
C70   O14   A    
C13   H37   S    
C8    C10   A    
C24   C28   S    
C86   H46   S    
Cr10  O38   S    
C45   O29   A    
C23   H27   S    
C11   C12   A    
C29   C65   S    
Cr5   O17   S    
Cr7   O31   S    
C44   C61   S    
C60   O40   A    
C57   O1    A    
Cr8   O20   S    
Cr12  O40   S    
C59   O39   A    
Cr5   O29   S    
Cr6   O6    S    
Cr1   O45   S    
C53   C85   S    
C60   O4    A    
C32   C68   S    
C57   O37   A    
C39   H15   S    
C40   H16   S    
C43   C51   D    
Cr12  O16   S    
C81   H1    S    
Cr8   O32   S    
C67   O11   A    
C63   O51   A    
Cr9   O13   S    
Cr3   O19   S    
Cr11  O15   S    
Cr4   O20   S    
C21   H25   S    
C20   C24   D    
C17   C21   D    
C66   O6    A    
C49   C53   S    
C6    C78   A    
C8    H20   S    
C59   O3    A    
C79   C80   A    
C4    O28   A    
Cr10  O10   S    
Cr4   O48   S    
C15   H39   S    
C43   C62   S    
C73   C77   A    
C90   O58   D    
C85   H45   S    
C74   C78   A    
Cr2   O42   S    
C65   O9    A    
C39   C71   S    
C31   C36   D    
C83   H3    S    
C41   C64   S    
Cr3   O3    S    
C31   H44   S    
C65   O5    A    
C42   C63   S    
Cr4   O4    S    
C46   C73   S    
C47   O35   A    
C52   C56   S    
C49   H5    S    
C69   O41   A    
C48   O36   A    
