data_mof_unit_40293.cif
_audit_creation_date              2012-12-11T14:36:28-0500
_audit_creation_method            fapswitch 2.2
_symmetry_space_group_name_H-M    P1
_symmetry_Int_Tables_number       1
_space_group_crystal_system       triclinic
_cell_length_a                    13.545735
_cell_length_b                    13.496165
_cell_length_c                    27.480132
_cell_angle_alpha                 90.133269
_cell_angle_beta                  90.102529
_cell_angle_gamma                 60.066932
_cell_volume                      4353.65114951

loop_
_atom_site_label
_atom_site_type_symbol
_atom_type_description
_atom_site_fract_x
_atom_site_fract_y
_atom_site_fract_z
_atom_type_partial_charge
C1    C     C_R   0.620816 0.101370 0.569834 0.554412
C2    C     C_1   0.653293 0.701097 0.657872 0.090760
C3    C     C_3   0.360270 0.746568 0.197336 -0.352359
C4    C     C_3   0.174007 0.983118 0.389684 -0.345250
C5    C     C_3   0.482836 0.386268 0.134744 -0.366327
C6    C     C_3   0.951014 0.893801 0.307258 -0.344551
C7    C     C_3   0.045748 0.191287 0.734298 -0.140565
C8    C     C_R   0.599914 0.778903 0.568573 0.557196
C9    C     C_3   0.109021 0.090547 0.770621 -0.139618
C10   C     C_1   0.088367 0.204606 0.900487 0.029241
C11   C     C_1   0.222822 0.139870 0.616318 0.065811
C12   C     C_3   0.063778 0.270815 0.769669 -0.130298
C13   C     C_3   0.128109 0.170024 0.805002 -0.017085
C14   C     C_3   0.178176 0.238646 0.744479 -0.051389
C15   C     C_3   0.159968 0.159123 0.709761 0.018974
C16   C     C_1   0.632874 0.729400 0.615934 0.071635
C17   C     C_3   0.241110 0.137711 0.780074 0.318253
C18   C     C_3   0.222759 0.059026 0.745262 0.295090
C19   C     C_1   0.109971 0.184780 0.857797 0.010364
C20   C     C_R   0.277174 0.121789 0.569547 0.560492
C21   C     C_1   0.188486 0.150597 0.657658 0.066325
C22   C     C_3   0.698359 0.252443 0.734388 0.224789
C23   C     C_3   0.598274 0.293944 0.770336 0.293245
C24   C     C_1   0.696284 0.213362 0.901165 0.030413
C25   C     C_1   0.639684 0.135115 0.616818 0.063754
C26   C     C_3   0.776092 0.155410 0.769919 -0.160170
C27   C     C_3   0.723796 0.557017 0.769154 -0.078985
C28   C     C_3   0.674338 0.196634 0.805354 -0.034575
C29   C     C_3   0.738845 0.075370 0.745354 -0.172359
C30   C     C_3   0.662100 0.173104 0.710350 0.034867
C31   C     C_3   0.637488 0.116950 0.781384 -0.083291
C32   C     C_R   0.623452 0.102166 0.432299 0.568492
C33   C     C_3   0.562054 0.214522 0.745916 0.305202
C34   C     C_1   0.683071 0.205711 0.858206 0.013572
C35   C     C_1   0.651930 0.155600 0.658346 0.080894
C36   C     C_R   0.733798 0.706150 0.358743 0.212552
C37   C     C_R   0.741527 0.702263 0.307731 0.015435
C38   C     C_3   0.686650 0.656294 0.805845 -0.041319
C39   C     C_R   0.762499 0.671906 0.207101 0.045710
C40   C     C_R   0.848927 0.677313 0.233833 0.000452
C41   C     C_R   0.839271 0.688496 0.284152 -0.074513
C42   C     C_R   0.784163 0.614280 0.162715 -0.049990
C43   C     C_R   0.690629 0.637240 0.132157 0.030589
C44   C     C_R   0.600982 0.777430 0.430030 0.573025
C45   C     C_R   0.539964 0.739753 0.352077 -0.160078
C46   C     C_R   0.547014 0.735659 0.301914 -0.011804
C47   C     C_R   0.647393 0.717166 0.279417 0.016892
C48   C     C_R   0.453892 0.750795 0.274317 -0.102879
C49   C     C_3   0.610455 0.629608 0.740970 -0.090580
C50   C     C_R   0.459191 0.744767 0.223526 0.019508
C51   C     C_R   0.561585 0.723281 0.199915 0.039695
C52   C     C_R   0.655899 0.707334 0.228688 -0.003174
C53   C     C_R   0.578799 0.706816 0.149221 0.208810
C54   C     C_R   0.629825 0.731473 0.380655 0.018297
C55   C     C_R   0.190016 0.069221 0.360611 -0.019915
C56   C     C_R   0.276483 0.121728 0.431193 0.541048
C57   C     C_R   0.174632 0.076535 0.309454 0.039314
C58   C     C_R   0.141866 0.095012 0.207747 0.024172
C59   C     C_R   0.139100 0.006985 0.233187 -0.131975
C60   C     C_3   0.669386 0.680499 0.710272 0.049033
C61   C     C_R   0.158812 0.995666 0.283129 -0.122085
C62   C     C_R   0.116273 0.110500 0.158164 -0.110278
C63   C     C_R   0.113031 0.203193 0.133600 0.006846
C64   C     C_R   0.205450 0.241722 0.358479 -0.094159
C65   C     C_R   0.188642 0.251379 0.308512 0.021435
C66   C     C_R   0.176727 0.166383 0.283630 0.016311
C67   C     C_R   0.188887 0.341412 0.282500 0.231680
C68   C     C_3   0.781419 0.609395 0.737976 0.239672
C69   C     C_R   0.183755 0.342688 0.231973 -0.105451
C70   C     C_R   0.169105 0.260726 0.207065 -0.028854
C71   C     C_3   0.573808 0.728389 0.778280 -0.049512
C72   C     C_R   0.163914 0.173158 0.232780 0.054288
C73   C     C_R   0.149203 0.271515 0.157205 -0.133828
C74   C     C_R   0.216360 0.146764 0.384034 -0.000247
C75   C     C_R   0.561164 0.239761 0.363626 -0.163355
C76   C     C_R   0.573095 0.259397 0.314824 0.000798
C77   C     C_R   0.579902 0.282693 0.213102 0.022800
C78   C     C_R   0.490526 0.367614 0.241173 -0.107000
C79   C     C_R   0.486517 0.354867 0.291211 -0.097799
C80   C     C_3   0.745370 0.707025 0.775183 0.006839
C81   C     C_R   0.583302 0.291695 0.161701 -0.050443
C82   C     C_3   0.633378 0.778435 0.747084 0.263951
C83   C     C_R   0.679021 0.206857 0.135855 0.024821
C84   C     C_R   0.755177 0.081461 0.364751 0.230036
C85   C     C_R   0.762056 0.086239 0.313400 0.042536
C86   C     C_R   0.669033 0.178056 0.288563 0.018468
C87   C     C_R   0.853296 0.000406 0.285521 -0.011163
C88   C     C_R   0.848874 0.008199 0.234805 -0.095354
C89   C     C_R   0.757706 0.099011 0.210530 0.012803
C90   C     C_R   0.669871 0.187560 0.237401 0.012257
C91   C     C_R   0.754394 0.103308 0.159680 0.215463
C92   C     C_1   0.698043 0.610037 0.900458 0.024850
C93   C     C_1   0.692216 0.636440 0.858323 -0.015298
C94   C     C_R   0.648755 0.145472 0.387592 0.013901
C95   C     C_R   0.047492 0.237145 0.949360 0.553061
C96   C     C_R   0.711558 0.563453 0.948316 0.560694
C97   C     C_R   0.723110 0.226580 0.950406 0.547749
C98   C     C_R   0.050145 0.243420 0.087826 0.541710
C99   C     C_R   0.709257 0.573299 0.086702 0.586702
C100  C     C_R   0.717715 0.232226 0.089147 0.561426
C101  C     C_3   0.820703 0.751650 0.795003 -0.335045
C102  C     C_3   0.899935 0.508603 0.155592 -0.364033
C103  C     C_3   0.949057 0.677006 0.209770 -0.381068
Cl1   Cl    Cl    0.369092 0.100253 0.812368 -0.484416
Cl2   Cl    Cl    0.838930 0.975567 0.125912 -0.603589
Cl3   Cl    Cl    0.876670 0.011911 0.402882 -0.607657
Cl4   Cl    Cl    0.323034 0.917589 0.726674 -0.538356
Cl5   Cl    Cl    0.505153 0.438579 0.787859 -0.508027
Cl6   Cl    Cl    0.734007 0.341923 0.700179 -0.614432
Cl7   Cl    Cl    0.421110 0.256637 0.727298 -0.478531
Cl8   Cl    Cl    0.917010 0.532937 0.709266 -0.580175
Cl9   Cl    Cl    0.854331 0.676106 0.394907 -0.537549
Cl10  Cl    Cl    0.466781 0.774766 0.106328 -0.596080
Cl11  Cl    Cl    0.575763 0.923956 0.729666 -0.529408
Cl12  Cl    Cl    0.190709 0.457280 0.311422 -0.675876
Cr1   Cr    Cr6+3 0.417550 0.169090 0.500530 1.081377
Cr2   Cr    Cr6+3 0.669180 0.913420 0.499920 1.153214
Cr3   Cr    Cr6+3 0.413260 0.917540 0.499520 1.058747
Cr4   Cr    Cr6+3 0.909170 0.177380 0.020380 1.089766
Cr5   Cr    Cr6+3 0.912710 0.429210 0.018220 1.040283
Cr6   Cr    Cr6+3 0.657170 0.432570 0.019030 1.074168
H1    H     H_    0.201290 0.303235 0.733370 0.224933
H2    H     H_    0.121921 0.946484 0.214421 0.110080
H3    H     H_    0.162362 0.922458 0.300603 0.100672
H4    H     H_    0.149364 0.341577 0.138025 0.128013
H5    H     H_    0.185961 0.410972 0.212238 0.124066
H6    H     H_    0.219944 0.303952 0.377136 0.210556
H7    H     H_    0.481272 0.294389 0.382097 0.156513
H8    H     H_    0.422307 0.444309 0.224997 0.123715
H9    H     H_    0.415320 0.420024 0.311613 0.178436
H10   H     H_    0.489608 0.777245 0.796282 0.213766
H11   H     H_    0.919470 0.943101 0.214180 0.160264
H12   H     H_    0.997611 0.357721 0.781234 0.181766
H13   H     H_    0.554919 0.598012 0.726178 0.228573
H14   H     H_    0.762276 0.465705 0.779533 0.181773
H15   H     H_    0.081928 0.028804 0.781890 0.146965
H16   H     H_    0.966502 0.212342 0.714527 0.208200
H17   H     H_    0.852194 0.782080 0.764504 0.172514
H18   H     H_    0.770980 0.823586 0.820466 0.145822
H19   H     H_    0.894366 0.682094 0.814560 0.161773
H20   H     H_    0.951368 0.482065 0.189413 0.132585
H21   H     H_    0.889048 0.434521 0.146413 0.149808
H22   H     H_    0.948584 0.523648 0.126971 0.170069
H23   H     H_    0.612300 0.062016 0.801623 0.215585
H24   H     H_    0.029624 0.600895 0.221262 0.152271
H25   H     H_    0.942639 0.679783 0.169536 0.168244
H26   H     H_    0.951343 0.754538 0.220651 0.143683
H27   H     H_    0.298510 0.743596 0.222999 0.100333
H28   H     H_    0.313093 0.826460 0.176043 0.197908
H29   H     H_    0.391145 0.670553 0.173350 0.163503
H30   H     H_    0.095857 0.983845 0.377557 0.173155
H31   H     H_    0.248641 0.896185 0.384930 0.127306
H32   H     H_    0.159140 0.005145 0.428858 0.177428
H33   H     H_    0.401784 0.395578 0.148728 0.119301
H34   H     H_    0.796880 0.985284 0.734426 0.160245
H35   H     H_    0.482564 0.468187 0.139105 0.150442
H36   H     H_    0.482833 0.366520 0.095585 0.163593
H37   H     H_    0.006773 0.831805 0.279354 0.098809
H38   H     H_    0.006890 0.915645 0.328206 0.178646
H39   H     H_    0.918070 0.849971 0.330692 0.210529
H40   H     H_    0.864268 0.131774 0.780402 0.134042
H41   H     H_    0.909106 0.685893 0.304333 0.196785
H42   H     H_    0.377258 0.764646 0.292743 0.109415
H43   H     H_    0.460204 0.757336 0.368618 0.142955
H44   H     H_    0.090760 0.055655 0.139758 0.152739
O1    O     O_R   0.301710 0.195650 0.554160 -0.480553
O2    O     O_R   0.635520 0.542770 0.964420 -0.476258
O3    O     O_R   0.665950 0.325030 0.970100 -0.488522
O4    O     O_R   0.522390 0.158990 0.550460 -0.484628
O5    O     O_R   0.816620 0.158530 0.074540 -0.442904
O6    O     O_R   0.004460 0.188870 0.069750 -0.492517
O7    O     O_R   0.025800 0.341780 0.072300 -0.533542
O8    O     O_R   0.807650 0.528950 0.067500 -0.513269
O9    O     O_R   0.633420 0.550490 0.071810 -0.461901
O10   O     O_R   0.664000 0.332180 0.069640 -0.519338
O11   O     O_3   0.826350 0.346390 0.019210 -0.277589
O12   O     O_R   0.658900 0.818120 0.449760 -0.438783
O13   O     O_R   0.694390 0.003530 0.554040 -0.489229
O14   O     O_R   0.657700 0.819660 0.549320 -0.483276
O15   O     O_R   0.501930 0.803280 0.552920 -0.488730
O16   O     O_R   0.318170 0.023580 0.549580 -0.487511
O17   O     O_R   0.303010 0.193990 0.446760 -0.511448
O18   O     O_R   0.523600 0.157450 0.450900 -0.519784
O19   O     O_R   0.695690 0.001860 0.446640 -0.425431
O20   O     O_R   0.503220 0.801620 0.445520 -0.533799
O21   O     O_R   0.319370 0.022040 0.450020 -0.507714
O22   O     O_3   0.499990 0.000010 0.499990 -0.283129
O23   O     O_R   0.818720 0.150820 0.967160 -0.497143
O24   O     O_R   0.006410 0.181720 0.970200 -0.493279
O25   O     O_R   0.027890 0.334070 0.964920 -0.495396
O26   O     O_R   0.809600 0.521790 0.967960 -0.496949

loop_
_geom_bond_atom_site_label_1
_geom_bond_atom_site_label_2
_ccdc_geom_bond_type
C58   C62   A    
C97   O23   A    
C32   C94   S    
C87   C88   A    
C68   C80   S    
C14   H1    S    
C15   C18   S    
C91   Cl2   S    
C32   O18   A    
C76   C79   A    
C57   C66   A    
C49   H13   S    
C49   C71   S    
C6    H38   S    
Cr3   O21   S    
Cr2   O19   S    
C103  H26   S    
C48   H42   S    
C77   C78   A    
C62   C63   A    
C49   C60   S    
C56   O17   A    
C30   C35   S    
C61   H3    S    
C96   O26   A    
C36   C37   A    
C78   H8    S    
C43   C99   S    
C63   C98   S    
C2    C60   S    
Cr6   O11   S    
C65   C67   A    
C27   C38   S    
C5    H33   S    
Cr1   O18   S    
C92   C96   S    
Cr5   O8    S    
C75   H7    S    
C46   C47   A    
C31   H23   S    
Cr6   O3    S    
C9    C13   S    
Cr4   O23   S    
C67   Cl12  S    
C27   C68   S    
C95   O25   A    
C6    H37   S    
C18   Cl4   S    
C55   C74   A    
C60   C82   S    
C43   C53   A    
C66   C72   A    
Cr2   O12   S    
C23   C33   S    
Cr1   O17   S    
C36   Cl9   S    
C84   Cl3   S    
C31   C33   S    
C102  H20   S    
C37   C47   A    
C2    C16   T    
C103  H25   S    
C44   O20   A    
C29   H34   S    
C71   C82   S    
C98   O7    A    
C64   H6    S    
C7    C15   S    
C4    H32   S    
C28   C34   S    
C3    H27   S    
C8    C16   S    
C41   H41   S    
C1    C25   S    
C14   C17   S    
Cr1   O1    S    
C70   C73   A    
C4    H31   S    
C42   C102  S    
C81   C83   A    
Cr3   O20   S    
C53   Cl10  S    
C17   C18   S    
C39   C42   A    
C85   C87   A    
C101  H18   S    
C7    C12   S    
Cr6   O2    S    
Cr1   O22   S    
C46   C48   A    
C77   C90   A    
C3    H28   S    
C59   C61   A    
C13   C19   S    
C100  O5    A    
C24   C97   S    
C56   C74   S    
C84   C85   A    
C82   Cl11  S    
Cr5   O11   S    
C86   C90   A    
Cr5   O26   S    
C39   C40   A    
C7    H16   S    
C78   C79   A    
Cr5   O7    S    
C63   C73   A    
C59   H2    S    
C58   C59   A    
C85   C86   A    
C79   H9    S    
C11   C20   S    
C11   C21   T    
C24   C34   T    
C6    C87   S    
C51   C52   A    
C67   C69   A    
C68   Cl8   S    
C75   C76   A    
C29   C30   S    
Cr5   O25   S    
Cr4   O11   S    
C5    C81   S    
C1    O13   A    
C8    O15   A    
Cr6   O9    S    
C99   O8    A    
C77   C81   A    
C10   C19   T    
C101  H17   S    
C22   Cl6   S    
C100  O10   A    
C50   C51   A    
C96   O2    A    
C84   C94   A    
C23   C28   S    
C88   C89   A    
C48   C50   A    
C25   C35   T    
C27   C49   S    
C98   O6    A    
C80   C82   S    
C40   C41   A    
C12   C14   S    
C45   C54   A    
C5    H36   S    
C83   C100  S    
C55   C57   A    
C4    C55   S    
Cr2   O22   S    
C45   C46   A    
C89   C91   A    
C42   C43   A    
C88   H11   S    
C101  H19   S    
C97   O3    A    
C76   C86   A    
C20   O1    A    
Cr2   O13   S    
C103  H24   S    
C3    C50   S    
Cr3   O16   S    
C7    C9    S    
C4    H30   S    
C38   C71   S    
C3    H29   S    
C22   C30   S    
C30   C33   S    
C14   C15   S    
C32   O19   A    
C28   C31   S    
Cr4   O24   S    
C56   O21   A    
C44   O12   A    
C69   H5    S    
C6    H39   S    
Cr3   O22   S    
C57   C61   A    
C47   C52   A    
C5    H35   S    
C83   C91   A    
C26   H40   S    
C26   C28   S    
C13   C17   S    
C80   C101  S    
C12   H12   S    
C27   H14   S    
C64   C65   A    
C102  H22   S    
C29   C31   S    
C40   C103  S    
C17   Cl1   S    
C8    O14   A    
C58   C72   A    
Cr6   O10   S    
C99   O9    A    
C38   C80   S    
C10   C95   S    
C73   H4    S    
C23   Cl5   S    
C38   C93   S    
C1    O4    A    
C92   C93   T    
Cr1   O4    S    
C39   C52   A    
C37   C41   A    
C69   C70   A    
C36   C54   A    
C95   O24   A    
Cr4   O5    S    
C71   H10   S    
C9    H15   S    
C44   C54   S    
C9    C18   S    
C15   C21   S    
C62   H44   S    
C12   C13   S    
C60   C68   S    
C26   C29   S    
C65   C66   A    
C22   C26   S    
Cr4   O6    S    
C64   C74   A    
C22   C23   S    
C70   C72   A    
C33   Cl7   S    
C102  H21   S    
C51   C53   A    
C89   C90   A    
Cr2   O14   S    
C75   C94   A    
C45   H43   S    
C20   O16   A    
Cr3   O15   S    
