data_mof_unit_14578.cif
_audit_creation_date              2012-12-10T17:21:14-0500
_audit_creation_method            fapswitch 2.2
_symmetry_space_group_name_H-M    P1
_symmetry_Int_Tables_number       1
_space_group_crystal_system       triclinic
_cell_length_a                    9.596106
_cell_length_b                    10.837325
_cell_length_c                    13.882624
_cell_angle_alpha                 92.454438
_cell_angle_beta                  84.899749
_cell_angle_gamma                 89.966615
_cell_volume                      1436.68956127

loop_
_atom_site_label
_atom_site_type_symbol
_atom_type_description
_atom_site_fract_x
_atom_site_fract_y
_atom_site_fract_z
_atom_type_partial_charge
C1    C     C_R   0.499819 0.737550 0.493838 0.802478
C2    C     C_R   0.621882 0.936882 0.496538 -0.189403
C3    C     C_R   0.621096 0.064256 0.506562 -0.206436
C4    C     C_R   0.477375 0.500536 0.682872 0.835920
C5    C     C_R   0.494117 0.129288 0.519545 -0.109472
C6    C     C_R   0.872441 0.333307 0.373828 -0.216657
C7    C     C_R   0.951798 0.249543 0.313596 -0.334611
C8    C     C_R   0.097193 0.246235 0.314577 0.514429
C9    C     C_R   0.159866 0.332196 0.374223 -0.198182
C10   C     C_R   0.082516 0.417318 0.438370 0.123802
C11   C     C_R   0.933198 0.417510 0.438345 0.192547
C12   C     C_1   0.463857 0.500301 0.786053 -0.137900
C13   C     C_R   0.919450 0.578748 0.558951 0.039936
C14   C     C_R   0.067282 0.578481 0.558549 -0.080634
C15   C     C_R   0.498254 0.263209 0.508830 0.789092
C16   C     C_R   0.522626 0.499528 0.317133 0.797912
C17   C     C_1   0.536113 0.498900 0.213938 -0.156691
C18   C     C_2   0.557642 0.498062 0.023357 -0.157336
C19   C     C_2   0.442175 0.499718 0.976595 -0.150139
C20   C     C_1   0.453060 0.500016 0.872917 0.021658
C21   C     C_1   0.546816 0.498422 0.127052 0.016025
C22   C     C_3   0.122974 0.054090 0.231561 -0.293280
C23   C     C_R   0.242552 0.887170 0.462456 -0.153103
C24   C     C_1   0.222199 0.209936 0.640250 0.255856
C25   C     C_1   0.841102 0.665229 0.624142 0.290459
C26   C     C_R   0.114832 0.946958 0.486100 -0.183475
C27   C     C_R   0.109829 0.057061 0.541266 -0.166924
C28   C     C_R   0.233891 0.114571 0.563994 0.004760
C29   C     C_R   0.365494 0.063401 0.526215 0.057447
C30   C     C_R   0.368305 0.939202 0.491688 0.094453
C31   C     C_R   0.496545 0.872542 0.489257 -0.116207
Cu1   Cu    Cu3+1 0.359340 0.500010 0.500010 0.946383
Cu2   Cu    Cu3+1 0.640660 0.499990 0.499990 0.948876
H1    H     H_    0.339013 0.501104 0.015884 0.163271
H2    H     H_    0.009004 0.096615 0.567396 0.138568
H3    H     H_    0.720628 0.111719 0.503943 0.166214
H4    H     H_    0.054751 0.063269 0.171662 0.166427
H5    H     H_    0.063975 0.015008 0.295812 0.154710
H6    H     H_    0.207104 0.987166 0.205935 0.190593
H7    H     H_    0.763758 0.328398 0.365691 0.223995
H8    H     H_    0.898164 0.189131 0.265137 0.158303
H9    H     H_    0.270595 0.327778 0.366720 0.218497
H10   H     H_    0.117797 0.642542 0.606221 0.146334
H11   H     H_    0.660799 0.496742 0.984066 0.161509
H12   H     H_    0.721497 0.889014 0.492712 0.162514
H13   H     H_    0.241212 0.802172 0.419017 0.162021
H14   H     H_    0.018989 0.904789 0.465513 0.131980
N1    N     N_R   0.852210 0.498790 0.499090 -0.210610
N2    N     N_R   0.148080 0.498710 0.499060 -0.189331
N3    N     N_1   0.211386 0.285205 0.702146 -0.272011
N4    N     N_1   0.778842 0.735114 0.676829 -0.297086
O1    O     O_R   0.381190 0.680360 0.500010 -0.594108
O2    O     O_R   0.618760 0.680340 0.500000 -0.575006
O3    O     O_R   0.364420 0.499990 0.637850 -0.556622
O4    O     O_R   0.601990 0.499960 0.637840 -0.568035
O5    O     O_R   0.381240 0.319660 0.500000 -0.598301
O6    O     O_R   0.618810 0.319640 0.499990 -0.603482
O7    O     O_R   0.398010 0.500040 0.362160 -0.593825
O8    O     O_R   0.635580 0.500010 0.362150 -0.592224
O9    O     O_3   0.185277 0.168520 0.253920 -0.575877

loop_
_geom_bond_atom_site_label_1
_geom_bond_atom_site_label_2
_ccdc_geom_bond_type
Cu2   O4    S    
C13   N1    A    
C25   N4    T    
C6    C7    A    
C18   H11   S    
C4    C12   S    
C18   C21   S    
C9    C10   A    
C19   C20   S    
Cu1   O7    S    
C13   C25   S    
Cu1   Cu2   S    
C14   H10   S    
C2    C3    A    
C26   C27   A    
C2    H12   S    
C7    C8    A    
Cu2   O8    S    
C23   H13   S    
C16   O7    A    
C13   C14   A    
C8    O9    S    
C24   N3    T    
C15   O6    A    
C12   C20   T    
C11   N1    A    
C29   C30   A    
C3    H3    S    
C9    H9    S    
C22   H6    S    
C26   H14   S    
Cu1   O3    S    
C28   C29   A    
C16   O8    A    
C15   O5    A    
C5    C29   A    
C7    H8    S    
C4    O4    A    
C22   O9    S    
C30   C31   A    
C1    O1    A    
C6    H7    S    
Cu1   N2    S    
C5    C15   S    
C14   N2    A    
C16   C17   S    
C10   C11   A    
C10   N2    A    
C22   H5    S    
C23   C30   A    
C3    C5    A    
C1    C31   S    
Cu2   O2    S    
C18   C19   D    
C23   C26   A    
C6    C11   A    
Cu2   N1    S    
C1    O2    A    
C2    C31   A    
Cu2   O6    S    
C27   H2    S    
C4    O3    A    
C22   H4    S    
Cu1   O5    S    
Cu1   O1    S    
C24   C28   S    
C8    C9    A    
C27   C28   A    
C19   H1    S    
C17   C21   T    
