data_mof_unit_30798.cif
_audit_creation_date              2012-12-10T18:47:49-0500
_audit_creation_method            fapswitch 2.2
_symmetry_space_group_name_H-M    P1
_symmetry_Int_Tables_number       1
_space_group_crystal_system       triclinic
_cell_length_a                    9.865905
_cell_length_b                    10.713556
_cell_length_c                    15.397981
_cell_angle_alpha                 89.752562
_cell_angle_beta                  67.976005
_cell_angle_gamma                 89.976644
_cell_volume                      1508.76730401

loop_
_atom_site_label
_atom_site_type_symbol
_atom_type_description
_atom_site_fract_x
_atom_site_fract_y
_atom_site_fract_z
_atom_type_partial_charge
C1    C     C_R   0.499567 0.740043 0.500745 0.938762
C2    C     C_R   0.385155 0.936183 0.487626 -0.114322
C3    C     C_R   0.499002 0.127432 0.501484 -0.015987
C4    C     C_R   0.498598 0.872494 0.502045 -0.008025
C5    C     C_R   0.948573 0.400889 0.465208 -0.038578
C6    C     C_R   0.051478 0.599097 0.534774 0.037364
C7    C     C_R   0.092198 0.400900 0.465231 0.011122
C8    C     C_R   0.908133 0.599263 0.534377 -0.029813
C9    C     C_R   0.408818 0.498711 0.675775 0.940041
C10   C     C_R   0.590507 0.510147 0.324076 0.921572
C11   C     C_R   0.351948 0.484133 0.776569 -0.116474
C12   C     C_R   0.499767 0.259936 0.500340 0.858354
C13   C     C_R   0.643939 0.536257 0.223064 -0.222086
C14   C     C_R   0.219970 0.358190 0.912432 -0.097415
C15   C     C_R   0.838622 0.553720 0.069272 -0.062815
C16   C     C_R   0.255339 0.386425 0.818285 -0.192270
C17   C     C_R   0.793347 0.533541 0.166199 -0.169037
C18   C     C_R   0.415267 0.552629 0.828243 0.384283
C19   C     C_R   0.542356 0.562282 0.181467 0.386183
C20   C     C_R   0.407963 0.503968 0.914729 -0.045613
C21   C     C_R   0.585419 0.545071 0.085413 -0.026600
C22   C     C_R   0.296374 0.415877 0.962360 -0.064964
C23   C     C_R   0.360526 0.436289 0.098464 -0.190966
C24   C     C_R   0.733923 0.562039 0.027261 -0.041744
C25   C     C_R   0.514993 0.532139 0.951785 0.068610
C26   C     C_R   0.483418 0.509268 0.046698 0.047673
C27   C     C_R   0.658449 0.567850 0.894390 -0.197419
C28   C     C_R   0.271044 0.384130 0.056281 0.431996
C29   C     C_R   0.768700 0.581725 0.930288 0.362353
C30   C     C_R   0.611279 0.935904 0.517373 -0.131415
C31   C     C_R   0.385483 0.063966 0.487194 -0.173322
C32   C     C_R   0.611538 0.063771 0.517031 -0.182508
H1    H     H_    0.343983 0.407856 0.169137 0.217490
H2    H     H_    0.863330 0.805506 0.817463 0.370424
H3    H     H_    0.254367 0.785365 0.193446 0.394477
H4    H     H_    0.509465 0.875081 0.862446 0.387740
H5    H     H_    0.874690 0.518576 0.196720 0.220303
H6    H     H_    0.207853 0.331688 0.777806 0.185001
H7    H     H_    0.141183 0.284798 0.942652 0.226233
H8    H     H_    0.954364 0.552558 0.028234 0.215095
H9    H     H_    0.162859 0.321788 0.436882 0.134121
H10   H     H_    0.838528 0.679199 0.561328 0.175129
H11   H     H_    0.689613 0.574322 0.819481 0.218290
H12   H     H_    0.698737 0.887163 0.529657 0.169219
H13   H     H_    0.297910 0.112587 0.474959 0.156780
H14   H     H_    0.699208 0.112328 0.529052 0.157384
H15   H     H_    0.297240 0.887757 0.475807 0.179540
H16   H     H_    0.910969 0.321628 0.437136 0.136547
H17   H     H_    0.089121 0.678449 0.562751 0.160931
H18   H     H_    0.040252 0.213245 0.266161 0.378847
N1    N     N_R   0.142780 0.500030 0.500020 -0.082107
N2    N     N_R   0.857220 0.499970 0.499980 -0.096648
O1    O     O_R   0.385370 0.683250 0.500010 -0.605255
O2    O     O_2   0.185538 0.146099 0.083819 -0.264102
O3    O     O_3   0.114601 0.278073 0.235557 -0.572084
O4    O     O_2   0.038297 0.684521 0.895416 -0.257265
O5    O     O_2   0.015776 0.518515 0.792255 -0.295713
O6    O     O_3   0.918198 0.736859 0.776281 -0.519746
O7    O     O_2   0.254477 0.575991 0.291522 -0.312039
O8    O     O_2   0.413078 0.745027 0.304632 -0.317737
O9    O     O_3   0.345374 0.739666 0.157561 -0.498866
O10   O     O_2   0.616247 0.715536 0.718137 -0.360666
O11   O     O_2   0.358954 0.769544 0.760841 -0.249569
O12   O     O_R   0.614630 0.316750 0.499990 -0.636974
O13   O     O_3   0.470777 0.791764 0.887962 -0.500654
O14   O     O_R   0.614700 0.683220 0.500000 -0.626484
O15   O     O_R   0.385300 0.316780 0.500000 -0.645048
O16   O     O_R   0.319830 0.500020 0.632250 -0.571557
O17   O     O_R   0.680170 0.499980 0.367750 -0.608777
O18   O     O_R   0.549160 0.499990 0.632240 -0.600633
O19   O     O_R   0.450840 0.500010 0.367760 -0.551153
O20   O     O_2   0.992726 0.302656 0.113550 -0.335711
S1    S     S_3+6 0.136520 0.274361 0.121843 0.007950
S2    S     S_3+6 0.942126 0.629660 0.849367 0.036489
S3    S     S_3+6 0.384075 0.656343 0.238229 0.034518
S4    S     S_3+6 0.467804 0.710608 0.795398 0.035715
Zn1   Zn    Zn3+2 0.346870 0.500020 0.500000 1.047590
Zn2   Zn    Zn3+2 0.653130 0.499980 0.500000 0.996036

loop_
_geom_bond_atom_site_label_1
_geom_bond_atom_site_label_2
_ccdc_geom_bond_type
C21   C26   A    
C11   C18   A    
C27   C29   A    
O1    Zn1   S    
O15   Zn1   S    
O10   S4    D    
O9    S3    S    
O13   S4    S    
C19   C21   A    
C8    H10   S    
C12   O12   A    
O18   Zn2   S    
C20   C25   A    
C23   C26   A    
C1    O1    A    
C24   C29   A    
C3    C12   S    
C14   H7    S    
C23   H1    S    
C5    N2    A    
C6    N1    A    
C8    N2    A    
C10   O19   A    
C22   C28   A    
C30   H12   S    
O17   Zn2   S    
O12   Zn2   S    
N2    Zn2   S    
C28   S1    S    
C12   O15   A    
O14   Zn2   S    
C5    H16   S    
O4    S2    D    
C13   C19   A    
C9    O18   A    
C5    C7    A    
H4    O13   S    
C6    C8    A    
C29   S2    S    
C25   C26   A    
C2    C31   A    
O5    S2    D    
C2    C4    A    
N1    Zn1   S    
O2    S1    D    
C11   C16   A    
C1    O14   A    
H3    O9    S    
C17   H5    S    
C23   C28   A    
C3    C31   A    
C9    C11   S    
C15   C24   A    
C20   C22   A    
C31   H13   S    
C14   C16   A    
O7    S3    D    
O19   Zn1   S    
O6    S2    S    
O16   Zn1   S    
C15   C17   A    
C18   S4    S    
C32   H14   S    
O20   S1    D    
C10   C13   S    
C2    H15   S    
C25   C27   A    
O8    S3    D    
H18   O3    S    
C13   C17   A    
C1    C4    S    
C14   C22   A    
C19   S3    S    
C9    O16   A    
C7    N1    A    
C30   C32   A    
C18   C20   A    
C7    H9    S    
C6    H17   S    
C3    C32   A    
C15   H8    S    
O3    S1    S    
C10   O17   A    
C27   H11   S    
O11   S4    D    
C21   C24   A    
H2    O6    S    
C4    C30   A    
C16   H6    S    
