data_mof_unit_41147.cif
_audit_creation_date              2012-12-11T16:28:28-0500
_audit_creation_method            fapswitch 2.2
_symmetry_space_group_name_H-M    P1
_symmetry_Int_Tables_number       1
_space_group_crystal_system       triclinic
_cell_length_a                    16.575173
_cell_length_b                    7.255997
_cell_length_c                    15.213978
_cell_angle_alpha                 90.100136
_cell_angle_beta                  94.755329
_cell_angle_gamma                 90.003043
_cell_volume                      1823.47480743

loop_
_atom_site_label
_atom_site_type_symbol
_atom_type_description
_atom_site_fract_x
_atom_site_fract_y
_atom_site_fract_z
_atom_type_partial_charge
O1    O     O_R   0.663460 0.361760 0.165970 -0.539329
O2    O     O_R   0.336540 0.638240 0.834030 -0.539329
O3    O     O_R   0.836540 0.861760 0.334030 -0.523648
O4    O     O_R   0.163460 0.138240 0.665970 -0.523649
O5    O     O_R   0.827100 0.689870 0.163730 -0.517378
O6    O     O_R   0.172900 0.310130 0.836270 -0.517378
O7    O     O_R   0.672900 0.189870 0.336270 -0.537498
O8    O     O_R   0.327100 0.810130 0.663730 -0.537497
H1    H     H_    0.208887 0.904667 0.498484 0.099984
H2    H     H_    0.791113 0.095332 0.501516 0.099984
H3    H     H_    0.289385 0.578039 0.996000 0.099332
H4    H     H_    0.710615 0.421961 0.004000 0.099333
C1    C     C_R   0.853281 0.522871 0.143597 0.702221
C2    C     C_R   0.146719 0.477129 0.856403 0.702221
C3    C     C_R   0.646724 0.023002 0.356428 0.705240
C4    C     C_R   0.353276 0.976997 0.643572 0.705240
O9    O     O_R   0.663490 0.691370 0.155500 -0.525679
O10   O     O_R   0.336510 0.308630 0.844500 -0.525679
O11   O     O_R   0.836510 0.191370 0.344500 -0.542097
O12   O     O_R   0.163490 0.808630 0.655500 -0.542097
O13   O     O_R   0.671770 0.863320 0.325740 -0.508559
O14   O     O_R   0.328230 0.136680 0.674260 -0.508559
O15   O     O_R   0.828230 0.363320 0.174260 -0.528613
O16   O     O_R   0.171770 0.636680 0.825740 -0.528613
C5    C     C_R   0.635874 0.522795 0.134155 0.796154
C6    C     C_R   0.364126 0.477205 0.865845 0.796154
C7    C     C_R   0.864127 0.023052 0.365881 0.795845
C8    C     C_R   0.135873 0.976948 0.634119 0.795845
H5    H     H_    0.118861 0.885420 0.229178 0.145006
H6    H     H_    0.881139 0.114578 0.770822 0.145006
H7    H     H_    0.379053 0.690401 0.260120 0.143329
H8    H     H_    0.620946 0.309598 0.739880 0.143329
O17   O     O_3   0.752910 0.528800 0.305860 -0.376297
O18   O     O_3   0.247090 0.471200 0.694140 -0.376297
O19   O     O_3   0.747090 0.028800 0.194140 -0.374364
O20   O     O_3   0.252910 0.971200 0.805860 -0.374364
V1    V     V_3+5 0.749460 0.803010 0.239640 1.572871
V2    V     V_3+5 0.250540 0.196990 0.760360 1.572871
V3    V     V_3+5 0.750540 0.303010 0.260360 1.522228
V4    V     V_3+5 0.249460 0.696990 0.739640 1.522227
C9    C     C_1   0.468821 0.994694 0.530113 0.022368
C10   C     C_1   0.531179 0.005306 0.469886 0.022368
C11   C     C_1   0.031178 0.494848 0.969876 0.023271
C12   C     C_1   0.968822 0.505151 0.030124 0.023271
H9    H     H_    0.768901 0.142373 0.655269 0.141990
H10   H     H_    0.231098 0.857625 0.344731 0.141990
H11   H     H_    0.733715 0.328169 0.855324 0.143075
H12   H     H_    0.266285 0.671829 0.144676 0.143075
C13   C     C_R   0.029510 0.946504 0.319699 0.586621
C14   C     C_R   0.970490 0.053495 0.680301 0.586621
C15   C     C_R   0.469524 0.608118 0.174514 0.586487
C16   C     C_R   0.530476 0.391882 0.825486 0.586487
C17   C     C_R   0.107409 0.904726 0.297635 -0.166796
C18   C     C_R   0.892591 0.095272 0.702365 -0.166796
C19   C     C_R   0.390847 0.650206 0.193810 -0.166805
C20   C     C_R   0.609153 0.349793 0.806190 -0.166804
C21   C     C_R   0.170760 0.889287 0.362672 -0.213952
C22   C     C_R   0.829240 0.110711 0.637328 -0.213952
C23   C     C_R   0.327209 0.639622 0.128844 -0.214616
C24   C     C_R   0.672790 0.360377 0.871156 -0.214616
C25   C     C_R   0.157072 0.916149 0.450708 -0.145367
C26   C     C_R   0.842928 0.083850 0.549292 -0.145366
C27   C     C_R   0.341409 0.586166 0.043697 -0.142790
C28   C     C_R   0.658591 0.413833 0.956303 -0.142790
C29   C     C_R   0.078746 0.957328 0.476054 -0.006384
C30   C     C_R   0.921254 0.042672 0.523946 -0.006384
C31   C     C_R   0.420494 0.543533 0.021122 -0.006316
C32   C     C_R   0.579506 0.456466 0.978878 -0.006316
C33   C     C_R   0.013103 0.971861 0.409428 -0.040242
C34   C     C_R   0.986897 0.028138 0.590572 -0.040243
C35   C     C_R   0.486386 0.555540 0.087596 -0.040626
C36   C     C_R   0.513614 0.444460 0.912404 -0.040626
C37   C     C_R   0.065958 0.986266 0.566186 -0.148563
C38   C     C_R   0.934042 0.013733 0.433814 -0.148563
C39   C     C_R   0.433820 0.487485 0.934009 -0.148590
C40   C     C_R   0.566180 0.512515 0.065991 -0.148590
C41   C     C_1   0.415996 0.986038 0.581456 -0.130489
C42   C     C_1   0.584004 0.013962 0.418544 -0.130489
C43   C     C_1   0.084001 0.486360 0.918519 -0.132958
C44   C     C_1   0.915999 0.513640 0.081481 -0.132958
F1    F     F_    0.971651 0.964743 0.251784 -0.703526
F2    F     F_    0.028348 0.035257 0.748216 -0.703526
F3    F     F_    0.527795 0.617415 0.242467 -0.704544
F4    F     F_    0.472205 0.382585 0.757533 -0.704544

loop_
_geom_bond_atom_site_label_1
_geom_bond_atom_site_label_2
_ccdc_geom_bond_type
C22   C26   A    
O5    V1    S    
C9    C10   S    
O10   C6    A    
H6    C18   S    
O17   V3    S    
H1    C25   S    
C28   C32   A    
O19   V1    S    
C19   C23   A    
C9    C41   T    
C35   C40   A    
O12   V4    S    
C29   C33   A    
C3    C42   S    
C13   F1    S    
C30   C38   A    
C29   C37   A    
C1    O15   A    
C4    C41   S    
C2    O16   A    
C16   F4    S    
H11   C24   S    
O6    V2    S    
C7    C38   S    
O11   C7    A    
O5    C1    A    
O7    C3    A    
C1    C44   S    
O8    C4    A    
C13   C33   A    
O1    C5    A    
H2    C26   S    
C15   C35   A    
C36   C39   A    
C8    C37   S    
O4    C8    A    
C27   C31   A    
H9    C22   S    
C26   C30   A    
C12   C44   T    
C17   C21   A    
O9    V1    S    
O12   C8    A    
C15   C19   A    
C20   C24   A    
C11   C12   S    
C16   C36   A    
C25   C29   A    
O6    C2    A    
C32   C36   A    
C34   C37   A    
C6    C39   S    
C33   C38   A    
O2    C6    A    
C14   C18   A    
C2    C43   S    
O11   V3    S    
O4    V2    S    
C10   C42   T    
H10   C21   S    
O18   V4    S    
C31   C39   A    
C15   F3    S    
C14   F2    S    
H12   C23   S    
C18   C22   A    
H4    C28   S    
C4    O14   A    
C23   C27   A    
C21   C25   A    
C32   C40   A    
H3    C27   S    
C24   C28   A    
C5    C40   S    
O9    C5    A    
O3    C7    A    
C14   C34   A    
C30   C34   A    
H5    C17   S    
C13   C17   A    
O20   V2    S    
O16   V4    S    
H8    C20   S    
C31   C35   A    
O10   V2    S    
O1    V3    S    
O2    V4    S    
C3    O13   A    
O13   V1    S    
O3    V1    S    
O7    V3    S    
O8    V4    S    
H7    C19   S    
C11   C43   T    
O15   V3    S    
C16   C20   A    
O14   V2    S    
