data_mof_unit_37770.cif
_audit_creation_date              2013-03-05T16:48:11-0500
_audit_creation_method            fapswitch 2.2
_symmetry_space_group_name_H-M    P1
_symmetry_Int_Tables_number       1
_space_group_crystal_system       triclinic
_cell_length_a                    10.863564
_cell_length_b                    12.277133
_cell_length_c                    13.219845
_cell_angle_alpha                 116.715234
_cell_angle_beta                  78.473907
_cell_angle_gamma                 100.095309
_cell_volume                      1535.82556415

loop_
_atom_site_label
_atom_site_type_symbol
_atom_site_description
_atom_site_fract_x
_atom_site_fract_y
_atom_site_fract_z
_atom_type_partial_charge
O1    O     O_R   0.536940 0.972510 0.318130 -0.561642
O2    O     O_R   0.487330 0.806530 0.359650 -0.597310
C1    C     C_R   0.517176 0.854558 0.286739 0.809616
O3    O     O_R   0.705160 0.082990 0.479250 -0.574622
O4    O     O_R   0.655550 0.917010 0.520760 -0.608103
C2    C     C_R   0.736776 0.999314 0.502049 0.780572
Cu1   Cu    Cu3+1 0.529370 0.098270 0.475420 1.017101
Cu2   Cu    Cu3+1 0.470630 0.901730 0.524580 0.960693
O5    O     O_R   0.512670 0.193470 0.640350 -0.543180
O6    O     O_R   0.463060 0.027490 0.681870 -0.601638
O7    O     O_R   0.344450 0.082990 0.479240 -0.573274
O8    O     O_R   0.294840 0.917010 0.520750 -0.583985
C3    C     C_R   0.481534 0.145287 0.712815 0.819404
C4    C     C_R   0.262646 0.003016 0.502124 0.841891
H1    H     H_    0.632639 0.705879 0.800792 0.206849
C5    C     C_R   0.673258 0.870417 0.776950 -0.174687
H2    H     H_    0.607583 0.920030 0.850747 0.187228
C6    C     C_R   0.745160 0.929142 0.712331 -0.040615
H3    H     H_    0.735654 0.024745 0.738034 0.153342
C7    C     C_R   0.829419 0.865106 0.615498 0.045988
C8    C     C_R   0.843585 0.742502 0.586955 -0.227971
H4    H     H_    0.909964 0.693479 0.513399 0.210264
C9    C     C_R   0.773678 0.683609 0.653263 0.382411
C10   C     C_R   0.687633 0.748642 0.748085 -0.190680
C11   C     C_R   0.042525 0.930924 0.545434 -0.193386
H5    H     H_    0.075707 0.878136 0.580149 0.180351
C12   C     C_R   0.128704 0.005747 0.503898 -0.047240
C13   C     C_R   0.083857 0.080293 0.466321 0.130736
C14   C     C_R   0.956232 0.068818 0.460251 -0.155258
H6    H     H_    0.923954 0.124449 0.427938 0.177073
C15   C     C_R   0.869746 0.997196 0.504478 -0.088152
C16   C     C_R   0.913006 0.929762 0.551523 0.035690
C17   C     C_R   0.138398 0.302934 0.551213 0.220295
C18   C     C_R   0.157099 0.410258 0.536624 -0.137255
H7    H     H_    0.132219 0.495483 0.608146 0.231643
C19   C     C_R   0.202065 0.407463 0.429522 0.237849
C20   C     C_R   0.235209 0.297843 0.337107 -0.219290
H8    H     H_    0.275020 0.299248 0.255918 0.218449
C21   C     C_R   0.210636 0.186472 0.347577 0.284693
C22   C     C_R   0.156676 0.189173 0.455803 -0.106312
C23   C     C_R   0.295239 0.293532 0.999223 0.284742
H9    H     H_    0.292963 0.111558 0.864588 0.183519
H10   H     H_    0.207333 0.497269 0.172818 0.235035
C24   C     C_R   0.452591 0.228685 0.832561 -0.125219
C25   C     C_R   0.661515 0.798228 0.106789 -0.240676
C26   C     C_R   0.723715 0.704874 0.015816 -0.170963
C27   C     C_R   0.673893 0.582367 0.982574 0.319410
C28   C     C_R   0.546566 0.555141 0.026351 -0.002275
C29   C     C_R   0.485282 0.651390 0.120916 0.039433
C30   C     C_R   0.478257 0.436668 0.981545 0.076998
C31   C     C_R   0.358809 0.412926 0.039769 0.043480
C32   C     C_R   0.301779 0.510111 0.132071 -0.107886
C33   C     C_R   0.362455 0.627622 0.170223 -0.092754
C34   C     C_R   0.518104 0.344931 0.873912 -0.092625
C35   C     C_R   0.345256 0.201300 0.897938 -0.173389
C36   C     C_R   0.548531 0.770326 0.166222 -0.072507
H11   H     H_    0.594486 0.364934 0.816745 0.214377
H12   H     H_    0.709906 0.889839 0.139497 0.185896
H13   H     H_    0.818114 0.727252 0.980251 0.214955
H14   H     H_    0.311620 0.700590 0.238871 0.185445
C37   C     C_R   0.710498 0.347272 0.335538 0.268054
H15   H     H_    0.727825 0.166877 0.316091 0.150929
H16   H     H_    0.740345 0.548588 0.298069 0.213495
N1    N     N_R   0.573890 0.246290 0.438210 -0.220280
C38   C     C_R   0.337766 0.767951 0.652619 0.023025
C39   C     C_R   0.321512 0.687432 0.702858 0.177704
C40   C     C_R   0.393799 0.586858 0.655317 0.174062
C41   C     C_R   0.474831 0.561903 0.549578 -0.099041
C42   C     C_R   0.497434 0.655413 0.510200 0.271052
C43   C     C_R   0.539858 0.453173 0.484164 -0.007799
C44   C     C_R   0.640781 0.450445 0.396009 0.040715
C45   C     C_R   0.667051 0.548467 0.366730 -0.223936
C46   C     C_R   0.596101 0.647077 0.421285 -0.149881
C47   C     C_R   0.504221 0.343489 0.496869 0.089579
C48   C     C_R   0.674888 0.246235 0.359786 0.045713
N2    N     N_R   0.426890 0.754320 0.561170 -0.211250
H17   H     H_    0.418698 0.331340 0.549358 0.169302
H18   H     H_    0.285254 0.847506 0.691967 0.164790
H19   H     H_    0.624973 0.716526 0.392217 0.203992
Br1   Br    Br    0.208745 0.552453 0.408991 -0.510574
N3    N     N_R   0.235827 0.073186 0.247776 0.156334
O9    O     O_R   0.231474 0.970996 0.256276 -0.358833
O10   O     O_R   0.271835 0.072834 0.147586 -0.310903
Br2   Br    Br    0.133919 0.252015 0.070766 -0.330085
N4    N     N_R   0.760221 0.489950 0.920798 0.119486
O11   O     O_R   0.761115 0.405025 0.953925 -0.316640
O12   O     O_R   0.853517 0.504372 0.847651 -0.245845
N5    N     N_R   0.817048 0.343481 0.250472 0.133830
O13   O     O_R   0.910618 0.429023 0.275566 -0.290435
O14   O     O_R   0.830286 0.244787 0.155155 -0.298640
Br3   Br    Br    0.399288 0.509182 0.752954 -0.450913
Br4   Br    Br    0.203684 0.723556 0.840550 -0.340331
N6    N     N_R   0.791064 0.559142 0.625178 0.134251
O15   O     O_R   0.716977 0.499906 0.678065 -0.332413
O16   O     O_R   0.881039 0.503724 0.546313 -0.327292
Br5   Br    Br    0.073520 0.313882 0.701455 -0.323759

loop_
_geom_bond_atom_site_label_1
_geom_bond_atom_site_label_2
_geom_bond_distance
_ccdc_geom_bond_type
N6    O15   1.301000 A    
C26   H13   1.082999 S    
N3    O9    1.301043 A    
Cu1   Cu2   2.712247 S    
N4    O11   1.301819 A    
C37   C48   1.389545 A    
Cu1   O7    1.977180 S    
C30   C34   1.401563 A    
C38   N2    1.354293 A    
C27   N4    1.437939 S    
C13   C14   1.383613 A    
C20   H8    1.080680 S    
C18   H7    1.081363 S    
O4    C2    1.298369 A    
O7    C4    1.303465 A    
H10   C32   1.080060 S    
C13   C22   1.477979 S    
Cu2   N2    2.031948 S    
C42   N2    1.378423 A    
C6    H3    1.083355 S    
O5    C3    1.300745 A    
C23   C35   1.389975 A    
C15   C16   1.417471 A    
C25   C36   1.396566 A    
C5    H2    1.082455 S    
C47   H17   1.074134 S    
C43   C47   1.409276 A    
C19   C20   1.396142 A    
C9    C10   1.405735 A    
C42   C46   1.402800 A    
C43   C44   1.424245 A    
C4    C12   1.456609 S    
C6    C7    1.404917 A    
N5    O13   1.301365 A    
C37   C44   1.414585 A    
C11   C16   1.391110 A    
C28   C30   1.428207 A    
C39   C40   1.407576 A    
C5    C10   1.396514 A    
C8    H4    1.083294 S    
C14   C15   1.396731 A    
O3    Cu1   1.964054 S    
N3    O10   1.302200 A    
C33   H14   1.083183 S    
C30   C31   1.425213 A    
N4    O12   1.301154 A    
C25   H12   1.083804 S    
C17   C22   1.412170 A    
C40   C41   1.428466 A    
C21   N3    1.445430 S    
O3    C2    1.306752 A    
C19   Br1   1.904932 S    
C21   C22   1.421522 A    
C41   C42   1.427133 A    
C39   Br4   1.921100 S    
C11   H5    1.084445 S    
C25   C26   1.387068 A    
C23   Br2   1.919242 S    
C9    N6    1.439328 S    
O1    C1    1.304462 A    
C14   H6    1.085393 S    
C37   N5    1.434663 S    
H9    C35   1.083946 S    
C1    C36   1.465956 S    
C27   C28   1.432435 A    
Cu2   O8    1.964053 S    
C40   Br3   1.932973 S    
C17   C18   1.390539 A    
C46   H19   1.060997 S    
H16   C45   1.081595 S    
C5    C6    1.396201 A    
H1    C10   1.081964 S    
N5    O14   1.300977 A    
C8    C9    1.406856 A    
H15   C48   1.082266 S    
C17   Br5   1.921836 S    
C32   C33   1.384008 A    
C7    C16   1.487935 S    
Cu1   O5    1.943678 S    
C26   C27   1.401286 A    
C28   C29   1.420350 A    
C38   H18   1.081629 S    
O1    Cu1   1.950364 S    
O2    Cu2   1.943679 S    
O8    C4    1.302134 A    
C45   C46   1.378346 A    
O6    C3    1.303181 A    
O4    Cu2   1.977182 S    
C11   C12   1.403010 A    
C29   C36   1.410463 A    
O2    C1    1.304208 A    
C31   C32   1.394414 A    
C20   C21   1.409747 A    
C24   C35   1.393116 A    
N6    O16   1.301307 A    
C29   C33   1.406217 A    
N1    C48   1.350465 A    
C2    C15   1.456305 S    
C18   C19   1.389353 A    
Cu1   N1    2.044228 S    
C24   C34   1.392873 A    
C44   C45   1.390609 A    
C7    C8    1.406797 A    
Cu2   O6    1.950363 S    
C38   C39   1.389856 A    
C12   C13   1.408390 A    
C41   C43   1.441305 A    
N1    C47   1.359501 A    
C23   C31   1.414026 A    
C3    C24   1.452512 S    
C34   H11   1.079257 S    
