data_mof_unit_63889.cif
_audit_creation_date              2012-12-10T18:06:22-0500
_audit_creation_method            fapswitch 2.2
_symmetry_space_group_name_H-M    P1
_symmetry_Int_Tables_number       1
_space_group_crystal_system       triclinic
_cell_length_a                    10.828468
_cell_length_b                    14.427726
_cell_length_c                    13.134495
_cell_angle_alpha                 90.000409
_cell_angle_beta                  90.049488
_cell_angle_gamma                 90.036255
_cell_volume                      2052.00320128

loop_
_atom_site_label
_atom_site_type_symbol
_atom_type_description
_atom_site_fract_x
_atom_site_fract_y
_atom_site_fract_z
_atom_type_partial_charge
C1    C     C_R   0.500128 0.328701 0.499999 0.824931
C2    C     C_1   0.500005 0.957585 0.500013 0.009588
C3    C     C_1   0.499996 0.857670 0.500008 0.001216
C4    C     C_1   0.499971 0.772850 0.500003 -0.210231
C5    C     C_1   0.499998 0.500015 0.173607 0.125371
C6    C     C_1   0.500003 0.500017 0.826393 0.131468
C7    C     C_1   0.500000 0.500011 0.050685 -0.070910
C8    C     C_1   0.500002 0.500012 0.949316 -0.070287
C9    C     C_R   0.258508 0.488186 0.499846 0.881310
C10   C     C_R   0.742505 0.494116 0.500008 0.861881
C11   C     C_R   0.499912 0.671286 0.499999 0.867394
C12   C     C_3   0.072508 0.425420 0.589021 -0.033211
C13   C     C_3   0.069528 0.448884 0.394714 -0.090261
C14   C     C_3   0.928768 0.433255 0.593944 -0.024010
C15   C     C_3   0.925397 0.444823 0.399093 0.006772
C16   C     C_3   0.077061 0.592424 0.517950 0.270840
C17   C     C_3   0.930302 0.596701 0.503855 0.172689
C18   C     C_3   0.121981 0.487925 0.499506 -0.046073
C19   C     C_3   0.879108 0.492137 0.499854 -0.055781
C20   C     C_1   0.500059 0.227143 0.500005 -0.204050
C21   C     C_1   0.500025 0.142325 0.500012 -0.000693
C22   C     C_1   0.500010 0.042411 0.500015 0.008070
Cu1   Cu    Cu3+1 0.500000 0.499990 0.592680 0.962145
Cu2   Cu    Cu3+1 0.500000 0.499990 0.407320 0.960859
H1    H     H_    0.109076 0.452066 0.662284 0.155085
H2    H     H_    0.094179 0.497754 0.332806 0.121835
H3    H     H_    0.906123 0.469920 0.665726 0.101828
H4    H     H_    0.890163 0.484794 0.332979 0.125036
N1    N     N_1   0.500000 0.500020 0.268070 -0.133632
N2    N     N_1   0.500000 0.500020 0.731930 -0.131260
O1    O     O_R   0.500000 0.376050 0.578280 -0.571058
O2    O     O_R   0.500000 0.376050 0.421720 -0.557332
O3    O     O_R   0.317680 0.499980 0.578260 -0.556811
O4    O     O_R   0.317680 0.499980 0.421740 -0.584632
O5    O     O_R   0.682320 0.499980 0.578260 -0.602588
O6    O     O_R   0.682320 0.499980 0.421740 -0.575285
O7    O     O_R   0.500000 0.623940 0.578240 -0.548730
O8    O     O_R   0.500000 0.623940 0.421760 -0.554222
N3    N     N_3   0.117177 0.328893 0.586546 -0.575227
H5    H     H_    0.213171 0.326870 0.579072 0.209553
H6    H     H_    0.078277 0.290371 0.527890 0.282883
N4    N     N_3   0.123010 0.358998 0.365100 -0.615472
H7    H     H_    0.090756 0.342200 0.292316 0.220208
H8    H     H_    0.218453 0.364274 0.356597 0.233613
N5    N     N_3   0.870195 0.341351 0.602094 -0.564295
H9    H     H_    0.775628 0.348515 0.615007 0.227552
H10   H     H_    0.903525 0.308857 0.667811 0.238934
N6    N     N_3   0.871858 0.351562 0.385616 -0.549904
H11   H     H_    0.873133 0.334209 0.308285 0.208425
H12   H     H_    0.921734 0.300655 0.423733 0.278720
N7    N     N_3   0.114383 0.622399 0.621479 -0.555870
H13   H     H_    0.060443 0.593406 0.678885 0.189992
H14   H     H_    0.104178 0.694233 0.628535 0.250654
N8    N     N_3   0.142125 0.656217 0.447617 -0.569472
H15   H     H_    0.105337 0.723075 0.453022 0.250311
H16   H     H_    0.139889 0.635852 0.371655 0.200719
N9    N     N_3   0.873559 0.650156 0.588122 -0.574681
H17   H     H_    0.860220 0.611029 0.653721 0.196550
H18   H     H_    0.785743 0.673766 0.567375 0.228075
N10   N     N_3   0.898892 0.648119 0.409475 -0.591036
H19   H     H_    0.803953 0.646902 0.395442 0.222824
H20   H     H_    0.943391 0.623806 0.344566 0.189681

loop_
_geom_bond_atom_site_label_1
_geom_bond_atom_site_label_2
_ccdc_geom_bond_type
C2    C22   T    
C11   O8    A    
Cu2   O8    S    
Cu1   Cu2   S    
Cu2   O2    S    
C11   O7    A    
C10   O5    A    
C14   H3    S    
C10   C19   S    
Cu1   O5    S    
C16   N7    S    
C12   H1    S    
C12   N3    S    
N6    H12   S    
C2    C3    S    
N9    H17   S    
C7    C8    T    
N3    H6    S    
C21   C22   S    
C4    C11   S    
C15   C19   S    
N8    H15   S    
C15   H4    S    
Cu2   O6    S    
N4    H8    S    
C13   C18   S    
C9    O3    A    
C15   N6    S    
C16   C18   S    
N6    H11   S    
C6    N2    T    
C12   C14   S    
C14   N5    S    
C5    N1    T    
N5    H10   S    
C13   C15   S    
C9    O4    A    
N8    H16   S    
C13   H2    S    
N9    H18   S    
N4    H7    S    
C17   N10   S    
N7    H13   S    
Cu1   N2    S    
N5    H9    S    
C9    C18   S    
C1    O1    A    
C20   C21   T    
Cu1   O3    S    
N10   H19   S    
N10   H20   S    
C16   N8    S    
C12   C18   S    
N3    H5    S    
C5    C7    S    
Cu2   N1    S    
C13   N4    S    
C1    C20   S    
C6    C8    S    
C10   O6    A    
C17   C19   S    
Cu1   O7    S    
C14   C19   S    
C1    O2    A    
Cu2   O4    S    
C3    C4    T    
C17   N9    S    
C16   C17   S    
N7    H14   S    
Cu1   O1    S    
