data_mof_unit_35228.cif
_audit_creation_date              2013-03-05T16:41:06-0500
_audit_creation_method            fapswitch 2.2
_symmetry_space_group_name_H-M    P1
_symmetry_Int_Tables_number       1
_space_group_crystal_system       triclinic
_cell_length_a                    18.656261
_cell_length_b                    18.644253
_cell_length_c                    18.799832
_cell_angle_alpha                 109.443458
_cell_angle_beta                  109.460511
_cell_angle_gamma                 109.117858
_cell_volume                      5058.01931238

loop_
_atom_site_label
_atom_site_type_symbol
_atom_site_description
_atom_site_fract_x
_atom_site_fract_y
_atom_site_fract_z
_atom_type_partial_charge
O1    O     O_R   0.408360 0.551710 0.460090 -0.604683
O2    O     O_R   0.408400 0.448280 0.356670 -0.628475
C1    C     C_R   0.381313 0.501901 0.380230 0.864797
O3    O     O_R   0.591600 0.643340 0.551710 -0.611482
O4    O     O_R   0.591630 0.539900 0.448290 -0.624245
C2    C     C_R   0.621505 0.620211 0.501435 0.856301
Zn1   Zn    Zn3+2 0.499980 0.569060 0.569060 0.990872
Zn2   Zn    Zn3+2 0.500020 0.430940 0.430940 0.946106
O5    O     O_R   0.591600 0.551720 0.643330 -0.608872
O6    O     O_R   0.591640 0.448290 0.539910 -0.624252
O7    O     O_R   0.408370 0.460100 0.551710 -0.604240
O8    O     O_R   0.408400 0.356660 0.448290 -0.627366
C3    C     C_R   0.618154 0.497738 0.619744 0.864746
C4    C     C_R   0.378161 0.379872 0.498243 0.872608
H1    H     H_    0.791520 0.819486 0.892175 0.126556
C5    C     C_R   0.788588 0.870311 0.804405 -0.143610
H2    H     H_    0.794843 0.930653 0.846895 0.120927
C6    C     C_R   0.781123 0.854487 0.723477 -0.166369
H3    H     H_    0.781033 0.902891 0.703812 0.117750
C7    C     C_R   0.772274 0.775904 0.667634 0.131657
C8    C     C_R   0.772617 0.714313 0.694706 -0.107953
H4    H     H_    0.767022 0.653976 0.653089 0.094209
C9    C     C_R   0.778369 0.729757 0.774964 -0.119044
H5    H     H_    0.775154 0.680811 0.794094 0.130001
C10   C     C_R   0.786772 0.807746 0.829961 -0.118352
C11   C     C_R   0.825293 0.818559 0.576556 -0.262062
H6    H     H_    0.882481 0.874278 0.636330 0.154891
C12   C     C_R   0.813879 0.809824 0.496279 -0.070195
C13   C     C_R   0.738136 0.740182 0.417834 -0.001152
C14   C     C_R   0.677221 0.677506 0.422151 -0.263576
H7    H     H_    0.619288 0.622358 0.362592 0.151971
C15   C     C_R   0.688731 0.686328 0.502414 -0.081389
C16   C     C_R   0.761754 0.758792 0.580898 -0.014904
C17   C     C_R   0.641139 0.721697 0.275869 -0.154626
H8    H     H_    0.594217 0.724032 0.297108 0.120183
C18   C     C_R   0.622728 0.710464 0.193231 -0.143605
H9    H     H_    0.562164 0.704218 0.151301 0.120482
C19   C     C_R   0.682403 0.707200 0.164663 -0.119283
H10   H     H_    0.667951 0.698218 0.100579 0.118521
C20   C     C_R   0.760734 0.715535 0.218845 -0.119313
H11   H     H_    0.806857 0.712872 0.196628 0.133659
C21   C     C_R   0.779538 0.727306 0.301695 -0.110529
H12   H     H_    0.840458 0.734295 0.343205 0.101399
C22   C     C_R   0.719996 0.730486 0.330990 0.133997
H13   H     H_    0.555420 0.888518 0.615984 0.128495
C23   C     C_R   0.418617 0.799348 0.523692 -0.118792
H14   H     H_    0.397180 0.837997 0.559213 0.125006
C24   C     C_R   0.357067 0.719918 0.446898 -0.103363
H15   H     H_    0.288122 0.697383 0.424207 0.148302
C25   C     C_R   0.384416 0.668810 0.400920 0.112662
C26   C     C_R   0.474177 0.699414 0.431978 -0.106104
H16   H     H_    0.496599 0.661469 0.397119 0.094836
C27   C     C_R   0.535308 0.777594 0.510093 -0.110932
H17   H     H_    0.603934 0.798194 0.536262 0.129167
C28   C     C_R   0.507745 0.827874 0.555632 -0.131897
C29   C     C_R   0.253827 0.577903 0.255086 -0.236744
H18   H     H_    0.255246 0.637887 0.259230 0.182453
C30   C     C_R   0.185612 0.497054 0.183910 -0.075109
C31   C     C_R   0.179661 0.417904 0.178975 -0.002413
C32   C     C_R   0.247508 0.422615 0.243557 -0.264562
H19   H     H_    0.245607 0.362647 0.239979 0.155307
C33   C     C_R   0.316053 0.503400 0.314465 -0.077672
C34   C     C_R   0.318420 0.582208 0.322494 -0.016782
C35   C     C_R   0.062173 0.269982 0.130870 -0.155338
H20   H     H_    0.081924 0.288550 0.198246 0.124261
C36   C     C_R   0.993772 0.185878 0.065785 -0.138349
H21   H     H_    0.961381 0.140270 0.083052 0.129690
C37   C     C_R   0.967448 0.160519 0.978509 -0.124038
H22   H     H_    0.914734 0.095331 0.928170 0.118844
C38   C     C_R   0.009272 0.219334 0.956233 -0.121979
H23   H     H_    0.988987 0.199480 0.888623 0.137950
C39   C     C_R   0.077349 0.303630 0.021194 -0.107301
H24   H     H_    0.108747 0.348649 0.003258 0.107266
C40   C     C_R   0.104629 0.329822 0.109099 0.127160
H25   H     H_    0.180900 0.582475 0.488198 0.127707
C41   C     C_R   0.206291 0.517898 0.561889 -0.140113
H26   H     H_    0.204926 0.561341 0.615923 0.120227
C42   C     C_R   0.221152 0.449623 0.563972 -0.138049
H27   H     H_    0.231281 0.440832 0.619974 0.118783
C43   C     C_R   0.223408 0.393290 0.494222 0.137579
C44   C     C_R   0.209569 0.405508 0.422010 -0.136803
H28   H     H_    0.210013 0.361974 0.367251 0.101595
C45   C     C_R   0.193920 0.473419 0.419878 -0.120799
H29   H     H_    0.182239 0.482181 0.363822 0.142917
C46   C     C_R   0.192750 0.529825 0.489914 -0.104813
C47   C     C_R   0.175148 0.254333 0.495994 -0.255242
H30   H     H_    0.118062 0.258041 0.495234 0.163495
C48   C     C_R   0.186492 0.184582 0.498300 -0.081437
C49   C     C_R   0.260427 0.178834 0.500230 0.010845
C50   C     C_R   0.321142 0.242781 0.497175 -0.256845
H31   H     H_    0.378662 0.239445 0.498950 0.157221
C51   C     C_R   0.310385 0.313198 0.496058 -0.081982
C52   C     C_R   0.237394 0.320006 0.495962 -0.007394
C53   C     C_R   0.327348 0.123807 0.592221 -0.102054
H32   H     H_    0.353175 0.185310 0.649350 0.127534
C54   C     C_R   0.342716 0.058402 0.602021 -0.210492
H33   H     H_    0.380410 0.069512 0.666359 0.143720
C55   C     C_R   0.309879 0.978788 0.529037 -0.219188
H34   H     H_    0.323193 0.929284 0.538201 0.154786
C56   C     C_R   0.261515 0.963822 0.445062 0.379208
C57   C     C_R   0.245113 0.029653 0.435626 -0.248700
H35   H     H_    0.206971 0.018966 0.371545 0.153798
C58   C     C_R   0.277753 0.109481 0.509138 0.078751
H36   H     H_    0.405163 0.485088 0.803920 0.122893
C59   C     C_R   0.543080 0.559206 0.851836 -0.140943
H37   H     H_    0.553575 0.613656 0.906732 0.120110
C60   C     C_R   0.613308 0.561223 0.839206 -0.149239
H38   H     H_    0.677940 0.617583 0.884677 0.116703
C61   C     C_R   0.599992 0.490903 0.767883 0.137178
C62   C     C_R   0.515846 0.418229 0.709984 -0.132478
H39   H     H_    0.504793 0.363060 0.655343 0.107593
C63   C     C_R   0.445907 0.416190 0.723302 -0.128183
H40   H     H_    0.381256 0.359823 0.679253 0.138404
C64   C     C_R   0.459425 0.486753 0.793892 -0.108150
C65   C     C_R   0.740278 0.491678 0.817405 -0.256873
H41   H     H_    0.735117 0.489584 0.872586 0.156247
C66   C     C_R   0.813220 0.495625 0.809673 -0.087043
C67   C     C_R   0.822263 0.500766 0.739727 -0.005769
C68   C     C_R   0.755469 0.499013 0.676828 -0.257007
H42   H     H_    0.760902 0.502449 0.622199 0.153703
C69   C     C_R   0.682782 0.495231 0.684827 -0.084726
C70   C     C_R   0.674947 0.492702 0.755930 -0.010389
C71   C     C_R   0.950184 0.581890 0.727863 -0.152710
H43   H     H_    0.932803 0.632749 0.733185 0.120222
C72   C     C_R   0.023453 0.589887 0.718931 -0.138949
H44   H     H_    0.062047 0.646370 0.717158 0.121141
C73   C     C_R   0.046946 0.525049 0.712365 -0.155017
H45   H     H_    0.103669 0.531262 0.705438 0.119361
C74   C     C_R   0.997105 0.452076 0.714566 -0.058104
H46   H     H_    0.015317 0.401869 0.709150 0.167255
C75   C     C_R   0.923775 0.443796 0.723548 -0.062016
H47   H     H_    0.885331 0.386710 0.724653 0.115559
C76   C     C_R   0.900089 0.508946 0.730727 0.110775
O9    O     O_R   0.051730 0.908360 0.460060 -0.620553
O10   O     O_R   0.948280 0.908380 0.356650 -0.624744
C77   C     C_R   0.999327 0.878472 0.380406 0.860769
O11   O     O_R   0.960110 0.908350 0.551690 -0.621953
O12   O     O_R   0.856660 0.908370 0.448270 -0.605591
C78   C     C_R   0.879866 0.877757 0.497851 0.870715
Zn3   Zn    Zn3+2 0.069070 0.999960 0.569030 0.950361
Zn4   Zn    Zn3+2 0.930930 0.999990 0.430930 0.983886
O13   O     O_R   0.051720 0.091580 0.643310 -0.635253
O14   O     O_R   0.948270 0.091600 0.539890 -0.594085
O15   O     O_R   0.143340 0.091590 0.551680 -0.618063
O16   O     O_R   0.039890 0.091610 0.448270 -0.622666
C79   C     C_R   0.998857 0.119320 0.619678 0.873171
C80   C     C_R   0.120247 0.119113 0.499012 0.879303
O17   O     O_R   0.051730 0.460050 0.908360 -0.625204
O18   O     O_R   0.948290 0.356630 0.908390 -0.621663
C81   C     C_R   0.001927 0.380064 0.881341 0.854396
O19   O     O_R   0.143340 0.551690 0.091580 -0.609475
O20   O     O_R   0.039900 0.448270 0.091610 -0.615834
C82   C     C_R   0.119921 0.498345 0.118669 0.874584
Zn5   Zn    Zn3+2 0.069070 0.569030 0.999960 0.997227
Zn6   Zn    Zn3+2 0.930930 0.430930 0.000000 0.954484
O21   O     O_R   0.051710 0.643320 0.091560 -0.578037
O22   O     O_R   0.948270 0.539900 0.091590 -0.639825
O23   O     O_R   0.960100 0.551680 0.908340 -0.610799
O24   O     O_R   0.856660 0.448270 0.908370 -0.626728
C83   C     C_R   0.998194 0.620220 0.118178 0.873047
C84   C     C_R   0.879898 0.497912 0.877753 0.853042
H48   H     H_    0.031092 0.691867 0.594000 0.117979
C85   C     C_R   0.098217 0.765281 0.547053 -0.172998
H49   H     H_    0.159601 0.804341 0.607632 0.118483
C86   C     C_R   0.091485 0.778214 0.476498 -0.050972
H50   H     H_    0.148185 0.827033 0.483011 0.151239
C87   C     C_R   0.011682 0.728636 0.398085 0.105591
C88   C     C_R   0.940174 0.662873 0.389888 -0.208388
H51   H     H_    0.879169 0.621573 0.328828 0.132569
C89   C     C_R   0.946989 0.650339 0.460670 -0.107631
H52   H     H_    0.891280 0.600440 0.454397 0.136018
C90   C     C_R   0.025851 0.701766 0.539327 -0.105193
C91   C     C_R   0.000562 0.677047 0.254544 -0.187416
H53   H     H_    0.002905 0.621040 0.258607 0.150724
C92   C     C_R   0.996950 0.686429 0.183031 -0.048930
C93   C     C_R   0.996420 0.759877 0.177241 0.044288
C94   C     C_R   0.997157 0.821808 0.243876 -0.235710
H54   H     H_    0.995038 0.878002 0.240175 0.144030
C95   C     C_R   0.001119 0.812629 0.315551 -0.084599
C96   C     C_R   0.004868 0.740740 0.322556 0.006022
C97   C     C_R   0.055593 0.855143 0.120157 -0.095860
H55   H     H_    0.103715 0.907174 0.186099 0.158802
C98   C     C_R   0.054783 0.869355 0.051504 -0.158355
H56   H     H_    0.101857 0.931503 0.064754 0.135491
C99   C     C_R   0.993490 0.803341 0.965855 -0.120515
H57   H     H_    0.993072 0.814058 0.912588 0.132587
C100  C     C_R   0.932411 0.723530 0.948940 -0.114302
H58   H     H_    0.885507 0.672653 0.882715 0.133225
C101  C     C_R   0.932136 0.709250 0.017311 -0.142299
H59   H     H_    0.883113 0.647564 0.002936 0.093753
C102  C     C_R   0.995015 0.774341 0.103697 0.118580
H60   H     H_    0.402689 0.584810 0.075815 0.117807
C103  C     C_R   0.286116 0.545547 0.962461 -0.152001
H61   H     H_    0.310411 0.608873 0.966539 0.119038
C104  C     C_R   0.202709 0.477351 0.895531 -0.086451
H62   H     H_    0.163517 0.488512 0.847780 0.122586
C105  C     C_R   0.170136 0.395435 0.890742 0.113823
C106  C     C_R   0.224430 0.381328 0.950608 -0.200889
H63   H     H_    0.201883 0.317587 0.945815 0.136372
C107  C     C_R   0.307643 0.449725 0.017669 -0.120767
H64   H     H_    0.348503 0.438891 0.064592 0.135607
C108  C     C_R   0.338268 0.531939 0.023900 -0.104426
C109  C     C_R   0.078578 0.255647 0.754231 -0.252552
H65   H     H_    0.138766 0.259362 0.756795 0.156287
C110  C     C_R   0.998034 0.185277 0.685056 -0.066642
C111  C     C_R   0.918970 0.179524 0.679043 0.074127
C112  C     C_R   0.922431 0.244341 0.745521 -0.228541
H66   H     H_    0.862046 0.240030 0.742786 0.145536
C113  C     C_R   0.003088 0.315030 0.814986 -0.106730
C114  C     C_R   0.082416 0.322231 0.819112 -0.015801
C115  C     C_R   0.772016 0.112313 0.544740 0.054937
C116  C     C_R   0.689790 0.038642 0.480944 -0.238504
H67   H     H_    0.642448 0.043288 0.432906 0.129351
C117  C     C_R   0.668702 0.957715 0.476643 -0.090868
H68   H     H_    0.605795 0.901003 0.426284 0.138382
C118  C     C_R   0.729056 0.949599 0.536523 -0.124238
H69   H     H_    0.713449 0.886815 0.532115 0.133841
C119  C     C_R   0.809955 0.022277 0.601931 -0.197227
H70   H     H_    0.855437 0.014691 0.648565 0.109255
C120  C     C_R   0.832541 0.104151 0.607076 0.106819
N1    N     N_R   0.230404 0.882819 0.370049 0.200334
O25   O     O_R   0.232309 0.816699 0.378142 -0.450528
O26   O     O_R   0.204473 0.876030 0.293607 -0.425572
C121  C     C_2   0.792211 0.194421 0.541191 0.340170
H71   H     H_    0.739435 0.202626 0.504923 0.064991
O27   O     O_2   0.867333 0.252041 0.575104 -0.584140

loop_
_geom_bond_atom_site_label_1
_geom_bond_atom_site_label_2
_geom_bond_distance
_ccdc_geom_bond_type
O14   C79   1.276296 A    
C36   C37   1.396928 A    
C109  H65   1.085705 S    
C86   H50   1.082246 S    
H13   C28   1.082414 S    
Zn6   O22   2.016560 S    
C66   C67   1.409948 A    
O13   C79   1.277747 A    
C27   C28   1.396769 A    
C2    C15   1.431673 S    
C85   H49   1.082293 S    
C121  H71   1.085593 S    
C99   C100  1.395231 A    
C63   C64   1.397444 A    
C44   H28   1.082788 S    
C119  H70   1.083573 S    
C71   H43   1.083588 S    
C91   H53   1.085762 S    
Zn1   O7    2.016801 S    
C115  C120  1.421663 A    
C109  C110  1.393259 A    
C77   C95   1.432585 S    
C12   C13   1.411516 A    
C11   H6    1.085466 S    
C57   H35   1.083278 S    
C21   C22   1.403509 A    
C71   C76   1.405566 A    
C45   H29   1.081517 S    
O4    C2    1.279547 A    
C18   H9    1.082055 S    
C47   C52   1.384696 A    
C41   C42   1.398524 A    
Zn5   O23   2.017300 S    
C98   C99   1.395358 A    
O9    Zn3   2.021236 S    
C14   H7    1.085500 S    
C43   C44   1.404418 A    
O7    C4    1.278572 A    
C42   C43   1.404712 A    
C61   C70   1.480121 S    
C71   C72   1.398224 A    
C75   H47   1.082704 S    
C89   H52   1.082369 S    
C65   H41   1.085368 S    
C97   H55   1.082221 S    
C29   H18   1.085699 S    
C32   C33   1.395244 A    
C17   H8    1.083500 S    
O19   Zn5   2.016215 S    
C101  C102  1.404402 A    
O5    C3    1.277044 A    
C67   C68   1.384892 A    
C51   C52   1.407880 A    
C105  C114  1.483010 S    
O23   C84   1.278602 A    
O16   C80   1.279976 A    
C62   H39   1.082695 S    
C119  C120  1.403654 A    
H25   C46   1.082575 S    
C115  C116  1.405516 A    
C37   H22   1.082173 S    
C65   C66   1.397034 A    
C54   C55   1.396266 A    
C23   C28   1.396824 A    
C107  H64   1.082361 S    
C60   H38   1.083556 S    
O24   C84   1.278281 A    
C109  C114  1.381859 A    
C38   H23   1.081805 S    
Zn5   O21   2.016522 S    
Zn4   O16   2.017333 S    
C48   C49   1.407649 A    
C59   C60   1.398341 A    
C24   C25   1.406928 A    
C36   H21   1.082358 S    
C31   C32   1.384246 A    
C57   C58   1.404316 A    
C65   C70   1.383099 A    
O1    Zn1   2.021521 S    
C8    H4    1.082233 S    
C49   C58   1.478626 S    
C91   C92   1.395189 A    
C25   C34   1.483294 S    
C60   C61   1.404589 A    
C101  H59   1.082403 S    
C12   C78   1.431812 S    
O17   Zn5   2.016774 S    
O15   C80   1.275999 A    
C63   H40   1.081572 S    
C44   C45   1.399315 A    
C25   C26   1.404139 A    
C68   C69   1.395271 A    
C19   H10   1.082517 S    
O11   Zn3   2.017244 S    
C23   C24   1.397892 A    
C47   C48   1.396254 A    
Zn6   O24   2.016341 S    
C112  H66   1.085159 S    
C81   C113  1.433536 S    
C88   H51   1.083015 S    
C59   C64   1.397754 A    
O10   C77   1.283585 A    
C17   C22   1.406509 A    
C41   H26   1.082393 S    
C39   C40   1.402873 A    
C97   C98   1.397709 A    
C87   C88   1.404502 A    
C42   H27   1.083349 S    
C6    H3    1.083413 S    
C93   C102  1.487874 S    
O9    C77   1.273136 A    
C91   C96   1.381920 A    
C111  C120  1.483793 S    
C30   C31   1.411830 A    
C27   H17   1.077558 S    
O6    C3    1.277752 A    
C103  C108  1.397551 A    
C26   H16   1.082962 S    
C32   H19   1.085462 S    
C26   C27   1.397136 A    
C35   C36   1.398558 A    
C98   H56   1.082329 S    
C73   C74   1.397083 A    
C13   C14   1.385041 A    
C30   C82   1.429802 S    
N1    O25   1.301564 A    
C3    C69   1.430032 S    
C11   C16   1.383228 A    
C50   C51   1.397324 A    
C92   C93   1.412286 A    
O20   Zn6   2.017299 S    
O21   C83   1.275715 A    
Zn2   O8    2.016842 S    
C54   H33   1.082348 S    
C7    C8    1.403361 A    
C33   C34   1.410320 A    
C103  C104  1.398407 A    
C113  C114  1.414472 A    
C29   C34   1.384179 A    
C53   H32   1.083472 S    
C118  H69   1.076090 S    
C53   C54   1.395186 A    
C85   C90   1.397748 A    
O11   C78   1.279714 A    
C31   C40   1.488217 S    
C4    C51   1.430949 S    
C69   C70   1.406449 A    
C106  H63   1.083214 S    
C67   C76   1.481850 S    
C94   H54   1.085296 S    
H36   C64   1.082505 S    
C7    C16   1.482772 S    
C5    C6    1.397962 A    
C93   C94   1.384875 A    
C45   C46   1.397277 A    
O8    C4    1.276652 A    
C53   C58   1.401616 A    
C55   H34   1.082018 S    
O22   C83   1.279733 A    
C55   C56   1.406071 A    
C8    C9    1.397740 A    
C13   C22   1.485933 S    
C72   H44   1.082243 S    
C83   C92   1.430554 S    
C104  C105  1.404983 A    
O3    C2    1.275988 A    
C21   H12   1.077969 S    
C50   H31   1.085261 S    
C73   H45   1.082511 S    
C49   C50   1.382779 A    
C47   H30   1.085349 S    
C72   C73   1.397276 A    
C74   H46   1.081657 S    
C1    C33   1.433187 S    
C5    C10   1.396685 A    
Zn1   O5    2.011962 S    
C110  C111  1.406134 A    
C23   H14   1.082360 S    
C20   H11   1.082127 S    
H60   C108  1.081929 S    
C85   C86   1.398258 A    
C111  C112  1.384248 A    
Zn2   O6    2.021525 S    
O2    Zn2   2.011960 S    
Zn3   O15   2.016535 S    
O17   C81   1.272336 A    
C39   H24   1.076718 S    
C75   C76   1.403960 A    
O12   Zn4   2.016283 S    
C121  O27   1.219509 D    
O4    Zn2   2.016798 S    
C106  C107  1.398033 A    
C68   H42   1.085381 S    
Zn3   O13   2.011971 S    
C95   C96   1.411190 A    
C59   H37   1.082429 S    
C11   C12   1.396100 A    
C88   C89   1.398306 A    
C66   C84   1.433691 S    
C35   H20   1.083308 S    
Zn4   O14   2.021197 S    
O2    C1    1.279169 A    
O18   Zn6   2.016735 S    
C117  C118  1.392266 A    
C100  H58   1.076893 S    
N1    O26   1.300320 A    
O18   C81   1.285073 A    
C15   C16   1.409329 A    
C18   C19   1.397373 A    
C14   C15   1.394926 A    
C97   C102  1.408502 A    
C79   C110  1.428919 S    
C99   H57   1.082514 S    
C5    H2    1.082117 S    
C19   C20   1.396899 A    
C56   N1    1.438401 S    
C24   H15   1.083529 S    
C115  C121  1.482177 S    
C117  H68   1.082610 S    
C20   C21   1.398288 A    
C56   C57   1.409369 A    
C48   C80   1.432225 S    
C29   C30   1.395783 A    
C87   C96   1.481612 S    
C6    C7    1.406441 A    
O19   C82   1.280715 A    
C105  C106  1.404948 A    
C62   C63   1.399355 A    
C100  C101  1.397993 A    
H1    C10   1.082397 S    
O12   C78   1.276392 A    
C116  C117  1.395221 A    
C9    H5    1.078279 S    
C104  H62   1.081887 S    
O10   Zn4   2.011844 S    
C9    C10   1.396291 A    
H48   C90   1.082251 S    
C116  H67   1.083461 S    
C17   C18   1.398617 A    
O3    Zn1   2.016839 S    
C86   C87   1.404677 A    
C103  H61   1.082290 S    
C94   C95   1.394957 A    
C112  C113  1.397295 A    
C37   C38   1.396313 A    
C35   C40   1.407415 A    
C38   C39   1.398481 A    
O20   C82   1.274353 A    
C89   C90   1.397506 A    
O1    C1    1.277156 A    
C43   C52   1.481071 S    
C61   C62   1.404050 A    
C41   C46   1.397700 A    
C107  C108  1.397103 A    
C118  C119  1.393046 A    
C74   C75   1.398889 A    
