data_mof_unit_28847.cif
_audit_creation_date              2012-12-11T14:58:23-0500
_audit_creation_method            fapswitch 2.2
_symmetry_space_group_name_H-M    P1
_symmetry_Int_Tables_number       1
_space_group_crystal_system       triclinic
_cell_length_a                    10.904642
_cell_length_b                    10.952862
_cell_length_c                    18.845544
_cell_angle_alpha                 90.086321
_cell_angle_beta                  90.651928
_cell_angle_gamma                 59.984677
_cell_volume                      1948.84847389

loop_
_atom_site_label
_atom_site_type_symbol
_atom_type_description
_atom_site_fract_x
_atom_site_fract_y
_atom_site_fract_z
_atom_type_partial_charge
C1    C     C_R   0.359127 0.771908 0.397172 0.539340
C2    C     C_R   0.610929 0.111385 0.168926 0.054174
C3    C     C_R   0.360023 0.327190 0.163008 0.001169
C4    C     C_R   0.475736 0.233626 0.275408 -0.141720
C5    C     C_R   0.480349 0.226985 0.202063 -0.019658
C6    C     C_R   0.106417 0.715159 0.273610 -0.095607
C7    C     C_R   0.000377 0.841650 0.301170 -0.129897
C8    C     C_R   0.671040 0.971616 0.193834 -0.091856
C9    C     C_R   0.791543 0.863301 0.161900 -0.115081
C10   C     C_R   0.249077 0.440923 0.197962 -0.149436
C11   C     C_R   0.248430 0.452869 0.271575 -0.030730
C12   C     C_R   0.386110 0.355788 0.387160 0.540718
C13   C     C_R   0.920450 0.841466 0.358351 -0.081190
C14   C     C_R   0.945280 0.713656 0.387372 0.148486
C15   C     C_R   0.048160 0.585756 0.357980 -0.045551
C16   C     C_R   0.132832 0.585618 0.302114 0.019493
C17   C     C_R   0.361909 0.344037 0.311399 0.005081
C18   C     C_R   0.841392 0.235559 0.294751 -0.149808
C19   C     C_R   0.863168 0.225103 0.222293 -0.156278
C20   C     C_R   0.867985 0.333719 0.185512 0.022548
C21   C     C_R   0.853634 0.451178 0.221977 -0.143203
C22   C     C_R   0.836810 0.459272 0.294188 -0.151470
C23   C     C_R   0.775983 0.380306 0.402596 0.543158
C24   C     C_R   0.829028 0.352282 0.331066 0.020092
C25   C     C_R   0.456312 0.715088 0.277784 -0.121115
C26   C     C_R   0.447296 0.744225 0.205558 -0.161065
C27   C     C_R   0.338607 0.873287 0.180699 0.037912
C28   C     C_R   0.244381 0.975881 0.228045 -0.119926
C29   C     C_R   0.252156 0.946098 0.300000 -0.150515
C30   C     C_R   0.356605 0.814652 0.324552 0.041428
C31   C     C_R   0.464687 0.272876 0.716768 -0.121841
C32   C     C_R   0.447354 0.271514 0.788673 -0.132970
C33   C     C_R   0.311169 0.333656 0.816248 0.030124
C34   C     C_R   0.344048 0.768007 0.605215 0.542025
C35   C     C_R   0.191831 0.409043 0.771927 -0.133164
C36   C     C_R   0.209683 0.413885 0.699188 -0.142760
C37   C     C_R   0.346303 0.340969 0.671399 0.034764
C38   C     C_R   0.744325 0.475656 0.731506 -0.127664
C39   C     C_R   0.755106 0.462723 0.804291 -0.136141
C40   C     C_R   0.813303 0.329502 0.835819 0.026157
C41   C     C_R   0.843707 0.211524 0.793823 -0.138949
C42   C     C_R   0.827342 0.225913 0.720227 -0.150002
C43   C     C_R   0.783581 0.357181 0.688634 0.028498
C44   C     C_R   0.195609 0.830623 0.715266 -0.006947
C45   C     C_R   0.373047 0.352167 0.597536 0.547438
C46   C     C_R   0.193730 0.838393 0.788640 -0.111153
C47   C     C_R   0.302832 0.841757 0.826041 0.018226
C48   C     C_R   0.419157 0.831718 0.789948 -0.140641
C49   C     C_R   0.424971 0.820666 0.716844 -0.153272
C50   C     C_R   0.316338 0.816417 0.678666 0.042547
C51   C     C_R   0.913725 0.314359 0.112671 0.538608
C52   C     C_R   0.329811 0.293819 0.092218 0.536092
C53   C     C_R   0.307471 0.900742 0.105923 0.539208
C54   C     C_R   0.878616 0.310612 0.905790 0.543774
C55   C     C_R   0.296004 0.291059 0.886445 0.546674
C56   C     C_R   0.756290 0.380591 0.612580 0.542878
C57   C     C_R   0.276431 0.892756 0.898358 0.547131
C58   C     C_R   0.851959 0.892281 0.104106 -0.113801
C59   C     C_R   0.792480 0.030056 0.078382 -0.102079
C60   C     C_R   0.674465 0.139762 0.111437 -0.070937
Cr1   Cr    Cr6+3 0.601770 0.606860 0.505860 1.079219
Cr2   Cr    Cr6+3 0.291380 0.601660 0.495070 1.049278
Cr3   Cr    Cr6+3 0.606880 0.291510 0.499120 1.027581
Cr4   Cr    Cr6+3 0.062440 0.063090 0.008210 0.983356
Cr5   Cr    Cr6+3 0.062880 0.375170 0.998920 1.006496
Cr6   Cr    Cr6+3 0.374700 0.061720 0.992470 1.026498
H1    H     H_    0.567707 0.154556 0.304392 0.138769
H2    H     H_    0.840361 0.940400 0.380514 0.130136
H3    H     H_    0.065571 0.487080 0.380173 0.128653
H4    H     H_    0.829841 0.155321 0.322112 0.120715
H5    H     H_    0.879872 0.130836 0.195602 0.143111
H6    H     H_    0.858817 0.535597 0.195131 0.130617
H7    H     H_    0.821160 0.554035 0.320157 0.157989
H8    H     H_    0.536004 0.611983 0.296859 0.131401
H9    H     H_    0.519519 0.664557 0.169212 0.111018
H10   H     H_    0.161111 0.076865 0.208561 0.134751
H11   H     H_    0.838013 0.756744 0.181926 0.108119
H12   H     H_    0.175146 0.023033 0.335810 0.115565
H13   H     H_    0.571681 0.221335 0.696818 0.142732
H14   H     H_    0.540485 0.214525 0.822336 0.126999
H15   H     H_    0.085573 0.456777 0.792770 0.137419
H16   H     H_    0.117959 0.471028 0.664744 0.132052
H17   H     H_    0.705349 0.579398 0.708873 0.135541
H18   H     H_    0.729106 0.555622 0.835497 0.124784
H19   H     H_    0.888663 0.107362 0.817153 0.127680
H20   H     H_    0.851558 0.135027 0.688027 0.117185
H21   H     H_    0.982522 0.939269 0.278369 0.111719
H22   H     H_    0.102559 0.848977 0.816560 0.128607
H23   H     H_    0.503466 0.837416 0.817947 0.130010
H24   H     H_    0.516281 0.812555 0.690287 0.131173
H25   H     H_    0.944666 0.807910 0.079167 0.110440
H26   H     H_    0.838318 0.051945 0.032999 0.142585
H27   H     H_    0.631083 0.246422 0.091558 0.101513
H28   H     H_    0.169168 0.718476 0.230296 0.127371
H29   H     H_    0.623946 0.945935 0.237448 0.117366
H30   H     H_    0.158338 0.519267 0.167807 0.129359
O1    O     O_R   0.748800 0.497470 0.428000 -0.482448
O2    O     O_R   0.300070 0.471040 0.567100 -0.497034
O3    O     O_R   0.491670 0.258900 0.574910 -0.516532
O4    O     O_R   0.718780 0.304180 0.577850 -0.511032
O5    O     O_3   0.500010 0.500010 0.500020 -0.265514
O6    O     O_R   0.186690 0.923650 0.086970 -0.528436
O7    O     O_R   0.957250 0.194250 0.084630 -0.522789
O8    O     O_R   0.934970 0.407490 0.085330 -0.524991
O9    O     O_R   0.203780 0.365190 0.067090 -0.510696
O10   O     O_R   0.417600 0.174890 0.067840 -0.506361
O11   O     O_R   0.375320 0.946260 0.070860 -0.491984
O12   O     O_R   0.476420 0.724060 0.429470 -0.484169
O13   O     O_R   0.160600 0.919630 0.926660 -0.533511
O14   O     O_R   0.933060 0.190520 0.936020 -0.517935
O15   O     O_R   0.908880 0.403460 0.925020 -0.521573
O16   O     O_R   0.179600 0.361450 0.918490 -0.505567
O17   O     O_R   0.391510 0.170860 0.907530 -0.523820
O18   O     O_R   0.351130 0.942530 0.922260 -0.503076
O19   O     O_3   0.166667 0.166667 0.999870 -0.241599
O20   O     O_R   0.264580 0.744340 0.416750 -0.501761
O21   O     O_R   0.309380 0.472470 0.418200 -0.493025
O22   O     O_R   0.501710 0.260430 0.414300 -0.522091
O23   O     O_R   0.728090 0.305600 0.428960 -0.512243
O24   O     O_R   0.738760 0.495930 0.588610 -0.496715
O25   O     O_R   0.467110 0.722640 0.578360 -0.499151
O26   O     O_R   0.254530 0.742800 0.577360 -0.524555
Br1   Br    Br    0.843398 0.715332 0.469382 -0.524225
C61   C     C_3   0.066978 0.837769 0.679490 -0.360826
H31   H     H_    0.976717 0.873252 0.716361 0.091824
H32   H     H_    0.029574 0.914684 0.634903 0.155586
H33   H     H_    0.092437 0.731830 0.660366 0.177125

loop_
_geom_bond_atom_site_label_1
_geom_bond_atom_site_label_2
_ccdc_geom_bond_type
C33   C55   S    
Cr4   O7    S    
C18   H4    S    
Cr6   O17   S    
C55   O16   A    
C56   O24   A    
C41   C42   A    
C19   H5    S    
C19   C20   A    
C49   H24   S    
Cr3   O5    S    
C35   H15   S    
Cr4   O6    S    
C26   C27   A    
Cr3   O4    S    
C18   C24   A    
C28   C29   A    
C39   H18   S    
C18   C19   A    
C20   C51   S    
C45   O2    A    
C23   O23   A    
C38   C39   A    
C38   H17   S    
C2    C60   A    
C47   C57   S    
C51   O7    A    
C15   C16   A    
C54   O14   A    
Cr1   O25   S    
C25   H8    S    
Cr1   O12   S    
Cr5   O15   S    
Cr2   O21   S    
Cr3   O3    S    
Cr2   O2    S    
C57   O13   A    
C29   H12   S    
C35   C36   A    
C36   H16   S    
C8    C9    A    
C6    H28   S    
C12   C17   S    
C23   C24   S    
C42   H20   S    
C1    O20   A    
C58   H25   S    
Cr6   O11   S    
Cr2   O5    S    
C60   H27   S    
C52   O10   A    
C59   C60   A    
C34   O26   A    
Cr4   O19   S    
C21   C22   A    
Cr1   O24   S    
Cr5   O19   S    
C8    H29   S    
Cr6   O10   S    
Cr5   O9    S    
C44   C46   A    
C46   H22   S    
C15   H3    S    
Cr1   O1    S    
C34   C50   S    
Cr6   O19   S    
C21   H6    S    
C45   O3    A    
C39   C40   A    
Cr3   O22   S    
C55   O17   A    
C51   O8    A    
C44   C61   S    
C31   C37   A    
Cr1   O5    S    
Cr5   O16   S    
Cr2   O20   S    
C29   C30   A    
C32   H14   S    
Cr3   O23   S    
C11   C16   S    
C53   O11   A    
Cr4   O14   S    
C47   C48   A    
C10   H30   S    
C53   O6    A    
C26   H9    S    
C9    H11   S    
C57   O18   A    
C61   H33   S    
C12   O22   A    
C4    C17   A    
C48   C49   A    
C23   O1    A    
C52   O9    A    
C34   O25   A    
C40   C54   S    
C48   H23   S    
C22   C24   A    
C58   C59   A    
C2    C5    S    
C42   C43   A    
C56   O4    A    
C37   C45   S    
C28   H10   S    
Cr2   O26   S    
C61   H32   S    
C44   C50   A    
C25   C30   A    
C46   C47   A    
C9    C58   A    
C14   Br1   S    
Cr6   O18   S    
C31   C32   A    
C2    C8    A    
C4    C5    A    
C3    C5    A    
C11   C17   A    
C4    H1    S    
C3    C52   S    
C27   C53   S    
C31   H13   S    
C6    C7    A    
C41   H19   S    
Cr5   O8    S    
C32   C33   A    
C25   C26   A    
C38   C43   A    
C3    C10   A    
Cr4   O13   S    
C1    C30   S    
C33   C35   A    
C54   O15   A    
C59   H26   S    
C10   C11   A    
C1    O12   A    
C6    C16   A    
C12   O21   A    
C43   C56   S    
C7    C13   A    
C7    H21   S    
C20   C21   A    
C36   C37   A    
C49   C50   A    
C27   C28   A    
C14   C15   A    
C40   C41   A    
C22   H7    S    
C13   C14   A    
C61   H31   S    
C13   H2    S    
