data_mof_unit_60755.cif
_audit_creation_date              2013-03-05T15:56:43-0500
_audit_creation_method            fapswitch 2.2
_symmetry_space_group_name_H-M    P1
_symmetry_Int_Tables_number       1
_space_group_crystal_system       triclinic
_cell_length_a                    18.557593
_cell_length_b                    18.681229
_cell_length_c                    18.800239
_cell_angle_alpha                 109.267575
_cell_angle_beta                  109.342602
_cell_angle_gamma                 109.018874
_cell_volume                      5065.24989766

loop_
_atom_site_label
_atom_site_type_symbol
_atom_site_description
_atom_site_fract_x
_atom_site_fract_y
_atom_site_fract_z
_atom_type_partial_charge
O1    O     O_R   0.539900 0.091920 0.948590 -0.617837
O2    O     O_R   0.643340 0.091290 0.051390 -0.622018
C1    C     C_R   0.620303 0.120105 0.999806 0.882986
O3    O     O_R   0.448270 0.091350 0.039630 -0.566695
O4    O     O_R   0.551710 0.090720 0.142430 -0.621601
C2    C     C_R   0.497174 0.118019 0.119131 0.884398
Zn1   Zn    Zn3+2 0.430930 0.000420 0.931360 1.033551
Zn2   Zn    Zn3+2 0.569070 0.999580 0.068640 1.018060
O5    O     O_R   0.356660 0.908710 0.948610 -0.616992
O6    O     O_R   0.460100 0.908080 0.051410 -0.598540
O7    O     O_R   0.448290 0.909280 0.857570 -0.627215
O8    O     O_R   0.551730 0.908650 0.960370 -0.622753
C3    C     C_R   0.379801 0.880673 0.000856 0.929011
C4    C     C_R   0.500351 0.880528 0.880872 0.844561
C5    C     C_2   0.497188 0.243548 0.323811 -0.108416
C6    C     C_2   0.517875 0.322136 0.331420 -0.273628
H1    H     H_    0.474564 0.224522 0.364421 0.186711
H2    H     H_    0.549668 0.343348 0.297269 0.169540
C7    C     C_2   0.507282 0.182866 0.260050 -0.205399
C8    C     C_2   0.482506 0.174579 0.180545 0.145788
H3    H     H_    0.536166 0.145602 0.279023 0.197943
C9    C     C_R   0.765043 0.184494 0.014025 -0.237516
H4    H     H_    0.774675 0.133728 0.024185 0.190881
C10   C     C_R   0.831279 0.248903 0.016410 0.314435
C11   C     C_R   0.817004 0.314538 0.003938 -0.138234
C12   C     C_R   0.738681 0.315664 0.989755 -0.223104
H5    H     H_    0.727936 0.365943 0.979485 0.157599
C13   C     C_R   0.673076 0.250724 0.986749 -0.138603
H6    H     H_    0.612415 0.251807 0.975829 0.172479
C14   C     C_R   0.686795 0.185810 0.999554 -0.085115
C15   C     C_R   0.501097 0.743333 0.823769 -0.178721
H7    H     H_    0.501116 0.736906 0.878998 0.148557
C16   C     C_R   0.498945 0.678655 0.759030 -0.174466
H8    H     H_    0.498371 0.622554 0.764553 0.150305
C17   C     C_R   0.499492 0.687806 0.688381 -0.013564
C18   C     C_R   0.500918 0.760198 0.681092 -0.173740
H9    H     H_    0.501108 0.766837 0.626008 0.152697
C19   C     C_R   0.500418 0.823519 0.744463 -0.167068
H10   H     H_    0.500670 0.879434 0.738697 0.154288
C20   C     C_R   0.501102 0.815025 0.815710 -0.007717
C21   C     C_R   0.315647 0.827138 0.081065 0.325835
C22   C     C_R   0.251858 0.760936 0.079169 -0.237308
H11   H     H_    0.251416 0.768423 0.138694 0.188976
C23   C     C_R   0.187664 0.685805 0.000619 -0.078298
C24   C     C_R   0.186547 0.674920 0.923137 -0.166394
H12   H     H_    0.136421 0.616599 0.862212 0.159580
C25   C     C_R   0.249261 0.740615 0.923986 -0.228678
H13   H     H_    0.248458 0.732232 0.863804 0.159827
C26   C     C_R   0.313651 0.816099 0.002419 -0.134018
O9    O     O_R   0.539910 0.450960 0.594180 -0.630221
O10   O     O_R   0.643360 0.554400 0.594170 -0.623090
C27   C     C_R   0.620360 0.502327 0.622677 0.862028
O11   O     O_R   0.448310 0.360490 0.412110 -0.598731
O12   O     O_R   0.551750 0.463920 0.412090 -0.624695
C28   C     C_R   0.504611 0.384291 0.387556 0.942265
Zn3   Zn    Zn3+2 0.430950 0.434180 0.503140 1.003372
Zn4   Zn    Zn3+2 0.569090 0.572300 0.503120 0.985876
O13   O     O_R   0.356690 0.452080 0.412090 -0.605700
O14   O     O_R   0.460130 0.555510 0.412070 -0.623242
O15   O     O_R   0.448290 0.542560 0.594160 -0.623314
O16   O     O_R   0.551730 0.645990 0.594150 -0.617093
C29   C     C_R   0.379766 0.503541 0.383201 0.873217
C30   C     C_R   0.499809 0.622452 0.622625 0.856446
O17   O     O_R   0.908290 0.449200 0.857490 -0.626396
O18   O     O_R   0.908310 0.551980 0.960300 -0.614736
C31   C     C_R   0.879261 0.500502 0.881036 0.824103
O19   O     O_R   0.908280 0.357000 0.948510 -0.593429
O20   O     O_R   0.908310 0.459790 0.051330 -0.623953
C32   C     C_R   0.880884 0.380076 0.001291 0.919769
Zn5   Zn    Zn3+2 0.999890 0.431370 0.931260 1.024897
Zn6   Zn    Zn3+2 0.999930 0.568630 0.068560 0.990908
O21   O     O_R   0.091510 0.448020 0.039520 -0.586712
O22   O     O_R   0.091540 0.550800 0.142340 -0.633881
O23   O     O_R   0.091520 0.540220 0.948490 -0.627871
O24   O     O_R   0.091540 0.643000 0.051310 -0.618120
C33   C     C_R   0.120355 0.499063 0.119152 0.911762
C34   C     C_R   0.120440 0.620004 0.999853 0.877161
C35   C     C_R   0.769342 0.574323 0.742899 -0.167328
H14   H     H_    0.785651 0.632012 0.736074 0.165779
C36   C     C_R   0.831760 0.573546 0.807210 -0.169341
H15   H     H_    0.896456 0.630105 0.849124 0.147669
C37   C     C_R   0.811308 0.499490 0.816350 -0.085110
C38   C     C_R   0.727723 0.425358 0.762617 -0.029662
C39   C     C_R   0.665249 0.427314 0.698484 -0.143656
H16   H     H_    0.600334 0.371220 0.655890 0.196614
C40   C     C_R   0.686218 0.501291 0.688705 -0.075041
C41   C     C_R   0.323466 0.501397 0.244818 -0.139959
H17   H     H_    0.380744 0.502723 0.240739 0.158704
C42   C     C_R   0.258382 0.497808 0.178445 -0.172870
H18   H     H_    0.265797 0.497602 0.123588 0.149946
C43   C     C_R   0.185372 0.497355 0.184765 0.002564
C44   C     C_R   0.175727 0.498230 0.255646 -0.105521
H19   H     H_    0.118809 0.497585 0.260156 0.157453
C45   C     C_R   0.239383 0.499045 0.320586 -0.179740
H20   H     H_    0.231843 0.499273 0.375400 0.148426
C46   C     C_R   0.313480 0.501744 0.315435 -0.020502
N1    N     N_R   0.378901 0.905786 0.161830 0.209043
O25   O     O_R   0.406079 0.903124 0.233742 -0.380915
O26   O     O_R   0.398891 0.980827 0.165436 -0.419681
C47   C     C_2   0.704565 0.347354 0.774112 0.406528
H21   H     H_    0.750945 0.346838 0.827015 0.060537
O27   O     O_2   0.632783 0.282468 0.724649 -0.553166
N2    N     N_R   0.429866 0.211086 0.149086 0.215111
O28   O     O_R   0.445268 0.247047 0.103298 -0.387479
O29   O     O_R   0.360065 0.198427 0.156494 -0.331527
N3    N     N_R   0.912530 0.248128 0.033900 0.212064
O30   O     O_R   0.986706 0.320133 0.084780 -0.411112
O31   O     O_R   0.913255 0.174691 0.009023 -0.362812

loop_
_geom_bond_atom_site_label_1
_geom_bond_atom_site_label_2
_geom_bond_distance
_ccdc_geom_bond_type
O13   C29   1.277863 A    
C19   C20   1.396362 A    
C41   H17   1.083709 S    
C29   C46   1.429725 S    
C21   C22   1.385955 A    
C7    C8    1.347295 D    
O21   C33   1.277271 A    
N1    O25   1.301412 A    
C25   C26   1.397480 A    
C8    N2    1.444586 S    
C24   H12   1.083672 S    
C5    C7    1.465417 S    
C12   H5    1.084225 S    
O15   C30   1.277462 A    
C23   C34   1.429851 S    
C7    H3    1.086074 S    
C39   C40   1.399892 A    
O4    C2    1.290884 A    
Zn2   O6    2.015903 S    
O7    C4    1.275524 A    
C35   C36   1.377890 A    
Zn4   O14   2.014101 S    
N3    O30   1.300386 A    
C5    C6    1.334510 D    
C15   C20   1.396608 A    
Zn1   O5    2.015890 S    
O16   C30   1.276410 A    
O5    C3    1.276801 A    
C44   H19   1.083855 S    
C25   H13   1.084110 S    
O20   C32   1.275117 A    
O23   C34   1.275728 A    
Zn5   O23   2.019435 S    
C18   H9    1.083857 S    
O9    C27   1.278247 A    
C15   C16   1.381542 A    
O10   Zn4   2.014168 S    
O17   Zn5   2.009026 S    
C42   C43   1.396332 A    
C35   C40   1.395996 A    
O11   C28   1.286306 A    
C22   C23   1.395306 A    
O3    Zn1   2.015008 S    
C21   C26   1.409800 A    
N1    O26   1.299663 A    
C24   C25   1.380123 A    
O10   C27   1.280899 A    
C10   C11   1.410275 A    
C36   C37   1.394773 A    
C43   C44   1.397704 A    
Zn6   O22   2.009239 S    
C35   H14   1.083468 S    
C11   C12   1.396808 A    
O18   Zn6   2.018721 S    
O9    Zn3   2.014097 S    
Zn3   O15   2.013736 S    
O1    C1    1.277636 A    
C17   C18   1.396345 A    
O17   C31   1.272458 A    
C1    C14   1.431716 S    
Zn1   O7    2.005473 S    
C31   C37   1.422296 S    
C38   C39   1.389213 A    
Zn2   O8    2.015007 S    
C41   C46   1.398218 A    
C47   O27   1.221333 D    
C16   H8    1.083760 S    
N2    O29   1.301865 A    
C39   H16   1.083968 S    
C45   C46   1.396040 A    
O24   C34   1.275786 A    
C3    C26   1.430102 S    
O3    C2    1.273225 A    
O8    C4    1.276800 A    
O18   C31   1.272894 A    
C38   C47   1.488643 S    
C41   C42   1.383478 A    
O22   C33   1.274099 A    
C21   N1    1.437026 S    
C11   C32   1.428307 S    
C22   H11   1.084204 S    
C23   C24   1.394802 A    
O11   Zn3   2.006780 S    
C5    H1    1.086117 S    
O12   C28   1.273820 A    
C13   H6    1.083659 S    
O14   C29   1.278138 A    
C9    C14   1.396137 A    
O1    Zn1   2.015906 S    
C15   H7    1.083767 S    
O2    Zn2   2.015889 S    
C36   H15   1.084350 S    
O6    C3    1.276490 A    
O4    Zn2   2.005473 S    
C17   C30   1.425587 S    
Zn4   O16   2.006780 S    
C2    C8    1.454004 S    
C12   C13   1.379757 A    
O19   Zn5   2.012156 S    
C18   C19   1.379544 A    
O2    C1    1.277848 A    
C6    C28   1.439531 S    
C13   C14   1.395210 A    
Zn6   O24   2.012154 S    
C44   C45   1.380909 A    
C19   H10   1.083871 S    
N3    O31   1.301451 A    
O20   Zn6   2.019224 S    
C27   C40   1.435716 S    
C47   H21   1.083863 S    
C16   C17   1.396846 A    
Zn3   O13   2.014085 S    
C9    C10   1.387315 A    
C45   H20   1.083785 S    
C33   C43   1.429541 S    
C4    C20   1.425297 S    
C10   N3    1.439019 S    
C6    H2    1.088040 S    
C37   C38   1.408209 A    
N2    O28   1.301339 A    
C9    H4    1.084079 S    
Zn5   O21   2.018721 S    
O19   C32   1.274244 A    
C42   H18   1.083671 S    
O12   Zn4   2.013825 S    
