data_mof_unit_59610.cif
_audit_creation_date              2012-12-10T17:25:36-0500
_audit_creation_method            fapswitch 2.2
_symmetry_space_group_name_H-M    P1
_symmetry_Int_Tables_number       1
_space_group_crystal_system       triclinic
_cell_length_a                    10.283756
_cell_length_b                    11.10276
_cell_length_c                    23.254631
_cell_angle_alpha                 88.52875
_cell_angle_beta                  81.297882
_cell_angle_gamma                 93.980066
_cell_volume                      2616.51104311

loop_
_atom_site_label
_atom_site_type_symbol
_atom_type_description
_atom_site_fract_x
_atom_site_fract_y
_atom_site_fract_z
_atom_type_partial_charge
C1    C     C_R   0.554681 0.732574 0.493911 0.799679
C2    C     C_R   0.510674 0.412487 0.291131 0.366457
C3    C     C_R   0.559744 0.587540 0.758658 -0.231234
C4    C     C_R   0.482617 0.425679 0.234373 -0.235179
C5    C     C_R   0.465465 0.509688 0.793766 0.165550
C6    C     C_R   0.440533 0.534482 0.213638 0.165916
C7    C     C_2   0.581615 0.866365 0.488940 0.141005
C8    C     C_2   0.406086 0.141246 0.514855 0.181728
C9    C     C_2   0.477743 0.937608 0.497170 0.329801
C10   C     C_2   0.498988 0.062392 0.516653 0.369990
C11   C     C_2   0.922659 0.493928 0.510421 0.558099
C12   C     C_R   0.444308 0.269613 0.507661 0.837637
C13   C     C_2   0.073328 0.505816 0.490720 0.497035
C14   C     C_R   0.499445 0.499255 0.610337 0.973247
C15   C     C_R   0.499462 0.498729 0.389544 0.996763
C16   C     C_R   0.353580 0.443200 0.132295 0.543257
C17   C     C_R   0.437190 0.627625 0.880535 0.542799
C18   C     C_R   0.446563 0.645643 0.120204 0.551440
C19   C     C_R   0.435298 0.413332 0.890009 0.538056
C20   C     C_R   0.427135 0.647284 0.061753 -0.173806
C21   C     C_R   0.400841 0.417906 0.950352 -0.184831
C22   C     C_R   0.402756 0.536459 0.036436 -0.140462
C23   C     C_R   0.385358 0.427090 0.768113 -0.209475
C24   C     C_R   0.412890 0.530797 0.975809 -0.132698
C25   C     C_R   0.370295 0.431189 0.071911 -0.187036
C26   C     C_R   0.436434 0.637665 0.940607 -0.183071
C27   C     C_R   0.438925 0.755302 0.027431 0.423755
C28   C     C_R   0.359928 0.312954 0.985964 0.430322
C29   C     C_R   0.455093 0.750466 0.966598 0.404999
C30   C     C_R   0.357033 0.317873 0.046210 0.417002
C31   C     C_3   0.301845 0.878736 0.081451 0.135367
C32   C     C_3   0.208062 0.908353 0.038511 -0.341089
C33   C     C_3   0.070011 0.925306 0.070539 -0.956378
C34   C     C_R   0.436058 0.633527 0.249835 -0.249556
C35   C     C_3   0.197509 0.215950 0.941876 0.131700
C36   C     C_3   0.082051 0.240348 0.989610 -0.410172
C37   C     C_3   0.955798 0.255050 0.963896 -0.964127
C38   C     C_3   0.174639 0.643725 0.607386 0.269770
C39   C     C_3   0.104553 0.717321 0.655290 -0.997752
C40   C     C_3   0.836495 0.320997 0.403517 0.290605
C41   C     C_3   0.936350 0.247377 0.367138 -0.871802
C42   C     C_3   0.618741 0.861399 0.904888 0.184067
C43   C     C_3   0.713591 0.922502 0.941746 -0.395237
C44   C     C_3   0.856898 0.915925 0.913568 -0.978777
C45   C     C_R   0.398861 0.419972 0.707638 0.396623
C46   C     C_3   0.464001 0.187499 0.097922 0.139465
C47   C     C_3   0.566238 0.145638 0.048925 -0.365236
C48   C     C_3   0.680160 0.092710 0.073863 -0.930176
C49   C     C_3   0.192455 0.319571 0.704273 0.086845
C50   C     C_3   0.158710 0.198064 0.737279 -0.869007
C51   C     C_3   0.599794 0.800473 0.314169 0.060286
C52   C     C_3   0.725868 0.751074 0.329076 -0.851773
C53   C     C_3   0.769505 0.706203 0.676054 0.147106
C54   C     C_3   0.776673 0.832419 0.700177 -0.928223
C55   C     C_3   0.654048 0.263413 0.282913 0.112240
C56   C     C_R   0.477076 0.624630 0.304105 0.387989
C57   C     C_3   0.668577 0.132678 0.299959 -0.872660
C58   C     C_3   0.609525 0.046685 0.594918 0.060752
C59   C     C_3   0.520293 0.112166 0.641332 -0.396864
C60   C     C_3   0.504375 0.047358 0.700941 -0.852999
C61   C     C_3   0.321156 0.878500 0.438401 0.150356
C62   C     C_3   0.346889 0.992700 0.397529 -0.367812
C63   C     C_3   0.300868 0.971319 0.338980 -0.944909
C64   C     C_3   0.194745 0.129170 0.566410 0.143852
C65   C     C_3   0.155207 0.013442 0.602798 -0.874486
C66   C     C_3   0.810276 0.862949 0.491409 0.135142
C67   C     C_R   0.494388 0.498334 0.672974 -0.275464
C68   C     C_3   0.931161 0.950044 0.489951 -0.775936
C69   C     C_3   0.148398 0.563141 0.395409 0.129481
C70   C     C_3   0.033277 0.586974 0.363115 -0.433344
C71   C     C_3   0.066998 0.697637 0.321915 -0.951331
C72   C     C_3   0.910749 0.441929 0.607592 0.110679
C73   C     C_3   0.806007 0.339140 0.627350 -0.323778
C74   C     C_3   0.855305 0.250004 0.668630 -1.040882
C75   C     C_R   0.499624 0.511614 0.327073 -0.238488
C76   C     C_R   0.572692 0.584955 0.697749 0.402437
H1    H     H_    0.311847 0.369188 0.795782 0.165212
H2    H     H_    0.003694 0.945289 0.038606 0.265515
H3    H     H_    0.885838 0.297613 0.706389 0.269382
H4    H     H_    0.073046 0.001554 0.100435 0.281882
H5    H     H_    0.172211 0.129223 0.921945 0.173003
H6    H     H_    0.207322 0.286353 0.906362 0.138364
H7    H     H_    0.065384 0.164838 0.022598 0.251502
H8    H     H_    0.104663 0.324892 0.011821 0.222181
H9    H     H_    0.970289 0.332360 0.931726 0.267817
H10   H     H_    0.874733 0.273240 0.999121 0.278438
H11   H     H_    0.926899 0.171901 0.942118 0.273733
H12   H     H_    0.272059 0.692347 0.592648 0.219212
H13   H     H_    0.400947 0.718016 0.236774 0.187530
H14   H     H_    0.179670 0.552988 0.627816 0.143285
H15   H     H_    0.034646 0.657880 0.686374 0.222159
H16   H     H_    0.177548 0.761629 0.680152 0.243206
H17   H     H_    0.050213 0.787329 0.636875 0.283907
H18   H     H_    0.827524 0.405729 0.378581 0.110462
H19   H     H_    0.739456 0.268577 0.411027 0.189761
H20   H     H_    0.038078 0.288189 0.366975 0.298235
H21   H     H_    0.929316 0.153657 0.385463 0.261977
H22   H     H_    0.918452 0.244520 0.321453 0.205536
H23   H     H_    0.624885 0.915519 0.863570 0.181718
H24   H     H_    0.618875 0.652809 0.779176 0.166630
H25   H     H_    0.652212 0.770995 0.892316 0.106121
H26   H     H_    0.692330 0.018751 0.946260 0.244629
H27   H     H_    0.699624 0.877398 0.985671 0.249217
H28   H     H_    0.879987 0.820380 0.907518 0.273259
H29   H     H_    0.923654 0.957183 0.942075 0.268028
H30   H     H_    0.875323 0.965506 0.870669 0.270278
H31   H     H_    0.442439 0.116186 0.133071 0.176076
H32   H     H_    0.508999 0.266844 0.117686 0.104328
H33   H     H_    0.519100 0.077400 0.023201 0.303246
H34   H     H_    0.606140 0.223802 0.019132 0.197994
H35   H     H_    0.489253 0.348732 0.207123 0.162984
H36   H     H_    0.724812 0.159206 0.101466 0.252154
H37   H     H_    0.757892 0.070203 0.038172 0.269072
H38   H     H_    0.644436 0.009008 0.100401 0.308194
H39   H     H_    0.136318 0.320884 0.667226 0.149801
H40   H     H_    0.157194 0.394796 0.731991 0.120146
H41   H     H_    0.205001 0.195038 0.777275 0.251838
H42   H     H_    0.050281 0.182434 0.749904 0.222737
H43   H     H_    0.195026 0.124167 0.709462 0.270205
H44   H     H_    0.590511 0.888346 0.335120 0.184129
H45   H     H_    0.607827 0.818918 0.266392 0.172425
H46   H     H_    0.305870 0.953894 0.111686 0.187602
H47   H     H_    0.747669 0.668194 0.304812 0.240436
H48   H     H_    0.809293 0.820384 0.316946 0.225860
H49   H     H_    0.715526 0.729665 0.376421 0.272572
H50   H     H_    0.840219 0.707342 0.635087 0.221804
H51   H     H_    0.802392 0.639664 0.706520 0.106821
H52   H     H_    0.696906 0.840545 0.737406 0.269626
H53   H     H_    0.873200 0.851865 0.715153 0.230391
H54   H     H_    0.766916 0.900217 0.665618 0.248468
H55   H     H_    0.738183 0.321836 0.293759 0.129431
H56   H     H_    0.658520 0.267363 0.234841 0.129274
H57   H     H_    0.260408 0.797864 0.109251 0.118161
H58   H     H_    0.587165 0.074876 0.286266 0.252996
H59   H     H_    0.763816 0.103404 0.277675 0.219190
H60   H     H_    0.665240 0.121584 0.347707 0.259580
H61   H     H_    0.711395 0.055081 0.605315 0.172543
H62   H     H_    0.579264 0.948161 0.597248 0.144303
H63   H     H_    0.561294 0.206281 0.644317 0.242839
H64   H     H_    0.420914 0.116415 0.629310 0.226686
H65   H     H_    0.455979 0.955176 0.699181 0.269135
H66   H     H_    0.441871 0.098778 0.733331 0.293646
H67   H     H_    0.601292 0.040264 0.715549 0.255327
H68   H     H_    0.247107 0.992121 0.012873 0.291656
H69   H     H_    0.215228 0.848025 0.441713 0.157639
H70   H     H_    0.376112 0.804510 0.419097 0.194836
H71   H     H_    0.291743 0.067822 0.416227 0.289384
H72   H     H_    0.453430 0.022114 0.390188 0.205175
H73   H     H_    0.334443 0.050479 0.308934 0.290925
H74   H     H_    0.191555 0.961286 0.344912 0.259518
H75   H     H_    0.340585 0.889724 0.318759 0.288620
H76   H     H_    0.104093 0.166541 0.555062 0.173427
H77   H     H_    0.240274 0.197050 0.593168 0.145196
H78   H     H_    0.241552 0.980031 0.619944 0.257306
H79   H     H_    0.200910 0.833766 0.007954 0.215825
H80   H     H_    0.076654 0.028740 0.639587 0.206631
H81   H     H_    0.117475 0.943732 0.575303 0.297572
H82   H     H_    0.839488 0.792064 0.460139 0.161884
H83   H     H_    0.782668 0.824159 0.536668 0.163437
H84   H     H_    0.910881 0.021655 0.521881 0.267435
H85   H     H_    0.013666 0.899077 0.500598 0.216211
H86   H     H_    0.960715 0.991817 0.445685 0.253964
H87   H     H_    0.228396 0.538637 0.361297 0.192470
H88   H     H_    0.184850 0.647500 0.414606 0.129900
H89   H     H_    0.013896 0.507976 0.336610 0.237668
H90   H     H_    0.029056 0.841612 0.096025 0.268721
H91   H     H_    0.943620 0.602580 0.394166 0.208562
H92   H     H_    0.062800 0.780764 0.347345 0.262978
H93   H     H_    0.994937 0.700025 0.291036 0.270982
H94   H     H_    0.166692 0.694897 0.296071 0.270636
H95   H     H_    0.926473 0.493485 0.646387 0.144840
H96   H     H_    0.005732 0.401914 0.592289 0.092502
H97   H     H_    0.717300 0.376688 0.651091 0.226248
H98   H     H_    0.779753 0.291132 0.588892 0.264609
H99   H     H_    0.939548 0.204476 0.645488 0.261732
H100  H     H_    0.775701 0.180262 0.685339 0.283614
N1    N     N_R   0.408898 0.543527 0.155161 -0.323817
N2    N     N_R   0.446983 0.517177 0.855977 -0.328424
N3    N     N_2   0.842710 0.448880 0.476480 -0.015767
N4    N     N_2   0.157290 0.551120 0.523520 -0.026134
O1    O     O_R   0.431060 0.692470 0.504730 -0.606120
O2    O     O_2   0.425919 0.726409 0.847132 -0.546031
O3    O     O_2   0.508963 0.743018 0.140224 -0.574012
O4    O     O_2   0.459684 0.306458 0.865712 -0.538813
O5    O     O_3   0.432058 0.866904 0.052494 -0.612352
O6    O     O_3   0.318483 0.204693 0.963602 -0.593573
O7    O     O_3   0.103996 0.633801 0.560410 -0.599893
O8    O     O_3   0.880485 0.341367 0.456913 -0.547297
O9    O     O_3   0.486357 0.857598 0.933770 -0.578934
O10   O     O_3   0.342862 0.210029 0.078675 -0.599951
O11   O     O_3   0.328319 0.331998 0.680871 -0.636479
O12   O     O_R   0.568940 0.307530 0.495270 -0.588943
O13   O     O_3   0.486561 0.724884 0.337216 -0.675278
O14   O     O_3   0.643038 0.676545 0.661580 -0.613928
O15   O     O_3   0.534521 0.300515 0.313239 -0.607886
O16   O     O_3   0.613793 0.099207 0.538267 -0.607787
O17   O     O_3   0.347435 0.894669 0.496125 -0.611483
O18   O     O_3   0.275056 0.102885 0.513983 -0.603850
O19   O     O_3   0.707677 0.925225 0.473350 -0.605504
O20   O     O_3   0.120132 0.463894 0.436386 -0.629489
O21   O     O_3   0.869495 0.522565 0.566355 -0.624469
O22   O     O_R   0.651120 0.659650 0.489640 -0.638682
O23   O     O_R   0.348880 0.340350 0.510360 -0.602003
O24   O     O_R   0.389950 0.516450 0.591390 -0.671792
O25   O     O_R   0.610050 0.483550 0.408610 -0.660051
O26   O     O_R   0.610020 0.483630 0.576300 -0.567130
O27   O     O_R   0.389980 0.516370 0.423700 -0.603700
O28   O     O_2   0.284639 0.355172 0.167719 -0.539135
Zn1   Zn    Zn3+2 0.353060 0.521920 0.510080 0.985863
Zn2   Zn    Zn3+2 0.646940 0.478080 0.489920 0.993291

loop_
_geom_bond_atom_site_label_1
_geom_bond_atom_site_label_2
_ccdc_geom_bond_type
C17   N2    A    
C66   C68   S    
C34   C56   A    
C23   C45   A    
C13   O20   S    
C64   O18   S    
C27   C29   A    
C50   H41   S    
C52   H48   S    
C73   C74   S    
C55   O15   S    
C33   H90   S    
C69   H88   S    
C31   H57   S    
C44   H28   S    
C68   H85   S    
N3    Zn2   S    
C62   C63   S    
C64   H76   S    
C17   C26   A    
O25   Zn2   S    
C37   H9    S    
C36   C37   S    
C19   C21   A    
C46   O10   S    
C65   H80   S    
C10   O16   S    
C60   H67   S    
C27   O5    S    
C38   C39   S    
C52   H47   S    
C33   H2    S    
C41   H20   S    
C36   H7    S    
C38   O7    S    
C25   C30   A    
O1    Zn1   S    
C2    O15   S    
C11   O21   S    
C12   O23   A    
C58   O16   S    
C73   H98   S    
C61   H69   S    
C39   H17   S    
C41   H21   S    
C53   H51   S    
C60   H66   S    
C8    O18   S    
C3    H24   S    
C45   O11   S    
C63   H73   S    
C35   C36   S    
C18   N1    A    
C22   C25   A    
C46   H32   S    
O24   Zn1   S    
C45   C67   A    
C69   O20   S    
C14   C67   S    
C71   H93   S    
C57   H60   S    
C70   C71   S    
C40   H18   S    
C68   H86   S    
C9    C10   S    
C18   C20   A    
C66   O19   S    
C58   H62   S    
C59   C60   S    
C56   C75   A    
C1    C7    S    
C73   H97   S    
C53   O14   S    
C61   C62   S    
O22   Zn2   S    
C12   O12   A    
C1    O22   A    
C17   O2    S    
C39   H15   S    
C66   H83   S    
C35   H6    S    
C9    O17   S    
C35   H5    S    
C54   H54   S    
C50   H43   S    
C72   H95   S    
C37   H10   S    
C47   C48   S    
C4    C6    A    
C51   O13   S    
C70   H89   S    
C61   O17   S    
C1    O1    A    
N3    O8    S    
C3    C5    A    
C58   C59   S    
C47   H33   S    
C54   H52   S    
C64   H77   S    
C51   C52   S    
C38   H12   S    
C48   H37   S    
C70   H91   S    
C2    C4    A    
C61   H70   S    
C63   H74   S    
C74   H100  S    
C65   H78   S    
N4    O7    S    
C28   O6    S    
C60   H65   S    
C32   H79   S    
O26   Zn2   S    
C31   C32   S    
C5    C23   A    
C59   H63   S    
C8    C12   S    
C63   H75   S    
C46   H31   S    
C31   O5    S    
C43   H26   S    
C51   H44   S    
C71   H94   S    
C23   H1    S    
C18   O3    S    
C3    C76   A    
C19   N2    A    
O12   Zn2   S    
C15   O25   A    
C76   O14   S    
C40   O8    S    
C58   H61   S    
C65   H81   S    
C40   C41   S    
C48   H36   S    
C4    H35   S    
C20   C22   A    
C49   C50   S    
C55   H55   S    
C71   H92   S    
C55   C57   S    
C43   C44   S    
C51   H45   S    
C22   C24   A    
C57   H58   S    
C11   N3    D    
C42   C43   S    
C40   H19   S    
C47   H34   S    
C42   H25   S    
C72   H96   S    
C39   H16   S    
C66   H82   S    
C16   N1    A    
C44   H29   S    
C48   H38   S    
C15   C75   S    
C16   C25   A    
C7    C9    D    
C54   H53   S    
C46   C47   S    
C49   H39   S    
C50   H42   S    
C21   C28   A    
C37   H11   S    
C69   H87   S    
C31   H46   S    
C24   C26   A    
C72   C73   S    
C16   O28   S    
C19   O4    S    
C52   H49   S    
C33   H4    S    
C53   C54   S    
C49   O11   S    
C20   C27   A    
C44   H30   S    
C13   N4    D    
C38   H14   S    
C74   H3    S    
C64   C65   S    
C14   O26   A    
C34   H13   S    
C57   H59   S    
C74   H99   S    
C6    N1    S    
C42   H23   S    
C32   C33   S    
C11   C13   S    
C42   O9    S    
C59   H64   S    
C36   H8    S    
C35   O6    S    
C62   H71   S    
C28   C30   A    
C29   O9    S    
C30   O10   S    
C7    O19   S    
C69   C70   S    
C43   H27   S    
C5    N2    S    
C32   H68   S    
C53   H50   S    
C56   O13   S    
C6    C34   A    
C49   H40   S    
C26   C29   A    
C8    C10   D    
C55   H56   S    
C21   C24   A    
N4    Zn1   S    
O27   Zn1   S    
C41   H22   S    
O23   Zn1   S    
C62   H72   S    
C67   C76   A    
C68   H84   S    
C15   O27   A    
C2    C75   A    
C14   O24   A    
C72   O21   S    
