data_mof_unit_9732.cif
_audit_creation_date              2012-12-10T20:38:22-0500
_audit_creation_method            fapswitch 2.2
_symmetry_space_group_name_H-M    P1
_symmetry_Int_Tables_number       1
_space_group_crystal_system       triclinic
_cell_length_a                    9.866112
_cell_length_b                    10.606546
_cell_length_c                    16.745435
_cell_angle_alpha                 90.683668
_cell_angle_beta                  85.761068
_cell_angle_gamma                 89.876707
_cell_volume                      1747.40622651

loop_
_atom_site_label
_atom_site_type_symbol
_atom_type_description
_atom_site_fract_x
_atom_site_fract_y
_atom_site_fract_z
_atom_type_partial_charge
C1    C     C_R   0.500911 0.739478 0.491534 0.870977
C2    C     C_R   0.345017 0.501347 0.784239 -0.202628
C3    C     C_R   0.412515 0.662970 0.162663 -0.243530
C4    C     C_R   0.409764 0.611275 0.237901 -0.294640
C5    C     C_R   0.648391 0.551744 0.215432 0.400535
C6    C     C_R   0.648379 0.597523 0.136713 0.449159
C7    C     C_R   0.529690 0.653088 0.111129 0.026788
C8    C     C_2   0.428181 0.609545 0.988403 -0.270808
C9    C     C_2   0.520150 0.675813 0.026228 -0.158018
C10   C     C_R   0.525568 0.552110 0.264327 -0.210546
C11   C     C_R   0.379912 0.935587 0.468460 0.042077
C12   C     C_R   0.481632 0.500182 0.653464 0.868160
C13   C     C_R   0.502378 0.869200 0.467794 -0.301245
C14   C     C_R   0.625230 0.934708 0.447342 0.422477
C15   C     C_R   0.624714 0.065233 0.455865 -0.211310
C16   C     C_R   0.502228 0.128064 0.478145 -0.217108
C17   C     C_R   0.380304 0.063922 0.474192 0.118131
C18   C     C_3   0.252029 0.069499 0.527309 -0.418911
C19   C     C_3   0.249557 0.926819 0.520078 0.237841
C20   C     C_R   0.922863 0.587087 0.544820 0.040692
C21   C     C_R   0.934117 0.421530 0.450721 -0.244197
C22   C     C_R   0.079322 0.422800 0.449202 0.534256
C23   C     C_R   0.500575 0.259462 0.496519 0.910017
C24   C     C_R   0.065620 0.584715 0.546196 -0.022561
C25   C     C_3   0.062619 0.595594 0.635121 0.319617
C26   C     C_3   0.908060 0.599764 0.634712 0.265291
C27   C     C_R   0.518069 0.507834 0.346933 0.920856
C28   C     C_R   0.470502 0.515252 0.740360 -0.039374
C29   C     C_R   0.583891 0.554318 0.779333 -0.195796
C30   C     C_R   0.571210 0.586411 0.859719 -0.159368
C31   C     C_R   0.443646 0.581133 0.902574 0.202589
C32   C     C_R   0.331491 0.534822 0.864994 -0.197878
H1    H     H_    0.682182 0.562796 0.747685 0.192551
H2    H     H_    0.719968 0.115868 0.447967 0.193192
H3    H     H_    0.268695 0.103869 0.588813 0.135103
H4    H     H_    0.168454 0.117400 0.498342 0.258715
H5    H     H_    0.257670 0.877292 0.577638 0.166523
H6    H     H_    0.883072 0.354868 0.413990 0.179625
H7    H     H_    0.103368 0.509194 0.661908 0.033015
H8    H     H_    0.316261 0.619321 0.275774 0.190488
H9    H     H_    0.861804 0.513895 0.662340 0.048899
H10   H     H_    0.603501 0.724176 0.993910 0.177340
H11   H     H_    0.233431 0.525309 0.897989 0.125658
H12   H     H_    0.320790 0.705220 0.142934 0.175062
H13   H     H_    0.257214 0.466652 0.756019 0.142768
H14   H     H_    0.346637 0.561371 0.023022 0.162578
H15   H     H_    0.662381 0.613134 0.887613 0.141591
N1    N     N_R   0.857140 0.500860 0.500530 -0.137055
N2    N     N_R   0.142780 0.500820 0.500530 -0.167181
O1    O     O_R   0.385310 0.683210 0.499990 -0.613792
O2    O     O_R   0.614650 0.683240 0.500000 -0.606711
O3    O     O_R   0.371780 0.500000 0.615800 -0.607548
O4    O     O_R   0.601120 0.500040 0.615800 -0.612777
O5    O     O_R   0.385350 0.316760 0.500000 -0.570736
O6    O     O_R   0.614690 0.316790 0.500010 -0.630849
O7    O     O_R   0.398880 0.499960 0.384200 -0.602558
O8    O     O_R   0.628220 0.500000 0.384200 -0.578244
Zn1   Zn    Zn3+2 0.346870 0.499980 0.499990 0.988553
Zn2   Zn    Zn3+2 0.653130 0.500020 0.500010 0.964878
O9    O     O_3   0.763450 0.587546 0.084466 -0.622773
C33   C     C_3   0.770029 0.464556 0.051387 -0.324867
H16   H     H_    0.858289 0.459021 0.006425 0.182064
H17   H     H_    0.677491 0.441560 0.019917 0.163909
H18   H     H_    0.785895 0.393071 0.097862 0.200299
O10   O     O_3   0.746613 0.876050 0.423756 -0.758371
H19   H     H_    0.725670 0.797599 0.394576 0.338785
O11   O     O_3   0.142109 0.885877 0.476081 -0.728994
H20   H     H_    0.158984 0.795281 0.464025 0.355343
O12   O     O_3   0.157371 0.336252 0.403472 -0.581031
C34   C     C_3   0.136825 0.350891 0.321649 -0.276733
H21   H     H_    0.037294 0.311588 0.306982 0.166589
H22   H     H_    0.146251 0.451066 0.303068 0.138026
H23   H     H_    0.216957 0.296972 0.285895 0.195244
O13   O     O_3   0.123905 0.709038 0.658502 -0.594176
C35   C     C_3   0.113877 0.723036 0.742806 -0.234424
H24   H     H_    0.215092 0.749632 0.762295 0.176607
H25   H     H_    0.079133 0.637374 0.776348 0.127516
H26   H     H_    0.042533 0.801333 0.760150 0.195584
O14   O     O_3   0.846357 0.711546 0.669439 -0.616374
C36   C     C_3   0.851698 0.817088 0.618605 -0.151196
H27   H     H_    0.955954 0.836655 0.592656 0.225913
H28   H     H_    0.816929 0.901319 0.654352 0.147887
H29   H     H_    0.781955 0.804693 0.570580 0.216576
O15   O     O_3   0.764280 0.498178 0.242685 -0.608293
C37   C     C_3   0.861452 0.593304 0.253525 -0.225991
H30   H     H_    0.931155 0.560383 0.297835 0.162862
H31   H     H_    0.815471 0.683338 0.277562 0.142049
H32   H     H_    0.923324 0.610489 0.196643 0.197338

loop_
_geom_bond_atom_site_label_1
_geom_bond_atom_site_label_2
_ccdc_geom_bond_type
C10   C27   S    
O6    Zn2   S    
O4    Zn2   S    
C37   H30   S    
C11   C19   S    
C9    H10   S    
C12   C28   S    
C28   C29   A    
C25   O13   S    
C3    C7    A    
O5    Zn1   S    
C5    C6    A    
O8    Zn2   S    
C15   C16   A    
C29   H1    S    
C2    C32   A    
C18   C19   S    
C33   H17   S    
C20   C24   A    
C19   H5    S    
C14   O10   S    
C21   H6    S    
C4    H8    S    
C16   C17   A    
C19   O11   S    
C34   H21   S    
C1    O1    A    
C15   H2    S    
C12   O4    A    
C21   N1    A    
C21   C22   A    
C33   H16   S    
C36   H29   S    
C12   O3    A    
C37   H31   S    
C2    H13   S    
C3    H12   S    
O13   C35   S    
O11   H20   S    
O1    Zn1   S    
C6    O9    S    
C30   H15   S    
O15   C37   S    
C36   H28   S    
C27   O8    A    
C5    O15   S    
C27   O7    A    
C8    C9    D    
C25   C26   S    
N2    Zn1   S    
O9    C33   S    
C33   H18   S    
C35   H24   S    
C29   C30   A    
C35   H25   S    
C31   C32   A    
C34   H23   S    
C17   C18   S    
N1    Zn2   S    
C24   C25   S    
C1    O2    A    
C20   N1    A    
O3    Zn1   S    
C22   N2    A    
C16   C23   S    
C1    C13   S    
C4    C10   A    
C3    C4    A    
C23   O5    A    
C18   H3    S    
C37   H32   S    
C24   N2    A    
C7    C9    S    
C11   C17   A    
C22   O12   S    
C8    C31   S    
C36   H27   S    
C2    C28   A    
C23   O6    A    
C6    C7    A    
C26   O14   S    
C5    C10   A    
C25   H7    S    
C11   C13   A    
C30   C31   A    
C20   C26   S    
C32   H11   S    
O7    Zn1   S    
O12   C34   S    
C35   H26   S    
C8    H14   S    
O14   C36   S    
O2    Zn2   S    
O10   H19   S    
C14   C15   A    
C34   H22   S    
C13   C14   A    
C18   H4    S    
C26   H9    S    
