data_mof_unit_67879.cif
_audit_creation_date              2013-03-05T15:41:51-0500
_audit_creation_method            fapswitch 2.2
_symmetry_space_group_name_H-M    P1
_symmetry_Int_Tables_number       1
_space_group_crystal_system       triclinic
_cell_length_a                    7.948365
_cell_length_b                    8.830091
_cell_length_c                    10.661116
_cell_angle_alpha                 93.973181
_cell_angle_beta                  86.503717
_cell_angle_gamma                 92.363282
_cell_volume                      744.545659798

loop_
_atom_site_label
_atom_site_type_symbol
_atom_site_description
_atom_site_fract_x
_atom_site_fract_y
_atom_site_fract_z
_atom_type_partial_charge
O1    O     O_R   0.389250 0.738570 0.508410 -0.601001
O2    O     O_R   0.610750 0.261430 0.491590 -0.576264
O3    O     O_R   0.678390 0.711620 0.486450 -0.604725
O4    O     O_R   0.321610 0.288380 0.513550 -0.597697
C1    C     C_R   0.543294 0.792831 0.496589 0.869034
C2    C     C_R   0.456577 0.206972 0.502019 0.859568
O5    O     O_R   0.355460 0.513510 0.697030 -0.606846
O6    O     O_R   0.644540 0.486490 0.302970 -0.609621
O7    O     O_R   0.644600 0.486560 0.675070 -0.637243
O8    O     O_R   0.355400 0.513440 0.324930 -0.588324
C3    C     C_R   0.502771 0.500607 0.741459 0.980598
C4    C     C_R   0.497509 0.498905 0.258676 0.962154
Zn1   Zn    Zn3+2 0.306940 0.517990 0.514670 1.075344
Zn2   Zn    Zn3+2 0.693060 0.482010 0.485330 1.063333
N1    N     N_2   0.950320 0.457950 0.465730 -0.005347
N2    N     N_2   0.049680 0.542050 0.534270 0.044836
C5    C     C_3   0.429588 0.622905 0.967580 0.257715
C6    C     C_3   0.574241 0.374384 0.032775 0.199520
C7    C     C_3   0.583438 0.622171 0.047074 -0.003755
C8    C     C_3   0.418805 0.374727 0.953631 -0.030177
C9    C     C_3   0.494972 0.498024 0.124496 -0.360721
C10   C     C_3   0.507134 0.498940 0.875790 -0.310596
C11   C     C_3   0.340735 0.499295 0.044073 0.238389
C12   C     C_3   0.661588 0.498808 0.955897 0.255546
C13   C     C_2   0.566799 0.954419 0.501522 -0.004947
C14   C     C_2   0.433188 0.045217 0.497115 -0.043288
N3    N     N_2   0.675397 0.752466 0.102269 -0.238141
H1    H     H_    0.774907 0.721637 0.151516 0.303086
C15   C     C_3   0.572491 0.863588 0.172429 -0.513614
H2    H     H_    0.652669 0.937251 0.234667 0.256514
H3    H     H_    0.472198 0.808061 0.232157 0.219604
H4    H     H_    0.514280 0.935024 0.106641 0.289980
N4    N     N_2   0.325092 0.242981 0.903374 -0.244548
H5    H     H_    0.256487 0.185968 0.971753 0.297543
C16   C     C_3   0.421207 0.141984 0.817801 -0.487648
H6    H     H_    0.333070 0.064558 0.765424 0.267175
H7    H     H_    0.503946 0.075751 0.871144 0.286682
H8    H     H_    0.501254 0.205023 0.749342 0.210029
N5    N     N_R   0.358867 0.757581 0.924244 0.207210
O9    O     O_R   0.245457 0.832358 0.993193 -0.324436
O10   O     O_R   0.424534 0.812722 0.821873 -0.491874
N6    N     N_R   0.656966 0.240960 0.068854 0.223266
O11   O     O_R   0.755372 0.165241 0.987551 -0.296654
O12   O     O_R   0.646141 0.205800 0.185383 -0.449969
N7    N     N_R   0.167354 0.503002 0.093743 0.245677
O13   O     O_R   0.063548 0.388764 0.068962 -0.359783
O14   O     O_R   0.114715 0.622941 0.160004 -0.313802
N8    N     N_R   0.835730 0.505210 0.907493 0.247259
O15   O     O_R   0.895254 0.397655 0.829830 -0.293990
O16   O     O_R   0.932400 0.620354 0.942666 -0.356864
N9    N     N_2   0.020588 0.408986 0.350551 -0.206087
H9    H     H_    0.948046 0.440336 0.281117 0.298248
C17   C     C_3   0.046808 0.248059 0.337285 -0.378465
H10   H     H_    0.950995 0.188952 0.277852 0.256493
H11   H     H_    0.037602 0.200015 0.430309 0.289412
H12   H     H_    0.173723 0.227863 0.291369 0.214504
N10   N     N_2   0.977927 0.663236 0.603564 -0.204296
H13   H     H_    0.855732 0.646797 0.633751 0.273172
C18   C     C_3   0.075315 0.729971 0.703832 -0.337767
H14   H     H_    0.000500 0.816055 0.761302 0.245935
H15   H     H_    0.189944 0.788212 0.667496 0.265448
H16   H     H_    0.110236 0.641510 0.763968 0.261779
N11   N     N_R   0.736381 0.012054 0.517229 0.225338
O17   O     O_R   0.855010 0.966956 0.435477 -0.328602
O18   O     O_R   0.777169 0.073212 0.626319 -0.315296
N12   N     N_R   0.263716 0.986837 0.482011 0.206975
O19   O     O_R   0.146422 0.022642 0.568069 -0.342310
O20   O     O_R   0.221515 0.925331 0.373401 -0.332666

loop_
_geom_bond_atom_site_label_1
_geom_bond_atom_site_label_2
_geom_bond_distance
_ccdc_geom_bond_type
N12   O20   1.301307 A    
O7    Zn2   2.033923 S    
N11   O18   1.301493 A    
C15   H2    1.107732 S    
C11   N7    1.446699 S    
N1    N9    1.367258 S    
N3    C15   1.442610 S    
C6    C9    1.542309 S    
C7    N3    1.446891 S    
C3    C10   1.435761 S    
C5    C10   1.539270 S    
O1    C1    1.298370 A    
C8    C11   1.536552 S    
O6    C4    1.298389 A    
N3    H1    1.031292 S    
O2    C2    1.299022 A    
N4    H5    1.030511 S    
Zn1   N2    2.060959 S    
N12   O19   1.300264 A    
C18   H14   1.111355 S    
N5    O10   1.297634 A    
C2    C14   1.430497 S    
C17   H10   1.110900 S    
O5    C3    1.301700 A    
O7    C3    1.299701 A    
N10   H13   1.012268 S    
C5    C11   1.531236 S    
O3    Zn2   2.034791 S    
N6    O12   1.298218 A    
C1    C13   1.429111 S    
C8    N4    1.444320 S    
O8    C4    1.301275 A    
N8    O16   1.297157 A    
N8    O15   1.300639 A    
C7    C9    1.538980 S    
C8    C10   1.541480 S    
C7    C12   1.533864 S    
C15   H4    1.108534 S    
C6    C8    1.538221 S    
N2    N10   1.380391 S    
N7    O14   1.300973 A    
C9    C11   1.539108 S    
C13   N11   1.436316 S    
O2    Zn2   2.033167 S    
N9    H9    1.025014 S    
C10   C12   1.537731 S    
C18   H15   1.091144 S    
O4    C2    1.310699 A    
N10   C18   1.437064 S    
N6    O11   1.300103 A    
C17   H11   1.102619 S    
N1    N2    1.286832 D    
C14   N12   1.436601 S    
O5    Zn1   2.008339 S    
C16   H8    1.103539 S    
O1    Zn1   2.033166 S    
N9    C17   1.440718 S    
C16   H7    1.105160 S    
C6    C12   1.534058 S    
C15   H3    1.109269 S    
C5    N5    1.451403 S    
C17   H12   1.109760 S    
N5    O9    1.299952 A    
Zn2   N1    2.060959 S    
C5    C7    1.530192 S    
C18   H16   1.098730 S    
O6    Zn2   2.008337 S    
C6    N6    1.458027 S    
N4    C16   1.438646 S    
C13   C14   1.361751 D    
N7    O13   1.299663 A    
C4    C9    1.431363 S    
C16   H6    1.106924 S    
O4    Zn1   2.034791 S    
N11   O17   1.299967 A    
O3    C1    1.310557 A    
O8    Zn1   2.033923 S    
C12   N8    1.447701 S    
