data_mof_unit_42464.cif
_audit_creation_date              2013-03-05T15:47:25-0500
_audit_creation_method            fapswitch 2.2
_symmetry_space_group_name_H-M    P1
_symmetry_Int_Tables_number       1
_space_group_crystal_system       triclinic
_cell_length_a                    18.421354
_cell_length_b                    18.585173
_cell_length_c                    11.645765
_cell_angle_alpha                 89.98164
_cell_angle_beta                  75.633748
_cell_angle_gamma                 89.967106
_cell_volume                      3862.41214229

loop_
_atom_site_label
_atom_site_type_symbol
_atom_site_description
_atom_site_fract_x
_atom_site_fract_y
_atom_site_fract_z
_atom_type_partial_charge
O1    O     O_R   0.430030 0.075530 0.417420 -0.566154
O2    O     O_R   0.569970 0.924470 0.582580 -0.567479
O3    O     O_R   0.569970 0.075530 0.582580 -0.570134
O4    O     O_R   0.430030 0.924470 0.417420 -0.570743
O5    O     O_R   0.930030 0.575530 0.417420 -0.569671
O6    O     O_R   0.069970 0.424470 0.582580 -0.568162
O7    O     O_R   0.069970 0.575530 0.582580 -0.568333
O8    O     O_R   0.930030 0.424470 0.417420 -0.567605
O9    O     O_R   0.416860 0.075510 0.614610 -0.535776
O10   O     O_R   0.583140 0.924490 0.385390 -0.557816
O11   O     O_R   0.583140 0.075510 0.385390 -0.532986
O12   O     O_R   0.416860 0.924490 0.614610 -0.555950
O13   O     O_R   0.916860 0.575510 0.614610 -0.533352
O14   O     O_R   0.083140 0.424490 0.385390 -0.558469
O15   O     O_R   0.083140 0.575510 0.385390 -0.532755
O16   O     O_R   0.916860 0.424490 0.614610 -0.557725
C1    C     C_R   0.399201 0.099970 0.521780 0.906996
C2    C     C_R   0.600725 0.899800 0.478415 0.894057
C3    C     C_R   0.600804 0.099999 0.478235 0.906350
C4    C     C_R   0.399395 0.899661 0.521547 0.890183
C5    C     C_R   0.899191 0.599982 0.521759 0.904190
C6    C     C_R   0.100749 0.399812 0.478414 0.896059
C7    C     C_R   0.100721 0.600088 0.478258 0.903440
C8    C     C_R   0.899275 0.399788 0.521595 0.895021
C9    C     C_R   0.410737 0.001285 0.866571 0.035167
C10   C     C_R   0.589241 0.000729 0.133511 0.032674
C11   C     C_R   0.910757 0.500016 0.866490 0.031476
C12   C     C_R   0.089227 0.499665 0.133478 0.031830
Cu1   Cu    Cu3+1 0.507800 0.000000 0.383250 1.054693
Cu2   Cu    Cu3+1 0.492200 0.000000 0.616750 1.054107
Cu3   Cu    Cu3+1 0.007800 0.500000 0.383250 1.055255
Cu4   Cu    Cu3+1 0.992200 0.500000 0.616750 1.055509
C13   C     C_R   0.400292 0.003540 0.990659 0.238928
C14   C     C_R   0.599764 0.999211 0.009426 0.243941
C15   C     C_R   0.900227 0.498293 0.990576 0.243156
C16   C     C_R   0.099719 0.497784 0.009412 0.244343
H1    H     H_    0.637296 0.000717 0.171156 0.195429
H2    H     H_    0.362678 0.002620 0.828963 0.200499
H3    H     H_    0.137274 0.499677 0.171108 0.193494
H4    H     H_    0.862709 0.500185 0.828831 0.196041
C17   C     C_R   0.542463 0.000474 0.836710 0.191026
C18   C     C_R   0.457566 0.000004 0.163224 0.189403
C19   C     C_R   0.042439 0.499653 0.836763 0.192813
C20   C     C_R   0.957543 0.500016 0.163258 0.192008
C21   C     C_R   0.658221 0.155911 0.464449 -0.305680
C22   C     C_R   0.339900 0.845736 0.533726 -0.317521
C23   C     C_R   0.341608 0.155670 0.535710 -0.304152
C24   C     C_R   0.660355 0.846047 0.466162 -0.313759
C25   C     C_R   0.157822 0.656316 0.464524 -0.309057
C26   C     C_R   0.839661 0.346006 0.533846 -0.312389
C27   C     C_R   0.841773 0.655880 0.535560 -0.307386
C28   C     C_R   0.160424 0.346084 0.466210 -0.311274
C29   C     C_R   0.218861 0.801300 0.643264 0.451506
C30   C     C_R   0.771768 0.210673 0.346038 0.432624
C31   C     C_R   0.782940 0.803716 0.359619 0.452917
C32   C     C_R   0.226866 0.208941 0.652982 0.434732
C33   C     C_R   0.717175 0.303532 0.640553 0.452563
C34   C     C_R   0.269529 0.713180 0.344526 0.434080
C35   C     C_R   0.283740 0.304751 0.361144 0.455583
C36   C     C_R   0.728166 0.710571 0.653929 0.432670
C37   C     C_R   0.283298 0.841550 0.639385 0.304897
C38   C     C_R   0.716328 0.157963 0.360486 0.331739
C39   C     C_R   0.718572 0.843940 0.362328 0.310158
C40   C     C_R   0.282662 0.156535 0.638571 0.333226
C41   C     C_R   0.781521 0.343763 0.637776 0.310003
C42   C     C_R   0.214843 0.659793 0.359278 0.333083
C43   C     C_R   0.219295 0.344762 0.363233 0.310347
C44   C     C_R   0.783621 0.657843 0.639467 0.331576
C45   C     C_R   0.337076 0.801849 0.436335 0.301407
C46   C     C_R   0.656208 0.205664 0.556266 0.288196
C47   C     C_R   0.661785 0.800558 0.562310 0.309827
C48   C     C_R   0.344400 0.206408 0.445102 0.292734
C49   C     C_R   0.838166 0.300602 0.437639 0.309261
C50   C     C_R   0.156525 0.705124 0.557444 0.288642
C51   C     C_R   0.161235 0.299883 0.561748 0.309726
C52   C     C_R   0.843859 0.705730 0.443838 0.287404
C53   C     C_R   0.274666 0.756676 0.442110 -0.225217
C54   C     C_R   0.715682 0.255053 0.547233 -0.227102
C55   C     C_R   0.724210 0.755446 0.557253 -0.220756
C56   C     C_R   0.284634 0.255471 0.453692 -0.225061
C57   C     C_R   0.775772 0.255465 0.442755 -0.220421
C58   C     C_R   0.215917 0.754611 0.548294 -0.226733
C59   C     C_R   0.223641 0.254741 0.556991 -0.220843
C60   C     C_R   0.784376 0.755135 0.452865 -0.227317
N1    N     N_R   0.519530 0.000000 0.207810 -0.223712
N2    N     N_R   0.480470 0.000000 0.792190 -0.227260
N3    N     N_R   0.019530 0.500000 0.207810 -0.225158
N4    N     N_R   0.980470 0.500000 0.792190 -0.225615
H5    H     H_    0.403347 0.998154 0.225482 0.178525
H6    H     H_    0.596626 0.002027 0.774331 0.185198
H7    H     H_    0.903393 0.502551 0.225559 0.184903
H8    H     H_    0.096615 0.501835 0.774475 0.185374
C61   C     C_R   0.536213 0.999805 0.960854 -0.095126
C62   C     C_R   0.463862 0.001450 0.039094 -0.103064
C63   C     C_R   0.036159 0.497779 0.960892 -0.098057
C64   C     C_R   0.963786 0.498010 0.039133 -0.098276
N5    N     N_R   0.594628 0.203927 0.659758 0.180505
O17   O     O_R   0.603044 0.173716 0.756485 -0.298300
O18   O     O_R   0.527899 0.222452 0.651879 -0.350582
N6    N     N_R   0.401753 0.797454 0.337814 0.189688
O19   O     O_R   0.460459 0.761935 0.349086 -0.333793
O20   O     O_R   0.406275 0.837408 0.244504 -0.354676
N7    N     N_R   0.407431 0.206327 0.343697 0.178654
O21   O     O_R   0.401311 0.177202 0.244914 -0.267519
O22   O     O_R   0.473304 0.224813 0.355566 -0.356381
N8    N     N_R   0.596013 0.794964 0.658707 0.186516
O23   O     O_R   0.537977 0.759867 0.643734 -0.342075
O24   O     O_R   0.589891 0.833641 0.753785 -0.325225
N9    N     N_R   0.095711 0.702438 0.661936 0.180025
O25   O     O_R   0.104802 0.670286 0.756711 -0.298572
O26   O     O_R   0.028791 0.721858 0.656357 -0.353527
N10   N     N_R   0.903849 0.295131 0.341062 0.186759
O27   O     O_R   0.962025 0.260089 0.355777 -0.334228
O28   O     O_R   0.909756 0.333892 0.246093 -0.324669
N11   N     N_R   0.905507 0.704054 0.340429 0.180666
O29   O     O_R   0.897187 0.673958 0.243592 -0.298703
O30   O     O_R   0.972200 0.722508 0.348482 -0.353799
N12   N     N_R   0.094992 0.293824 0.657176 0.186240
O31   O     O_R   0.037101 0.259278 0.640390 -0.335351
O32   O     O_R   0.088251 0.331938 0.752987 -0.326235
O33   O     O_3   0.718300 0.109491 0.269565 -0.550684
C65   C     C_3   0.766775 0.052548 0.280273 -0.183055
H9    H     H_    0.743865 0.021093 0.362625 0.131411
H10   H     H_    0.824275 0.071916 0.278048 0.176891
H11   H     H_    0.771653 0.015984 0.203553 0.232185
O34   O     O_3   0.288091 0.880703 0.738235 -0.584872
C66   C     C_3   0.313834 0.834366 0.815786 -0.160969
H12   H     H_    0.369410 0.810686 0.772293 0.187168
H13   H     H_    0.272647 0.790945 0.850307 0.189612
H14   H     H_    0.320918 0.865905 0.892937 0.184596
O35   O     O_3   0.280481 0.107466 0.728784 -0.554919
C67   C     C_3   0.233669 0.049805 0.715120 -0.196668
H15   H     H_    0.257714 0.019617 0.631770 0.127968
H16   H     H_    0.175808 0.068236 0.717373 0.179717
H17   H     H_    0.229431 0.012269 0.790507 0.232032
O36   O     O_3   0.716089 0.886363 0.265731 -0.593361
C68   C     C_3   0.695410 0.842668 0.179910 -0.188751
H18   H     H_    0.638299 0.819821 0.214454 0.188204
H19   H     H_    0.736589 0.798716 0.148586 0.194864
H20   H     H_    0.694322 0.876294 0.101724 0.185094
O37   O     O_3   0.216513 0.612072 0.267435 -0.548035
C69   C     C_3   0.265900 0.555413 0.275707 -0.177591
H21   H     H_    0.244397 0.523580 0.358105 0.131002
H22   H     H_    0.323498 0.575253 0.271549 0.176766
H23   H     H_    0.270000 0.519008 0.198979 0.231456
O38   O     O_3   0.784052 0.386046 0.734458 -0.593524
C70   C     C_3   0.804921 0.342224 0.820024 -0.187498
H24   H     H_    0.862095 0.319506 0.785284 0.189092
H25   H     H_    0.763888 0.298169 0.851208 0.194881
H26   H     H_    0.805953 0.375713 0.898348 0.184441
O39   O     O_3   0.781647 0.609296 0.730335 -0.550445
C71   C     C_3   0.733240 0.552380 0.719486 -0.182674
H27   H     H_    0.756215 0.520978 0.637099 0.131136
H28   H     H_    0.675728 0.571770 0.721677 0.176622
H29   H     H_    0.728366 0.515754 0.796163 0.232110
O40   O     O_3   0.217311 0.387736 0.267034 -0.595550
C72   C     C_3   0.197869 0.344398 0.179681 -0.188944
H30   H     H_    0.140609 0.321535 0.212367 0.187644
H31   H     H_    0.239203 0.300476 0.149058 0.198453
H32   H     H_    0.197827 0.378304 0.101386 0.186019
O41   O     O_3   0.656957 0.310941 0.738013 -0.519004
C73   C     C_3   0.613317 0.369894 0.718197 -0.141439
H33   H     H_    0.593709 0.362768 0.635821 0.155698
H34   H     H_    0.644608 0.421304 0.714306 0.131755
H35   H     H_    0.562961 0.373636 0.793468 0.205811
O42   O     O_3   0.320560 0.718854 0.235500 -0.523691
C74   C     C_3   0.287035 0.757957 0.158173 -0.104980
H36   H     H_    0.267191 0.811755 0.195253 0.156896
H37   H     H_    0.240061 0.727520 0.137001 0.184896
H38   H     H_    0.329698 0.766992 0.073662 0.183655
O43   O     O_3   0.344611 0.313045 0.264949 -0.518518
C75   C     C_3   0.387038 0.372435 0.286537 -0.145418
H39   H     H_    0.405695 0.365395 0.369791 0.155368
H40   H     H_    0.355192 0.423527 0.289860 0.134362
H41   H     H_    0.437984 0.376791 0.212434 0.205667
O44   O     O_3   0.675510 0.714567 0.761620 -0.527244
C76   C     C_3   0.707316 0.751679 0.843094 -0.097672
H42   H     H_    0.730536 0.804809 0.807715 0.175688
H43   H     H_    0.751434 0.719034 0.868518 0.183543
H44   H     H_    0.662717 0.761948 0.924922 0.190799
O45   O     O_3   0.160496 0.806173 0.743904 -0.517363
C77   C     C_3   0.115487 0.865672 0.731334 -0.137413
H45   H     H_    0.094017 0.861049 0.650268 0.152900
H46   H     H_    0.146432 0.917075 0.729915 0.131954
H47   H     H_    0.066324 0.867227 0.808848 0.206294
O46   O     O_3   0.824394 0.214706 0.238326 -0.527559
C78   C     C_3   0.792522 0.251826 0.156872 -0.096884
H48   H     H_    0.769196 0.304926 0.192278 0.175776
H49   H     H_    0.748475 0.219160 0.131411 0.183943
H50   H     H_    0.837107 0.262156 0.075062 0.190508
O47   O     O_3   0.843230 0.811231 0.262302 -0.519275
C79   C     C_3   0.886766 0.870134 0.282419 -0.143158
H51   H     H_    0.906297 0.862873 0.364848 0.155624
H52   H     H_    0.855422 0.921552 0.286405 0.132277
H53   H     H_    0.937171 0.873963 0.207251 0.204874
O48   O     O_3   0.173256 0.211764 0.759780 -0.527491
C80   C     C_3   0.203723 0.248326 0.843366 -0.100528
H54   H     H_    0.226609 0.301920 0.809898 0.176055
H55   H     H_    0.247772 0.215749 0.869109 0.182646
H56   H     H_    0.158383 0.257563 0.924656 0.192852
N13   N     N_R   0.325461 0.010337 0.064481 0.110717
O49   O     O_R   0.270253 0.977530 0.035368 -0.374298
O50   O     O_R   0.310177 0.059714 0.146126 -0.322721
N14   N     N_R   0.674864 0.996434 0.935728 0.106444
O51   O     O_R   0.727715 0.033013 0.965121 -0.332790
O52   O     O_R   0.693325 0.947669 0.853521 -0.387112
N15   N     N_R   0.825100 0.496119 0.064301 0.106754
O53   O     O_R   0.772407 0.532742 0.034395 -0.333341
O54   O     O_R   0.806431 0.447907 0.147398 -0.386057
N16   N     N_R   0.174805 0.495150 0.935626 0.106362
O55   O     O_R   0.227618 0.531857 0.964881 -0.333422
O56   O     O_R   0.193279 0.446540 0.853157 -0.386930

loop_
_geom_bond_atom_site_label_1
_geom_bond_atom_site_label_2
_geom_bond_distance
_ccdc_geom_bond_type
O6    Cu4   1.973932 S    
O43   C75   1.411048 S    
C36   C55   1.417221 A    
C61   C62   1.415916 A    
C46   C54   1.413447 A    
N13   O49   1.301125 A    
O16   C8    1.289850 A    
O13   Cu4   1.977658 S    
C45   C53   1.412038 A    
C70   H24   1.113265 S    
C16   C63   1.420745 A    
C14   C61   1.420987 A    
C5    C27   1.462303 S    
O14   Cu3   1.977658 S    
C28   C51   1.408202 A    
C13   C62   1.420819 A    
C52   C60   1.412999 A    
C50   N9    1.435913 S    
N10   O28   1.301469 A    
N5    O17   1.301681 A    
N14   O52   1.300858 A    
C74   H37   1.111798 S    
C42   O37   1.384118 S    
O45   C77   1.410941 S    
C80   H56   1.109437 S    
C17   N2    1.366326 A    
C68   H19   1.112607 S    
O11   C3    1.287338 A    
O34   C66   1.412006 S    
C32   C59   1.417768 A    
C19   N4    1.366272 A    
O40   C72   1.411938 S    
C70   H25   1.112625 S    
C73   H33   1.113744 S    
N9    O26   1.301310 A    
C55   C60   1.427478 A    
C7    C25   1.463468 S    
O2    C2    1.289100 A    
N8    O23   1.300874 A    
N11   O29   1.301702 A    
O6    C6    1.289119 A    
C21   C38   1.403568 A    
C52   N11   1.436055 S    
N15   O54   1.300885 A    
C69   H21   1.113108 S    
C80   H55   1.111276 S    
N12   O31   1.300773 A    
C9    N2    1.359716 A    
C78   H50   1.109455 S    
C34   C53   1.417025 A    
C35   C43   1.395551 A    
C77   H45   1.113768 S    
C29   C37   1.394626 A    
C10   C14   1.409827 A    
C72   H30   1.113209 S    
C17   C61   1.421624 A    
C63   C64   1.415949 A    
C14   N14   1.436646 S    
C67   H15   1.113510 S    
C76   H43   1.111303 S    
C31   C39   1.395090 A    
C19   C63   1.421707 A    
O39   C71   1.409668 S    
C32   C40   1.395201 A    
O3    C3    1.289776 A    
C37   O34   1.383329 S    
C75   H41   1.109143 S    
Cu2   N2    2.000502 S    
C20   N3    1.366425 A    
Cu1   N1    2.000500 S    
O4    Cu1   1.974921 S    
C46   N5    1.435985 S    
C54   C57   1.427392 A    
C34   C42   1.394276 A    
O15   C7    1.287446 A    
C17   H6    1.079085 S    
C72   H31   1.112667 S    
C32   O48   1.383992 S    
N13   O50   1.301118 A    
C69   H23   1.108500 S    
C11   N4    1.358845 A    
C51   N12   1.436649 S    
C50   C58   1.413326 A    
C56   C59   1.427958 A    
C35   O43   1.383055 S    
C49   C57   1.412603 A    
N10   O27   1.300881 A    
N5    O18   1.301329 A    
C75   H40   1.111500 S    
O41   C73   1.410990 S    
C74   H38   1.109369 S    
C73   H34   1.111240 S    
C65   H9    1.112980 S    
C8    C26   1.465905 S    
C68   H20   1.108481 S    
Cu3   N3    2.000500 S    
C25   C42   1.403906 A    
C22   C37   1.403814 A    
N15   O53   1.301399 A    
C79   H53   1.109146 S    
C70   H26   1.108485 S    
C27   C52   1.407073 A    
C26   C49   1.408563 A    
C23   C40   1.403146 A    
O48   C80   1.412880 S    
C24   C39   1.403689 A    
C30   C38   1.395272 A    
C12   H3    1.080696 S    
N11   O30   1.301351 A    
C15   C64   1.420997 A    
C47   C55   1.412132 A    
O47   C79   1.410981 S    
C43   O40   1.383492 S    
C77   H47   1.109149 S    
C31   O47   1.383079 S    
O3    Cu2   1.974919 S    
C66   H13   1.112492 S    
Cu1   Cu2   2.662576 S    
C20   C64   1.421859 A    
C29   O45   1.382915 S    
C9    H2    1.081010 S    
C73   H35   1.109141 S    
Cu3   Cu4   2.662576 S    
C40   O35   1.384023 S    
C11   H4    1.080936 S    
C76   H44   1.109475 S    
O12   C4    1.290177 A    
C12   N3    1.358783 A    
O1    Cu1   1.973931 S    
O13   C5    1.286951 A    
N7    O22   1.301301 A    
C18   N1    1.366254 A    
C71   H27   1.113035 S    
C28   C43   1.403388 A    
C12   C16   1.409819 A    
O33   C65   1.409618 S    
C20   H7    1.079120 S    
O9    Cu2   1.977658 S    
C71   H29   1.108461 S    
N12   O32   1.301471 A    
O9    C1    1.286560 A    
O44   C76   1.412822 S    
N6    O20   1.301463 A    
C71   H28   1.113147 S    
N16   O55   1.301306 A    
C72   H32   1.108360 S    
N16   O56   1.300924 A    
O42   C74   1.412638 S    
C36   O44   1.384042 S    
C69   H22   1.113118 S    
C24   C47   1.408258 A    
C65   H10   1.113100 S    
C66   H12   1.113852 S    
C74   H36   1.114140 S    
C75   H39   1.113781 S    
C49   N10   1.436648 S    
C6    C28   1.465281 S    
O38   C70   1.411845 S    
C15   N15   1.436822 S    
O7    Cu4   1.974919 S    
O12   Cu2   1.978801 S    
C21   C46   1.407359 A    
C18   C62   1.421515 A    
O8    Cu3   1.974921 S    
C33   C54   1.417429 A    
C10   N1    1.358897 A    
C1    C23   1.461828 S    
C33   C41   1.395396 A    
O36   C68   1.411841 S    
C2    C24   1.464945 S    
C35   C56   1.417352 A    
C3    C21   1.463270 S    
C10   H1    1.080930 S    
O15   Cu3   1.978799 S    
C48   N7    1.436093 S    
O16   Cu4   1.978801 S    
C68   H18   1.113265 S    
O1    C1    1.289753 A    
C19   H8    1.079172 S    
C31   C60   1.417292 A    
O2    Cu2   1.973932 S    
C18   H5    1.079403 S    
C11   C15   1.409888 A    
C79   H51   1.113738 S    
O14   C6    1.289607 A    
C65   H11   1.108437 S    
C41   O38   1.383511 S    
C66   H14   1.107469 S    
C78   H48   1.113759 S    
C48   C56   1.413457 A    
C44   O39   1.384042 S    
O37   C69   1.410012 S    
C39   O36   1.383530 S    
O10   Cu1   1.977658 S    
C51   C59   1.412740 A    
N8    O24   1.301489 A    
C53   C58   1.427506 A    
O10   C2    1.289490 A    
C67   H17   1.108685 S    
O7    C7    1.289821 A    
C13   N13   1.437738 S    
N6    O19   1.300795 A    
O8    C8    1.289224 A    
C33   O41   1.383062 S    
C27   C44   1.403521 A    
C38   O33   1.384006 S    
C80   H54   1.113776 S    
C34   O42   1.383712 S    
C26   C41   1.403734 A    
C77   H46   1.110778 S    
C23   C48   1.406350 A    
C78   H49   1.111284 S    
C9    C13   1.410375 A    
C36   C44   1.394933 A    
O4    C4    1.289148 A    
C45   N6    1.436737 S    
O5    C5    1.289666 A    
N14   O51   1.301336 A    
O11   Cu1   1.978799 S    
C67   H16   1.113477 S    
C76   H42   1.113785 S    
C30   O46   1.384017 S    
C47   N8    1.436725 S    
C16   N16   1.436696 S    
N7    O21   1.301523 A    
C22   C45   1.408641 A    
C25   C50   1.407899 A    
C29   C58   1.417593 A    
O46   C78   1.412784 S    
N9    O25   1.301737 A    
C30   C57   1.417380 A    
C4    C22   1.466210 S    
O35   C67   1.409489 S    
C79   H52   1.111236 S    
O5    Cu3   1.973931 S    
Cu4   N4    2.000502 S    
