data_mof_unit_64503.cif
_audit_creation_date              2012-12-10T19:53:31-0500
_audit_creation_method            fapswitch 2.2
_symmetry_space_group_name_H-M    P1
_symmetry_Int_Tables_number       1
_space_group_crystal_system       triclinic
_cell_length_a                    18.396942
_cell_length_b                    18.396951
_cell_length_c                    42.948411
_cell_angle_alpha                 89.999636
_cell_angle_beta                  89.999634
_cell_angle_gamma                 90.000108
_cell_volume                      14535.7883666

loop_
_atom_site_label
_atom_site_type_symbol
_atom_type_description
_atom_site_fract_x
_atom_site_fract_y
_atom_site_fract_z
_atom_type_partial_charge
Br1   Br    Br    0.389095 0.114803 0.884997 -0.506828
Br2   Br    Br    0.885278 0.389035 0.885000 -0.506834
Br3   Br    Br    0.610906 0.885198 0.884997 -0.506827
Br4   Br    Br    0.114724 0.610965 0.884999 -0.506832
Br5   Br    Br    0.110821 0.614926 0.384990 -0.506808
Br6   Br    Br    0.385211 0.110911 0.384995 -0.506815
Br7   Br    Br    0.889178 0.385075 0.384991 -0.506810
Br8   Br    Br    0.614790 0.889090 0.384995 -0.506815
C1    C     C_R   0.000000 0.500000 0.915844 0.886652
C2    C     C_R   0.499999 1.000000 0.118465 -0.002319
C3    C     C_R   0.756854 0.810889 0.020158 -0.218473
C4    C     C_R   0.810871 0.756851 0.020162 -0.215443
C5    C     C_R   0.756853 0.189127 0.020162 -0.215424
C6    C     C_R   0.189129 0.243148 0.020163 -0.215442
C7    C     C_R   0.243147 0.810872 0.020162 -0.215427
C8    C     C_R   0.689126 0.256854 0.520161 -0.215409
C9    C     C_R   0.743147 0.689128 0.520162 -0.215427
C10   C     C_R   0.310873 0.743146 0.520161 -0.215413
C11   C     C_R   0.256853 0.310872 0.520162 -0.215426
C12   C     C_R   0.310890 0.256856 0.520157 -0.218495
C13   C     C_R   0.500000 1.000000 0.618461 -0.002184
C14   C     C_R   0.256857 0.689108 0.520157 -0.218479
C15   C     C_R   0.689110 0.743144 0.520158 -0.218496
C16   C     C_R   0.743142 0.310891 0.520157 -0.218482
C17   C     C_3   0.351847 0.707309 0.956790 -0.461022
C18   C     C_3   0.292689 0.351844 0.956788 -0.461036
C19   C     C_3   0.648154 0.292693 0.956790 -0.461025
C20   C     C_3   0.707311 0.648157 0.956788 -0.461036
C21   C     C_3   0.648127 0.707417 0.956776 -0.441644
C22   C     C_3   0.707415 0.351876 0.956778 -0.441665
C23   C     C_3   0.351873 0.292583 0.956776 -0.441644
C24   C     C_R   0.999999 0.500000 0.618464 -0.002265
C25   C     C_3   0.292587 0.648125 0.956778 -0.441668
C26   C     C_3   0.851879 0.207411 0.456780 -0.441613
C27   C     C_3   0.792587 0.851876 0.456778 -0.441645
C28   C     C_3   0.148122 0.792590 0.456779 -0.441617
C29   C     C_3   0.207414 0.148124 0.456778 -0.441645
C30   C     C_3   0.148154 0.207308 0.456790 -0.461000
C31   C     C_3   0.207307 0.851850 0.456792 -0.461018
C32   C     C_3   0.851847 0.792692 0.456790 -0.461001
C33   C     C_3   0.792695 0.148151 0.456792 -0.461023
C34   C     C_R   0.012838 0.564589 0.134993 -0.188895
C35   C     C_R   0.500000 1.000000 0.781544 0.336200
C36   C     C_R   0.435498 0.013234 0.134990 -0.188897
C37   C     C_R   0.987163 0.435409 0.134993 -0.188896
C38   C     C_R   0.564501 0.986766 0.134989 -0.188897
C39   C     C_R   0.486222 0.064387 0.634984 -0.188891
C40   C     C_R   0.935534 0.486563 0.634988 -0.188886
C41   C     C_R   0.513777 0.935612 0.634984 -0.188891
C42   C     C_R   0.064465 0.513438 0.634988 -0.188885
C43   C     C_R   0.013212 0.564519 0.167467 -0.160094
C44   C     C_R   0.435572 0.013615 0.167464 -0.160066
C45   C     C_R   0.986789 0.435479 0.167467 -0.160094
C46   C     C_R   1.000000 0.500001 0.781550 0.336044
C47   C     C_R   0.564427 0.986384 0.167463 -0.160066
C48   C     C_R   0.485828 0.064307 0.667458 -0.160028
C49   C     C_R   0.935610 0.486177 0.667462 -0.160048
C50   C     C_R   0.514170 0.935692 0.667458 -0.160027
C51   C     C_R   0.064388 0.513825 0.667462 -0.160049
C52   C     C_R   0.000000 0.500000 0.281556 0.335829
C53   C     C_R   0.500001 0.000002 0.281552 0.335994
C54   C     C_R   0.000000 0.499999 0.218364 0.284561
C55   C     C_R   0.500000 0.000000 0.218359 0.284649
C56   C     C_R   0.499999 0.999999 0.718350 0.284713
C57   C     C_R   0.500000 0.000000 0.915844 0.886602
C58   C     C_R   0.999999 0.500001 0.718356 0.284638
C59   C     C_R   0.456083 0.048893 0.832400 -0.175180
C60   C     C_R   0.951130 0.456072 0.832400 -0.175153
C61   C     C_R   0.543917 0.951108 0.832400 -0.175181
C62   C     C_R   0.048870 0.543929 0.832400 -0.175153
C63   C     C_R   0.043852 0.548968 0.332397 -0.175161
C64   C     C_R   0.451137 0.043931 0.332398 -0.175161
C65   C     C_R   0.956147 0.451033 0.332398 -0.175162
C66   C     C_R   0.548866 0.956072 0.332398 -0.175160
C67   C     C_R   0.455406 0.049008 0.864894 0.235222
C68   C     C_R   0.500000 0.000000 0.415844 0.886597
C69   C     C_R   0.951020 0.455387 0.864895 0.235217
C70   C     C_R   0.544594 0.950993 0.864894 0.235223
C71   C     C_R   0.048981 0.544613 0.864894 0.235217
C72   C     C_R   0.044545 0.549071 0.364891 0.235342
C73   C     C_R   0.451012 0.044606 0.364893 0.235245
C74   C     C_R   0.955454 0.450931 0.364892 0.235343
C75   C     C_R   0.548989 0.955396 0.364893 0.235244
C76   C     C_R   0.500000 0.000001 0.881553 -0.149370
C77   C     C_R   0.000001 0.500000 0.881553 -0.149342
C78   C     C_R   1.000000 0.500000 0.381552 -0.149529
C79   C     C_R   1.000000 0.500000 0.415843 0.886522
C80   C     C_R   0.500001 0.000001 0.381552 -0.149378
C81   C     C_R   0.500000 0.000000 0.815894 -0.032624
C82   C     C_R   0.000000 0.500000 0.815897 -0.032614
C83   C     C_R   1.000000 0.500000 0.315898 -0.032473
C84   C     C_R   0.500001 0.000002 0.315897 -0.032608
C85   C     C_R   0.000000 0.500000 0.084174 0.780664
C86   C     C_R   0.500000 1.000000 0.084173 0.780614
C87   C     C_R   0.500000 1.000000 0.584172 0.780546
C88   C     C_R   1.000000 0.500000 0.584173 0.780590
C89   C     C_R   0.860097 0.639983 0.000003 0.808723
C90   C     C_R   0.000000 0.499999 0.184023 0.084729
C91   C     C_R   0.360017 0.860097 0.000003 0.808724
C92   C     C_R   0.139903 0.360017 0.000003 0.808728
C93   C     C_R   0.639983 0.139903 0.000003 0.808724
C94   C     C_R   0.139885 0.639993 0.999995 0.818074
C95   C     C_R   0.639993 0.860115 0.999995 0.818048
C96   C     C_R   0.860116 0.360007 0.999995 0.818074
C97   C     C_R   0.360007 0.139885 0.999995 0.818053
C98   C     C_R   0.360115 0.139993 0.499995 0.818029
C99   C     C_R   0.860007 0.360115 0.499995 0.818029
C100  C     C_R   0.639885 0.860007 0.499995 0.818034
C101  C     C_R   0.500000 0.000000 0.184019 0.084674
C102  C     C_R   0.139993 0.639885 0.499995 0.818028
C103  C     C_R   0.639903 0.139983 0.500003 0.808722
C104  C     C_R   0.139983 0.360097 0.500003 0.808708
C105  C     C_R   0.360097 0.860017 0.500003 0.808721
C106  C     C_R   0.860017 0.639903 0.500003 0.808714
C107  C     C_R   0.255596 0.692534 0.981059 0.129689
C108  C     C_R   0.307465 0.255595 0.981059 0.129682
C109  C     C_R   0.744405 0.307466 0.981059 0.129692
C110  C     C_R   0.692535 0.744405 0.981059 0.129682
C111  C     C_R   0.744357 0.692534 0.981069 0.123390
C112  C     C_R   0.499999 0.999999 0.684012 0.084644
C113  C     C_R   0.692533 0.255644 0.981070 0.123388
C114  C     C_R   0.255643 0.307466 0.981069 0.123389
C115  C     C_R   0.307467 0.744356 0.981070 0.123390
C116  C     C_R   0.755646 0.192532 0.481071 0.123373
C117  C     C_R   0.807467 0.755644 0.481070 0.123370
C118  C     C_R   0.244355 0.807468 0.481071 0.123375
C119  C     C_R   0.192533 0.244356 0.481070 0.123370
C120  C     C_R   0.244404 0.192534 0.481059 0.129676
C121  C     C_R   0.192533 0.755597 0.481060 0.129661
C122  C     C_R   0.755596 0.807466 0.481059 0.129676
C123  C     C_R   0.999999 0.500001 0.684017 0.084684
C124  C     C_R   0.807468 0.244403 0.481060 0.129665
C125  C     C_R   0.194995 0.696035 0.000231 -0.075023
C126  C     C_R   0.303965 0.194995 0.000231 -0.075018
C127  C     C_R   0.805005 0.303965 0.000231 -0.075023
C128  C     C_R   0.696035 0.805005 0.000231 -0.075017
C129  C     C_R   0.804968 0.696020 0.000242 -0.075832
C130  C     C_R   0.696020 0.195032 0.000242 -0.075841
C131  C     C_R   0.195032 0.303980 0.000242 -0.075834
C132  C     C_R   0.303979 0.804968 0.000242 -0.075841
C133  C     C_R   0.695032 0.196020 0.500242 -0.075840
C134  C     C_R   0.000000 0.500000 0.118467 -0.002396
C135  C     C_R   0.803979 0.695032 0.500242 -0.075837
C136  C     C_R   0.304968 0.803979 0.500242 -0.075839
C137  C     C_R   0.196020 0.304968 0.500242 -0.075836
C138  C     C_R   0.305005 0.196035 0.500231 -0.075012
C139  C     C_R   0.196035 0.694995 0.500231 -0.075018
C140  C     C_R   0.694995 0.803965 0.500231 -0.075013
C141  C     C_R   0.803965 0.305005 0.500231 -0.075018
C142  C     C_R   0.189109 0.756856 0.020158 -0.218452
C143  C     C_R   0.243145 0.189111 0.020159 -0.218472
C144  C     C_R   0.810890 0.243143 0.020158 -0.218454
H1    H     H_    0.143146 0.762897 0.035698 0.178187
H2    H     H_    0.737111 0.643164 0.535702 0.178625
H3    H     H_    0.356836 0.737109 0.535701 0.178637
H4    H     H_    0.262888 0.356835 0.535702 0.178625
H5    H     H_    0.356853 0.262897 0.535697 0.178180
H6    H     H_    0.262898 0.643144 0.535696 0.178186
H7    H     H_    0.643147 0.737102 0.535698 0.178180
H8    H     H_    0.737100 0.356855 0.535696 0.178186
H9    H     H_    0.354380 0.738983 0.934776 0.226500
H10   H     H_    0.261015 0.354375 0.934774 0.226500
H11   H     H_    0.645621 0.261020 0.934776 0.226500
H12   H     H_    0.237105 0.143149 0.035699 0.178179
H13   H     H_    0.738986 0.645626 0.934775 0.226500
H14   H     H_    0.645666 0.739087 0.934760 0.247260
H15   H     H_    0.739083 0.354340 0.934761 0.247243
H16   H     H_    0.354335 0.260914 0.934759 0.247260
H17   H     H_    0.260919 0.645663 0.934761 0.247242
H18   H     H_    0.854345 0.239078 0.434763 0.247284
H19   H     H_    0.760919 0.854339 0.434761 0.247258
H20   H     H_    0.145658 0.760924 0.434762 0.247283
H21   H     H_    0.239082 0.145661 0.434761 0.247258
H22   H     H_    0.145621 0.238981 0.434777 0.226509
H23   H     H_    0.856853 0.237102 0.035698 0.178186
H24   H     H_    0.238979 0.854384 0.434778 0.226507
H25   H     H_    0.854380 0.761019 0.434776 0.226509
H26   H     H_    0.761024 0.145617 0.434778 0.226507
H27   H     H_    0.405036 0.688242 0.965964 0.203097
H28   H     H_    0.311757 0.405033 0.965961 0.203097
H29   H     H_    0.594966 0.311759 0.965964 0.203097
H30   H     H_    0.688244 0.594967 0.965962 0.203097
H31   H     H_    0.594901 0.688434 0.965941 0.199208
H32   H     H_    0.688433 0.405102 0.965944 0.199207
H33   H     H_    0.405099 0.311567 0.965941 0.199208
H34   H     H_    0.762895 0.856850 0.035699 0.178180
H35   H     H_    0.311569 0.594900 0.965944 0.199207
H36   H     H_    0.905104 0.188430 0.465947 0.199210
H37   H     H_    0.811569 0.905101 0.465944 0.199209
H38   H     H_    0.094898 0.811571 0.465946 0.199211
H39   H     H_    0.188431 0.094899 0.465944 0.199209
H40   H     H_    0.094965 0.188241 0.465965 0.203101
H41   H     H_    0.188241 0.905038 0.465967 0.203098
H42   H     H_    0.905035 0.811759 0.465964 0.203101
H43   H     H_    0.811761 0.094963 0.465967 0.203098
H44   H     H_    0.023050 0.615160 0.122842 0.160966
H45   H     H_    0.856832 0.762885 0.035703 0.178607
H46   H     H_    0.385001 0.023763 0.122837 0.160888
H47   H     H_    0.976950 0.384838 0.122843 0.160966
H48   H     H_    0.614998 0.976237 0.122837 0.160889
H49   H     H_    0.475259 0.114788 0.622829 0.160773
H50   H     H_    0.885068 0.475871 0.622835 0.160840
H51   H     H_    0.524741 0.885211 0.622829 0.160772
H52   H     H_    0.114931 0.524130 0.622834 0.160841
H53   H     H_    0.023303 0.615156 0.179577 0.154249
H54   H     H_    0.385008 0.024026 0.179575 0.154233
H55   H     H_    0.976697 0.384843 0.179577 0.154249
H56   H     H_    0.762888 0.143164 0.035702 0.178621
H57   H     H_    0.614991 0.975974 0.179574 0.154233
H58   H     H_    0.474983 0.114776 0.679571 0.154201
H59   H     H_    0.885076 0.475604 0.679575 0.154214
H60   H     H_    0.525016 0.885223 0.679571 0.154201
H61   H     H_    0.114922 0.524398 0.679574 0.154214
H62   H     H_    0.421134 0.086508 0.820069 0.190380
H63   H     H_    0.913547 0.421103 0.820066 0.190330
H64   H     H_    0.578866 0.913492 0.820069 0.190380
H65   H     H_    0.086453 0.578898 0.820066 0.190330
H66   H     H_    0.078773 0.586612 0.320057 0.190238
H67   H     H_    0.143167 0.237114 0.035704 0.178606
H68   H     H_    0.413568 0.078905 0.320062 0.190299
H69   H     H_    0.921226 0.413388 0.320058 0.190238
H70   H     H_    0.586435 0.921099 0.320062 0.190299
H71   H     H_    0.237111 0.856835 0.035702 0.178620
H72   H     H_    0.643162 0.262890 0.535700 0.178638
N1    N     N_R   0.972558 0.442721 0.234472 -0.170991
N2    N     N_R   0.056776 0.528427 0.765442 -0.164626
N3    N     N_R   0.471135 0.056536 0.765435 -0.164724
N4    N     N_R   0.943223 0.471575 0.765442 -0.164626
N5    N     N_R   0.972404 0.442794 0.265451 -0.164482
N6    N     N_R   0.556932 0.971895 0.265445 -0.164569
N7    N     N_R   0.027597 0.557205 0.265450 -0.164482
N8    N     N_R   0.443070 0.028108 0.265445 -0.164569
N9    N     N_R   0.557006 0.972046 0.234466 -0.170978
N10   N     N_R   0.027443 0.557278 0.234471 -0.170992
N11   N     N_R   0.442995 0.027956 0.234466 -0.170977
N12   N     N_R   0.528717 0.943388 0.734456 -0.170936
N13   N     N_R   0.056851 0.528277 0.734463 -0.170948
N14   N     N_R   0.471282 0.056611 0.734456 -0.170936
N15   N     N_R   0.943148 0.471725 0.734463 -0.170948
N16   N     N_R   0.528864 0.943464 0.765435 -0.164724
O1    O     O_3   0.000000 0.500000 0.999980 -0.490421
O2    O     O_R   0.000000 0.560770 0.430670 -0.605556
O3    O     O_R   0.439230 0.000000 0.430670 -0.605566
O4    O     O_R   0.000000 0.439230 0.430670 -0.605554
O5    O     O_R   0.000000 0.560690 0.069300 -0.647137
O6    O     O_R   0.439310 0.000000 0.069300 -0.647104
O7    O     O_R   0.000000 0.439310 0.069300 -0.647138
O8    O     O_R   0.560690 0.000000 0.069300 -0.647103
O9    O     O_R   0.500000 0.060690 0.569300 -0.647058
O10   O     O_R   0.939310 0.500000 0.569300 -0.647084
O11   O     O_R   0.500000 0.939310 0.569300 -0.647059
O12   O     O_3   0.500000 0.000000 0.999980 -0.490430
O13   O     O_R   0.060690 0.500000 0.569300 -0.647083
O14   O     O_R   0.853850 0.585430 0.981810 -0.641890
O15   O     O_R   0.414570 0.853850 0.981810 -0.641889
O16   O     O_R   0.146150 0.414570 0.981810 -0.641891
O17   O     O_R   0.585430 0.146150 0.981810 -0.641890
O18   O     O_R   0.146150 0.585430 0.981810 -0.628124
O19   O     O_R   0.585430 0.853850 0.981810 -0.628115
O20   O     O_R   0.853850 0.414570 0.981810 -0.628122
O21   O     O_R   0.414570 0.146150 0.981810 -0.628116
O22   O     O_R   0.353850 0.085430 0.481810 -0.628113
O23   O     O_3   0.500000 0.000000 0.499980 -0.490441
O24   O     O_R   0.914570 0.353850 0.481810 -0.628106
O25   O     O_R   0.646150 0.914570 0.481810 -0.628114
O26   O     O_R   0.085430 0.646150 0.481810 -0.628107
O27   O     O_R   0.646150 0.085430 0.481810 -0.641892
O28   O     O_R   0.085430 0.353850 0.481810 -0.641883
O29   O     O_R   0.353850 0.914570 0.481810 -0.641891
O30   O     O_R   0.914570 0.646150 0.481810 -0.641883
O31   O     O_R   0.085450 0.353830 0.018160 -0.648428
O32   O     O_R   0.646170 0.085450 0.018160 -0.648409
O33   O     O_R   0.914550 0.646170 0.018160 -0.648428
O34   O     O_3   0.000000 0.500000 0.499980 -0.490436
O35   O     O_R   0.353830 0.914550 0.018160 -0.648411
O36   O     O_R   0.914550 0.353830 0.018160 -0.651929
O37   O     O_R   0.353830 0.085450 0.018160 -0.651943
O38   O     O_R   0.085450 0.646170 0.018160 -0.651928
O39   O     O_R   0.646170 0.914550 0.018160 -0.651943
O40   O     O_R   0.585450 0.853830 0.518160 -0.651960
O41   O     O_R   0.146170 0.585450 0.518160 -0.651949
O42   O     O_R   0.414550 0.146170 0.518160 -0.651960
O43   O     O_R   0.853830 0.414550 0.518160 -0.651950
O44   O     O_R   0.414550 0.853830 0.518160 -0.648388
O45   O     O_R   0.060770 0.500000 0.930670 -0.605584
O46   O     O_R   0.853830 0.585450 0.518160 -0.648405
O47   O     O_R   0.585450 0.146170 0.518160 -0.648387
O48   O     O_R   0.146170 0.414550 0.518160 -0.648404
O49   O     O_R   0.500000 0.060770 0.930670 -0.605573
O50   O     O_R   0.939230 0.500000 0.930670 -0.605583
O51   O     O_R   0.500000 0.939230 0.930670 -0.605571
O52   O     O_R   0.560770 0.000000 0.430670 -0.605568
Zn1   Zn    Zn3+2 0.000000 0.586730 0.025950 0.966371
Zn2   Zn    Zn3+2 0.500000 0.913260 0.974020 1.008288
Zn3   Zn    Zn3+2 0.086740 0.500000 0.974020 1.008295
Zn4   Zn    Zn3+2 0.500000 0.086740 0.974020 1.008289
Zn5   Zn    Zn3+2 0.413260 0.000000 0.474020 1.008282
Zn6   Zn    Zn3+2 0.000000 0.413260 0.474020 1.008283
Zn7   Zn    Zn3+2 0.586740 0.000000 0.474020 1.008283
Zn8   Zn    Zn3+2 0.000000 0.586740 0.474020 1.008284
Zn9   Zn    Zn3+2 0.413270 0.000000 0.025950 0.966376
Zn10  Zn    Zn3+2 0.000000 0.413270 0.025950 0.966372
Zn11  Zn    Zn3+2 0.586730 0.000000 0.025950 0.966376
Zn12  Zn    Zn3+2 0.500000 0.086730 0.525950 0.966386
Zn13  Zn    Zn3+2 0.913270 0.500000 0.525950 0.966373
Zn14  Zn    Zn3+2 0.500000 0.913270 0.525950 0.966386
Zn15  Zn    Zn3+2 0.086730 0.500000 0.525950 0.966372
Zn16  Zn    Zn3+2 0.913260 0.500000 0.974020 1.008294

loop_
_geom_bond_atom_site_label_1
_geom_bond_atom_site_label_2
_ccdc_geom_bond_type
C54   N10   A    
C96   C127  S    
C11   C12   A    
C66   C75   A    
C19   C113  S    
C102  O41   A    
C51   C123  A    
C35   C81   S    
O20   Zn16  S    
C42   C51   A    
C114  C131  A    
C2    C86   S    
C66   C84   A    
C72   C78   A    
C69   C77   A    
O22   Zn5   S    
C93   O17   A    
C6    C143  A    
C60   C82   A    
C104  O28   A    
C56   N14   A    
O42   Zn12  S    
C75   C80   A    
C93   O32   A    
C107  C115  A    
C52   N5    A    
C5    C144  A    
C118  C121  A    
C122  C140  A    
O35   Zn9   S    
C111  C129  A    
C21   H14   S    
C29   C30   S    
C47   H57   S    
O45   Zn3   S    
C53   N6    A    
C65   C83   A    
C85   O5    A    
Br4   C71   S    
C50   H60   S    
C37   C134  A    
C12   C138  A    
C8    H72   S    
C109  C127  A    
C71   C77   A    
C110  C128  A    
C60   C69   A    
C62   C71   A    
O16   Zn3   S    
C51   H61   S    
C65   H69   S    
C54   N1    A    
C15   C140  A    
O50   Zn16  S    
C56   C112  S    
C105  C136  S    
C1    O45   A    
C106  C135  S    
C27   C32   S    
C103  O27   A    
C33   H43   S    
C3    C128  A    
C126  C143  A    
N7    N10   A    
C121  C139  A    
C73   C80   A    
O52   Zn7   S    
C92   O16   A    
C85   C134  S    
C100  C140  S    
C92   O31   A    
O10   Zn13  S    
C49   H59   S    
C36   H46   S    
Br8   C75   S    
C13   C41   A    
O4    Zn6   S    
C40   C49   A    
C31   H41   S    
C9    C15   A    
C63   H66   S    
C28   H38   S    
C105  O29   A    
C22   H15   S    
C46   C82   S    
C67   C76   A    
C30   H22   S    
C127  C144  A    
C40   H50   S    
C98   O22   A    
C53   N8    A    
C104  C137  S    
C116  C124  A    
C60   H63   S    
C20   H30   S    
O28   Zn6   S    
C85   O7    A    
O17   Zn4   S    
C19   H11   S    
O44   Zn14  S    
O18   Zn3   S    
O19   Zn2   S    
C17   H9    S    
C15   H7    S    
O13   Zn15  S    
O14   Zn16  S    
C96   O36   A    
C36   C44   A    
C37   C45   A    
N2    N13   A    
C47   C101  A    
C61   H64   S    
O15   Zn2   S    
C61   C81   A    
C89   C129  S    
C64   H68   S    
C28   H20   S    
C2    C36   A    
C68   O3    A    
C106  O46   A    
C57   C76   S    
C13   C87   S    
N3    N14   A    
C94   O18   A    
C98   O42   A    
C55   C101  S    
C26   H36   S    
C95   C128  S    
O41   Zn15  S    
C92   C131  S    
C23   H33   S    
C5    H56   S    
O33   Zn1   S    
C14   C139  A    
C17   C115  S    
C27   C122  S    
O46   Zn13  S    
O47   Zn12  S    
C116  C133  A    
C59   C67   A    
C58   C123  S    
C29   H39   S    
C10   C14   A    
C28   C31   S    
C125  C142  A    
C43   H53   S    
C45   C90   A    
C37   H47   S    
C21   C110  S    
C5    C130  A    
C8    C133  A    
C94   C125  S    
C58   N13   A    
C120  C138  A    
C79   O4    A    
C117  C135  A    
C32   C117  S    
C118  C136  A    
C68   O52   A    
C103  C133  S    
C105  O44   A    
C32   H25   S    
C99   C141  S    
C143  H12   S    
C59   H62   S    
C86   O8    A    
C17   C25   S    
O1    Zn10  S    
C13   C39   A    
C41   H51   S    
C124  C141  A    
C3    H34   S    
C27   H19   S    
C88   O10   A    
C25   H17   S    
C108  C114  A    
C33   C116  S    
C20   C21   S    
C56   N12   A    
O1    Zn1   S    
C1    O50   A    
C64   C84   A    
C108  C126  A    
C52   N7    A    
C96   O20   A    
C144  H23   S    
C142  H1    S    
C99   O24   A    
O23   Zn7   S    
C64   C73   A    
C53   C84   S    
C29   C120  S    
C43   C90   A    
C27   H37   S    
C31   C118  S    
C11   H4    S    
C24   C40   A    
C26   C33   S    
C9    H2    S    
C106  O30   A    
O34   Zn15  S    
O37   Zn9   S    
C25   C107  S    
C62   H65   S    
O39   Zn11  S    
C87   O11   A    
C91   O35   A    
C78   C79   S    
C79   O2    A    
C107  C125  A    
C74   C78   A    
C18   H10   S    
N1    N5    A    
C48   H58   S    
O34   Zn8   S    
O3    Zn5   S    
C50   C112  A    
C34   H44   S    
C86   O6    A    
C46   N4    A    
C20   H13   S    
C12   H5    S    
O12   Zn2   S    
C6    H67   S    
C119  C120  A    
C65   C74   A    
C102  O26   A    
C7    C132  A    
C57   O49   A    
C95   O19   A    
C99   O43   A    
O23   Zn14  S    
O24   Zn6   S    
O1    Zn3   S    
C93   C130  S    
C17   H27   S    
C18   H28   S    
C14   H6    S    
C66   H70   S    
C9    C135  A    
C10   C136  A    
Br2   C69   S    
C28   C121  S    
O23   Zn12  S    
C44   C101  A    
O23   Zn5   S    
C7    H71   S    
C100  O25   A    
C35   N16   A    
C55   N11   A    
O1    Zn16  S    
C63   C83   A    
C23   H16   S    
C103  O47   A    
O12   Zn9   S    
C18   C114  S    
O31   Zn10  S    
Br3   C70   S    
C7    C142  A    
O36   Zn10  S    
C10   H3    S    
O34   Zn13  S    
C97   C126  S    
C38   C47   A    
C58   N15   A    
C97   O37   A    
O8    Zn11  S    
C95   O39   A    
C87   O9    A    
O29   Zn5   S    
C30   C119  S    
C32   H42   S    
O2    Zn8   S    
C11   C137  A    
C44   H54   S    
C88   O13   A    
O34   Zn6   S    
O9    Zn12  S    
C59   C81   A    
C39   H49   S    
N6    N9    A    
C109  C113  A    
C110  C111  A    
C46   N2    A    
C91   O15   A    
C54   C90   S    
C117  C122  A    
O5    Zn1   S    
C34   C134  A    
C4    H45   S    
C68   C80   S    
C26   H18   S    
C34   C43   A    
C1    C77   S    
C57   O51   A    
C26   C124  S    
C18   C23   S    
C8    C16   A    
C19   C22   S    
C48   C112  A    
C61   C70   A    
C62   C82   A    
C94   O38   A    
O32   Zn11  S    
C63   C72   A    
C35   N3    A    
O40   Zn14  S    
O25   Zn7   S    
O49   Zn4   S    
O26   Zn8   S    
Br1   C67   S    
C33   H26   S    
O51   Zn2   S    
O6    Zn9   S    
N4    N15   A    
O38   Zn1   S    
C115  C132  A    
N8    N11   A    
C41   C50   A    
N12   N16   A    
C113  C130  A    
O48   Zn15  S    
C2    C38   A    
C55   N9    A    
C38   H48   S    
C25   H35   S    
O12   Zn11  S    
Br5   C72   S    
O27   Zn7   S    
C24   C42   A    
C19   H29   S    
C24   C88   S    
C119  C137  A    
C30   H40   S    
O7    Zn10  S    
C91   C132  S    
C102  C139  S    
C23   C108  S    
O30   Zn8   S    
C52   C83   S    
C21   H31   S    
O12   Zn4   S    
C22   H32   S    
C49   C123  A    
C31   H24   S    
C20   C111  S    
C3    C4    A    
C16   H8    S    
C22   C109  S    
C42   H52   S    
C98   C138  S    
O11   Zn14  S    
C45   H55   S    
C16   C141  A    
C29   H21   S    
C70   C76   A    
Br7   C74   S    
C6    C131  A    
C97   O21   A    
O21   Zn4   S    
Br6   C73   S    
C4    C129  A    
C39   C48   A    
C104  O48   A    
C100  O40   A    
C89   O33   A    
O43   Zn13  S    
C89   O14   A    
