data_mof_unit_37536.cif
_audit_creation_date              2012-12-10T17:15:41-0500
_audit_creation_method            fapswitch 2.2
_symmetry_space_group_name_H-M    P1
_symmetry_Int_Tables_number       1
_space_group_crystal_system       triclinic
_cell_length_a                    17.384179
_cell_length_b                    13.005738
_cell_length_c                    11.763758
_cell_angle_alpha                 100.289023
_cell_angle_beta                  89.558608
_cell_angle_gamma                 92.053777
_cell_volume                      2615.26251137

loop_
_atom_site_label
_atom_site_type_symbol
_atom_type_description
_atom_site_fract_x
_atom_site_fract_y
_atom_site_fract_z
_atom_type_partial_charge
C1    C     C_R   0.501249 0.299295 0.477912 0.837353
C2    C     C_R   0.498514 0.700591 0.522021 0.841579
C3    C     C_R   0.493601 0.814021 0.535392 -0.113542
C4    C     C_R   0.505448 0.185613 0.464186 -0.114089
C5    C     C_R   0.544041 0.017284 0.358298 0.235450
C6    C     C_R   0.453383 0.981804 0.640259 0.235428
C7    C     C_R   0.539655 0.125897 0.366521 0.105157
C8    C     C_R   0.457570 0.873092 0.631609 0.108610
C9    C     C_R   0.476901 0.137511 0.553327 -0.313895
C10   C     C_R   0.522494 0.862223 0.446627 -0.314189
C11   C     C_R   0.481974 0.030066 0.548731 0.038189
C12   C     C_R   0.516481 0.969403 0.450604 0.040350
C13   C     C_R   0.419901 0.410246 0.032171 0.008143
C14   C     C_R   0.579671 0.590604 0.968055 0.009034
C15   C     C_R   0.431165 0.413911 0.152052 0.376130
C16   C     C_R   0.567838 0.587563 0.848386 0.373624
C17   C     C_R   0.532781 0.541427 0.154966 0.313840
C18   C     C_R   0.467962 0.457638 0.845033 0.306867
C19   C     C_R   0.528941 0.533364 0.031231 -0.098728
C20   C     C_R   0.471269 0.466566 0.968904 -0.096138
C21   C     C_R   0.350588 0.502531 0.515943 0.840244
C22   C     C_R   0.649463 0.499500 0.484288 0.830337
C23   C     C_R   0.265693 0.505000 0.524727 -0.128668
C24   C     C_R   0.734341 0.508198 0.476384 -0.126299
C25   C     C_R   0.223729 0.494052 0.421677 -0.320140
C26   C     C_R   0.775867 0.533522 0.579704 -0.312824
C27   C     C_R   0.143859 0.489592 0.421770 0.133481
C28   C     C_R   0.854679 0.554122 0.579747 0.129148
C29   C     C_R   0.104021 0.500129 0.527154 0.070683
C30   C     C_R   0.894320 0.546696 0.474400 0.077081
C31   C     C_R   0.144333 0.513837 0.632462 0.176360
C32   C     C_R   0.854373 0.521242 0.368884 0.187201
C33   C     C_R   0.225741 0.516094 0.631755 0.182436
C34   C     C_R   0.774172 0.498519 0.369420 0.180475
C35   C     C_2   0.019688 0.494542 0.528518 -0.109453
C36   C     C_2   0.978632 0.555655 0.473758 -0.111872
Cu1   Cu    Cu3+1 0.505800 0.507690 0.615350 0.981826
Cu2   Cu    Cu3+1 0.494200 0.492310 0.384650 0.987719
H1    H     H_    0.252659 0.487412 0.339195 0.168297
H2    H     H_    0.747376 0.538057 0.662104 0.168336
H3    H     H_    0.007136 0.607843 0.423042 0.165706
H4    H     H_    0.991104 0.442588 0.579638 0.167631
H5    H     H_    0.549506 0.814435 0.373992 0.176891
H6    H     H_    0.450732 0.185493 0.626591 0.178243
N1    N     N_R   0.514530 0.519260 0.788680 -0.209057
N2    N     N_R   0.485470 0.480740 0.211320 -0.204766
O1    O     O_R   0.504120 0.354440 0.581590 -0.574528
O2    O     O_R   0.495880 0.645560 0.418410 -0.578056
O3    O     O_R   0.494320 0.341440 0.386760 -0.531347
O4    O     O_R   0.505680 0.658560 0.613240 -0.534546
O5    O     O_R   0.391870 0.507230 0.608700 -0.538064
O6    O     O_R   0.608130 0.492770 0.391300 -0.530679
O7    O     O_R   0.382070 0.494240 0.413880 -0.588679
O8    O     O_R   0.617930 0.505760 0.586120 -0.586715
N3    N     N_2   0.615062 0.651479 0.787823 -0.368117
H7    H     H_    0.672455 0.634897 0.787756 0.218714
C37   C     C_3   0.602746 0.763012 0.813666 -0.671148
H8    H     H_    0.597865 0.793496 0.731999 0.247433
H9    H     H_    0.652754 0.804962 0.861518 0.187780
H10   H     H_    0.549924 0.781061 0.866111 0.211579
N4    N     N_2   0.382164 0.352853 0.213532 -0.368911
H11   H     H_    0.325492 0.373572 0.216224 0.220453
C38   C     C_3   0.390841 0.240540 0.188571 -0.670400
H12   H     H_    0.396308 0.210728 0.270582 0.246574
H13   H     H_    0.442144 0.218880 0.133837 0.211878
H14   H     H_    0.338981 0.201247 0.143347 0.188615
N5    N     N_3   0.353732 0.353990 0.977270 -0.640892
H15   H     H_    0.358196 0.274343 0.977786 0.230265
H16   H     H_    0.303970 0.381296 0.021308 0.213521
N6    N     N_3   0.645426 0.647956 0.022942 -0.642410
H17   H     H_    0.695415 0.621520 0.978947 0.212942
H18   H     H_    0.640203 0.727514 0.022688 0.230564
N7    N     N_2   0.734187 0.463636 0.263545 -0.420016
H19   H     H_    0.753658 0.495930 0.194365 0.248624
C39   C     C_3   0.721965 0.351538 0.234741 -0.661022
H20   H     H_    0.777477 0.313188 0.212069 0.200432
H21   H     H_    0.682341 0.332049 0.159793 0.232537
H22   H     H_    0.695742 0.321089 0.308920 0.239415
N8    N     N_2   0.267050 0.531294 0.737868 -0.418625
H23   H     H_    0.248237 0.487293 0.797890 0.232164
C40   C     C_3   0.290164 0.638065 0.786445 -0.625592
H24   H     H_    0.259122 0.663799 0.868910 0.195704
H25   H     H_    0.277975 0.692474 0.726437 0.215604
H26   H     H_    0.352812 0.642264 0.804915 0.253916
N9    N     N_2   0.102088 0.528188 0.738314 -0.432726
H27   H     H_    0.123481 0.493034 0.802591 0.243494
C41   C     C_3   0.078874 0.634136 0.779414 -0.660080
H28   H     H_    0.129924 0.686470 0.805113 0.218094
H29   H     H_    0.040538 0.635692 0.855583 0.220985
H30   H     H_    0.046919 0.664058 0.711457 0.252442
N10   N     N_2   0.896356 0.511823 0.263132 -0.418195
H31   H     H_    0.880046 0.448468 0.201215 0.258062
C42   C     C_3   0.905165 0.607872 0.217667 -0.726201
H32   H     H_    0.848416 0.632910 0.191922 0.216806
H33   H     H_    0.943271 0.595243 0.140615 0.230240
H34   H     H_    0.931653 0.671144 0.283046 0.230033
N11   N     N_3   0.894427 0.584221 0.687530 -0.599592
H35   H     H_    0.869759 0.651682 0.732746 0.213745
H36   H     H_    0.885529 0.524705 0.735850 0.218347
N12   N     N_3   0.103219 0.470870 0.314011 -0.578713
H37   H     H_    0.119066 0.530541 0.268637 0.213019
H38   H     H_    0.121121 0.400245 0.265847 0.216144
N13   N     N_3   0.420435 0.821689 0.716442 -0.581585
H39   H     H_    0.362148 0.838959 0.718093 0.217629
H40   H     H_    0.443290 0.852956 0.797536 0.231115
N14   N     N_3   0.574318 0.176281 0.278951 -0.576553
H41   H     H_    0.632281 0.157247 0.272522 0.219106
H42   H     H_    0.548543 0.145277 0.199836 0.232109
N15   N     N_2   0.578005 0.958717 0.257501 -0.445249
H43   H     H_    0.620024 0.908922 0.272688 0.244516
C43   C     C_3   0.523698 0.912755 0.168570 -0.731766
H44   H     H_    0.486990 0.851129 0.198447 0.231297
H45   H     H_    0.555443 0.877106 0.090009 0.222147
H46   H     H_    0.486449 0.973452 0.145266 0.234235
N16   N     N_2   0.418290 0.039984 0.740274 -0.444930
H47   H     H_    0.377327 0.090916 0.724214 0.244615
C44   C     C_3   0.471513 0.084071 0.831523 -0.732241
H48   H     H_    0.509867 0.145036 0.803531 0.230963
H49   H     H_    0.507197 0.022197 0.855770 0.234668
H50   H     H_    0.438853 0.120076 0.909011 0.221660
N17   N     N_3   0.419896 0.380211 0.775113 -0.516550
H51   H     H_    0.362312 0.397924 0.788824 0.249677
H52   H     H_    0.430554 0.306931 0.794993 0.207773
N18   N     N_3   0.582616 0.616512 0.224883 -0.514308
H53   H     H_    0.572482 0.690885 0.207675 0.207840
H54   H     H_    0.639803 0.597384 0.208693 0.250772

loop_
_geom_bond_atom_site_label_1
_geom_bond_atom_site_label_2
_ccdc_geom_bond_type
C28   N11   S    
C21   O7    A    
C41   H28   S    
C38   H13   S    
C42   H32   S    
C31   N9    S    
C27   C29   A    
C14   N6    S    
N7    H19   S    
C35   C36   D    
N3    H7    S    
N11   H35   S    
C22   O8    A    
Cu2   O3    S    
N9    H27   S    
C6    C11   A    
N14   H42   S    
N18   H54   S    
C24   C26   A    
N15   C43   S    
Cu1   O5    S    
C37   H9    S    
C32   N10   S    
Cu2   O6    S    
N14   H41   S    
N16   H47   S    
C18   C20   A    
N4    C38   S    
C35   H4    S    
C2    O4    A    
C40   H25   S    
C19   C20   A    
C23   C33   A    
C31   C33   A    
N6    H17   S    
Cu1   O1    S    
Cu2   O2    S    
C13   C20   A    
C8    N13   S    
C38   H14   S    
C42   H33   S    
N7    C39   S    
C36   H3    S    
C4    C7    A    
N11   H36   S    
C40   H24   S    
N9    C41   S    
C21   C23   S    
C27   N12   S    
Cu2   N2    S    
N5    H15   S    
C17   N2    A    
C5    C12   A    
C43   H45   S    
C3    C8    A    
C44   H50   S    
N10   H31   S    
C5    C7    A    
C1    O1    A    
C37   H10   S    
C6    C8    A    
C18   N17   S    
N16   C44   S    
C24   C34   A    
N8    H23   S    
N5    H16   S    
C32   C34   A    
C39   H20   S    
Cu1   Cu2   S    
N10   C42   S    
C9    C11   A    
C17   N18   S    
N12   H38   S    
C15   N4    S    
C7    N14   S    
N13   H40   S    
N3    C37   S    
C39   H21   S    
N17   H51   S    
C10   C12   A    
Cu1   O8    S    
C42   H34   S    
C13   C15   A    
C14   C16   A    
Cu1   N1    S    
C18   N1    A    
C21   O5    A    
C40   H26   S    
C22   O6    A    
C13   N5    S    
C9    H6    S    
C43   H44   S    
C10   H5    S    
C26   C28   A    
C14   C19   A    
C33   N8    S    
C16   N1    A    
C11   C12   A    
C25   C27   A    
C29   C35   S    
N8    C40   S    
C30   C36   S    
C1    C4    S    
C2    O2    A    
C44   H49   S    
C2    C3    S    
C16   N3    S    
C29   C31   A    
C3    C10   A    
N15   H43   S    
C25   H1    S    
C30   C32   A    
Cu1   O4    S    
C26   H2    S    
C37   H8    S    
Cu2   O7    S    
C5    N15   S    
C28   C30   A    
N12   H37   S    
C17   C19   A    
C43   H46   S    
C22   C24   S    
C23   C25   A    
N4    H11   S    
C39   H22   S    
C6    N16   S    
N17   H52   S    
C34   N7    S    
C38   H12   S    
C41   H30   S    
N13   H39   S    
C41   H29   S    
N6    H18   S    
C15   N2    A    
C4    C9    A    
C44   H48   S    
C1    O3    A    
N18   H53   S    
