data_mof_unit_20694.cif
_audit_creation_date              2013-03-05T16:02:03-0500
_audit_creation_method            fapswitch 2.2
_symmetry_space_group_name_H-M    P1
_symmetry_Int_Tables_number       1
_space_group_crystal_system       triclinic
_cell_length_a                    6.944733
_cell_length_b                    17.608889
_cell_length_c                    19.614569
_cell_angle_alpha                 108.285485
_cell_angle_beta                  89.65747
_cell_angle_gamma                 90.549584
_cell_volume                      2277.41107779

loop_
_atom_site_label
_atom_site_type_symbol
_atom_site_description
_atom_site_fract_x
_atom_site_fract_y
_atom_site_fract_z
_atom_type_partial_charge
O1    O     O_R   0.494330 0.415720 0.413720 -0.570523
O2    O     O_R   0.819330 0.430070 0.560210 -0.600375
O3    O     O_R   0.994320 0.584280 0.586280 -0.593744
C1    C     C_R   0.650411 0.414949 0.581590 0.934761
O4    O     O_R   0.823730 0.406300 0.412670 -0.607885
O5    O     O_R   0.998760 0.560340 0.437690 -0.585792
C2    C     C_R   0.654647 0.382695 0.385645 0.965862
O6    O     O_R   0.489890 0.439660 0.562310 -0.612931
O7    O     O_3   0.662340 0.550560 0.508380 -0.246885
V1    V     V_3+5 0.935370 0.490620 0.498450 1.211517
O8    O     O_R   0.328750 0.569930 0.439790 -0.547869
C3    C     C_R   0.161579 0.583210 0.416727 1.035607
O9    O     O_R   0.324340 0.593700 0.587330 -0.586662
C4    C     C_R   0.156015 0.618139 0.614074 0.953747
V2    V     V_3+5 0.435940 0.509380 0.501550 1.247091
O10   O     O_3   0.159100 0.449440 0.491620 -0.290414
C5    C     C_R   0.274256 0.600133 0.749919 -0.254318
C6    C     C_R   0.325078 0.588195 0.814426 0.233611
C7    C     C_R   0.309347 0.650186 0.878599 -0.062252
C8    C     C_R   0.244600 0.724979 0.879066 -0.162303
C9    C     C_R   0.191586 0.739102 0.814781 0.079132
C10   C     C_R   0.206147 0.675168 0.748554 0.095774
C11   C     C_R   0.111760 0.813539 0.816483 -0.226459
C12   C     C_R   0.033062 0.820698 0.752083 0.098884
C13   C     C_R   0.076752 0.762612 0.684932 0.012419
C14   C     C_R   0.151079 0.686909 0.682907 -0.226243
C15   C     C_R   0.913984 0.885417 0.752367 -0.345528
C16   C     C_R   0.852540 0.895930 0.688357 0.283055
C17   C     C_R   0.927044 0.847452 0.623035 0.271081
C18   C     C_R   0.050053 0.784313 0.621988 -0.013876
H1    H     H_    0.286739 0.549754 0.701453 0.140187
H2    H     H_    0.344714 0.639647 0.928463 0.196625
H3    H     H_    0.229590 0.770740 0.930515 0.148262
H4    H     H_    0.865340 0.928319 0.801736 0.178202
C19   C     C_R   0.303197 0.623239 0.313309 0.379034
C20   C     C_R   0.158643 0.631788 0.366595 -0.306259
C21   C     C_R   0.008190 0.685584 0.371011 -0.022911
C22   C     C_R   0.000565 0.732451 0.324998 0.113737
C23   C     C_R   0.145227 0.725575 0.272743 0.043552
C24   C     C_R   0.294759 0.668568 0.264590 -0.061375
C25   C     C_R   0.848499 0.785817 0.330473 -0.213829
C26   C     C_R   0.839551 0.834934 0.286386 0.325715
C27   C     C_R   0.982570 0.828248 0.232947 -0.039966
C28   C     C_R   0.135954 0.773887 0.226806 0.046338
C29   C     C_R   0.281587 0.768143 0.175055 0.034271
C30   C     C_R   0.425783 0.711065 0.166688 -0.232142
C31   C     C_R   0.425554 0.658214 0.206436 0.266341
C32   C     C_R   0.973532 0.872567 0.184146 -0.126562
C33   C     C_R   0.118214 0.867240 0.132519 -0.338633
C34   C     C_R   0.277838 0.817324 0.130519 0.323397
H5    H     H_    0.896308 0.690709 0.410749 0.196725
H6    H     H_    0.736855 0.790528 0.370335 0.221424
H7    H     H_    0.856324 0.913068 0.186678 0.212693
H8    H     H_    0.533877 0.702970 0.125208 0.200463
C35   C     C_R   0.778507 0.173801 0.857767 -0.068134
C36   C     C_R   0.618016 0.125470 0.860508 -0.203971
C37   C     C_R   0.463160 0.121403 0.812005 0.184239
C38   C     C_R   0.468021 0.168079 0.764548 0.068415
C39   C     C_R   0.626160 0.219582 0.766262 0.043464
C40   C     C_R   0.781633 0.222109 0.812922 0.138216
C41   C     C_R   0.320846 0.163326 0.714007 -0.168306
C42   C     C_R   0.327254 0.208773 0.667056 0.170582
C43   C     C_R   0.479688 0.263262 0.671069 0.075951
C44   C     C_R   0.631305 0.267558 0.720124 0.056883
C45   C     C_R   0.789990 0.319090 0.722455 0.184940
C46   C     C_R   0.942557 0.321373 0.769573 -0.168240
C47   C     C_R   0.939207 0.272929 0.813950 -0.125462
C48   C     C_R   0.485873 0.312875 0.626949 -0.188477
C49   C     C_R   0.642618 0.364574 0.629547 -0.138144
C50   C     C_R   0.795112 0.366735 0.676967 -0.162359
H9    H     H_    0.902669 0.174316 0.890623 0.195984
H10   H     H_    0.198724 0.123762 0.709138 0.213957
H11   H     H_    0.370733 0.311243 0.589656 0.153948
H12   H     H_    0.917329 0.406179 0.678962 0.135187
H13   H     H_    0.065957 0.359925 0.771374 0.166672
H14   H     H_    0.060102 0.275375 0.849291 0.173261
H15   H     H_    0.308455 0.153300 0.420740 0.163092
C51   C     C_R   0.834493 0.394478 0.256815 -0.244108
C52   C     C_R   0.927442 0.404498 0.197151 0.246279
C53   C     C_R   0.912022 0.345123 0.131250 0.189085
C54   C     C_R   0.803876 0.275690 0.125143 0.193334
C55   C     C_R   0.719673 0.260824 0.186445 -0.065894
C56   C     C_R   0.734057 0.323182 0.253687 0.067165
C57   C     C_R   0.620807 0.187474 0.182823 -0.254978
C58   C     C_R   0.536185 0.179186 0.246538 0.104523
C59   C     C_R   0.546617 0.243061 0.312751 0.111178
C60   C     C_R   0.644848 0.315188 0.316412 -0.221076
C61   C     C_R   0.444306 0.106760 0.246268 -0.178782
C62   C     C_R   0.361891 0.098167 0.308355 -0.000144
C63   C     C_R   0.371075 0.160573 0.372479 -0.054891
C64   C     C_R   0.463257 0.231987 0.375085 -0.184970
H16   H     H_    0.842578 0.444213 0.305746 0.205256
H17   H     H_    0.436544 0.055286 0.198568 0.137675
H18   H     H_    0.292208 0.042360 0.306786 0.162023
H19   H     H_    0.470500 0.277735 0.426857 0.113775
O11   O     O_R   0.775200 0.060470 0.937800 -0.573213
O12   O     O_R   0.441110 0.093720 0.087350 -0.587686
O13   O     O_R   0.266330 0.939630 0.062280 -0.576747
C65   C     C_R   0.610346 0.117856 0.114501 1.007289
O14   O     O_R   0.445750 0.069950 0.939820 -0.565280
O15   O     O_R   0.271000 0.915700 0.913700 -0.589290
C66   C     C_R   0.613392 0.079868 0.913796 1.058406
O16   O     O_R   0.770530 0.084400 0.086380 -0.584597
O17   O     O_3   0.602830 0.949510 0.991680 -0.248715
V3    V     V_3+5 0.329710 0.009370 0.001550 1.280793
O18   O     O_R   0.940990 0.906170 0.912570 -0.610227
C67   C     C_R   0.108487 0.883037 0.884878 0.944162
O19   O     O_R   0.936350 0.929940 0.060100 -0.561703
C68   C     C_R   0.105244 0.915754 0.082472 0.957948
V4    V     V_3+5 0.829160 0.990450 0.998310 1.274139
O20   O     O_3   0.105910 0.050480 0.008320 -0.234106
N1    N     N_R   0.889128 0.865997 0.558422 0.271733
O21   O     O_R   0.925050 0.937247 0.554686 -0.268380
O22   O     O_R   0.795764 0.814775 0.506692 -0.398135
N2    N     N_R   0.687443 0.892547 0.298366 0.243992
O23   O     O_R   0.728365 0.967226 0.306899 -0.396146
O24   O     O_R   0.516087 0.874317 0.315816 -0.394920
N3    N     N_R   0.439828 0.818548 0.085262 0.228349
O25   O     O_R   0.469826 0.759494 0.027005 -0.451428
O26   O     O_R   0.571585 0.873439 0.107755 -0.399746
I1    I     I_    0.596751 0.556316 0.156937 -0.064102
I2    I     I_    0.232127 0.038251 0.803573 -0.328766
I3    I     I_    0.105514 0.186507 0.588553 -0.325745
N4    N     N_R   0.023911 0.478456 0.203045 0.256706
O27   O     O_R   0.170760 0.481378 0.162570 -0.317286
O28   O     O_R   0.954043 0.544641 0.245121 -0.394144
N5    N     N_R   0.989777 0.358387 0.068028 0.289313
O29   O     O_R   0.881756 0.387823 0.028694 -0.299937
O30   O     O_R   0.163513 0.335195 0.046782 -0.280561
N6    N     N_R   0.771234 0.224499 0.054467 0.220327
O31   O     O_R   0.611072 0.231928 0.023231 -0.387451
O32   O     O_R   0.920899 0.194395 0.015771 -0.379468
I4    I     I_    0.422564 0.475862 0.816045 -0.399542
N7    N     N_R   0.729628 0.961196 0.690355 0.253142
O33   O     O_R   0.568409 0.947860 0.654966 -0.314891
O34   O     O_R   0.797410 0.033722 0.714087 -0.390080
I5    I     I_    0.270947 0.760282 0.542778 -0.222716
N8    N     N_R   0.456449 0.568331 0.309246 0.241415
O35   O     O_R   0.623291 0.595452 0.336124 -0.395363
O36   O     O_R   0.419964 0.491996 0.291697 -0.388266

loop_
_geom_bond_atom_site_label_1
_geom_bond_atom_site_label_2
_geom_bond_distance
_ccdc_geom_bond_type
O15   C67   1.309703 A    
C24   C31   1.421175 A    
C56   C60   1.419580 A    
C35   C36   1.406857 A    
O11   C66   1.309843 A    
C25   C26   1.403816 A    
C17   N1    1.430916 S    
C65   O16   1.300056 A    
C7    C8    1.393057 A    
C12   C15   1.413037 A    
C1    O6    1.301028 A    
N1    O22   1.298405 A    
C54   C55   1.429142 A    
C37   C38   1.422086 A    
C58   C59   1.428269 A    
C36   C37   1.426459 A    
C39   C44   1.418722 A    
C21   C22   1.402586 A    
O13   V3    2.005508 S    
O16   V4    2.024349 S    
C16   N7    1.428673 S    
N4    O28   1.295120 A    
C20   C21   1.401076 A    
C59   C64   1.416696 A    
C19   N8    1.429789 S    
O5    C3    1.303616 A    
C22   C23   1.409479 A    
C21   H5    1.081367 S    
C31   I1    2.123592 S    
O18   C67   1.294891 A    
C46   H13   1.081975 S    
N2    O23   1.301275 A    
O19   C68   1.308150 A    
C6    I4    2.106520 S    
C6    C7    1.387926 A    
C62   H18   1.083020 S    
N3    O25   1.298531 A    
C1    C49   1.482125 S    
C37   I2    2.133480 S    
V4    O20   2.164519 S    
O8    V2    1.998735 S    
C51   C56   1.414839 A    
C2    C60   1.499464 S    
C19   C20   1.419331 A    
C40   C47   1.403169 A    
C48   C49   1.403159 A    
N2    O24   1.301196 A    
C50   H12   1.084617 S    
C11   C12   1.421161 A    
O1    V2    2.018391 S    
C3    C20   1.492468 S    
C27   C32   1.414091 A    
C25   H6    1.082887 S    
O12   V3    2.015414 S    
C61   C62   1.392536 A    
C38   C41   1.411679 A    
C46   C47   1.396843 A    
V3    O20   1.707659 S    
C39   C40   1.410926 A    
O13   C68   1.294327 A    
O1    C2    1.298127 A    
O9    C4    1.299047 A    
C41   C42   1.397069 A    
C7    H2    1.081205 S    
O7    V1    2.156899 S    
C42   I3    2.129316 S    
O12   C65   1.304392 A    
C9    C10   1.431102 A    
C15   H4    1.079101 S    
O15   V3    2.016945 S    
C32   H7    1.077995 S    
H15   C63   1.082456 S    
C57   C58   1.425681 A    
C12   C13   1.424394 A    
C22   C25   1.401491 A    
C23   C24   1.424409 A    
O4    C2    1.300925 A    
C61   H17   1.080444 S    
C59   C60   1.417878 A    
N7    O34   1.298964 A    
C51   H16   1.078682 S    
C48   H11   1.081043 S    
C29   C30   1.397776 A    
O11   V4    2.000449 S    
C52   C53   1.388130 A    
C45   C50   1.403558 A    
N6    O32   1.298493 A    
C27   C28   1.418156 A    
N5    O30   1.301105 A    
C17   C18   1.403562 A    
C11   C67   1.505933 S    
C30   H8    1.080644 S    
C42   C43   1.407700 A    
O14   C66   1.300550 A    
C5    C6    1.394040 A    
O14   V3    2.008923 S    
C4    C14   1.504921 S    
C23   C28   1.422139 A    
O3    C4    1.305433 A    
N8    O36   1.301404 A    
C8    H3    1.081035 S    
C41   H10   1.077792 S    
C32   C33   1.404940 A    
C55   C56   1.430386 A    
O6    V2    2.000059 S    
C55   C57   1.438988 A    
C9    C11   1.418737 A    
C5    H1    1.081440 S    
C38   C39   1.411358 A    
C26   C27   1.418234 A    
N5    O29   1.300773 A    
O2    V1    2.008993 S    
C28   C29   1.410234 A    
C33   C68   1.493429 S    
O18   V4    2.018484 S    
C58   C61   1.419099 A    
C13   C18   1.415930 A    
C30   C31   1.388947 A    
C16   C17   1.397234 A    
C34   N3    1.433049 S    
C57   C65   1.507510 S    
C53   C54   1.401718 A    
O17   V3    2.156872 S    
O5    V1    2.005704 S    
O8    C3    1.298077 A    
N7    O33   1.300958 A    
C53   N5    1.433603 S    
C52   N4    1.431060 S    
C43   C48   1.409680 A    
C5    C10   1.415817 A    
C44   C45   1.412571 A    
O9    V2    2.018672 S    
C19   C24   1.426150 A    
C13   C14   1.422929 A    
C36   C66   1.504694 S    
O4    V1    2.015564 S    
O3    V1    2.016947 S    
V1    O10   1.707647 S    
O17   V4    1.711449 S    
C51   C52   1.391307 A    
C63   C64   1.392268 A    
C29   C34   1.410379 A    
O2    C1    1.296575 A    
O19   V4    1.998680 S    
N6    O31   1.300345 A    
N1    O21   1.301211 A    
C45   C46   1.402130 A    
O7    V2    1.713343 S    
C49   C50   1.406024 A    
N3    O26   1.298620 A    
N8    O35   1.298938 A    
C54   N6    1.414703 S    
C43   C44   1.416024 A    
C26   N2    1.438163 S    
C8    C9    1.411149 A    
C64   H19   1.081299 S    
C33   C34   1.414045 A    
C10   C14   1.421786 A    
C15   C16   1.395169 A    
C18   I5    2.125480 S    
C47   H14   1.083896 S    
C62   C63   1.387771 A    
C35   C40   1.402413 A    
C35   H9    1.077843 S    
V2    O10   2.164446 S    
N4    O27   1.299200 A    
