data_mof_unit_62083.cif
_audit_creation_date              2012-10-26T20:54:16-0400
_audit_creation_method            fapswitch 2.2
_symmetry_space_group_name_H-M    P1
_symmetry_Int_Tables_number       1
_space_group_crystal_system       triclinic
_cell_length_a                    16.537123
_cell_length_b                    16.235097
_cell_length_c                    17.738845
_cell_angle_alpha                 92.644379
_cell_angle_beta                  88.996842
_cell_angle_gamma                 86.757123
_cell_volume                      4748.90096839

loop_
_atom_site_label
_atom_site_type_symbol
_atom_type_description
_atom_site_fract_x
_atom_site_fract_y
_atom_site_fract_z
_atom_type_partial_charge
Br1   Br    Br    0.685990 0.630774 0.617321 -0.538548
Br2   Br    Br    0.647750 0.588735 0.089747 -0.495193
Br3   Br    Br    0.312933 0.371648 0.380392 -0.536130
Br4   Br    Br    0.696607 0.370919 0.381293 -0.456649
Br5   Br    Br    0.303650 0.625600 0.621634 -0.467462
Br6   Br    Br    0.319158 0.738281 0.436823 -0.501914
Br7   Br    Br    0.674992 0.253361 0.562341 -0.524807
Br8   Br    Br    0.557836 0.887796 0.266116 -0.440453
Br9   Br    Br    0.602865 0.082424 0.281580 -0.356225
Br10  Br    Br    0.404271 0.356609 0.903079 -0.509472
C1    C     C_R   0.500944 0.503265 0.355189 0.564809
C2    C     C_R   0.569197 0.540350 0.230356 0.015975
C3    C     C_R   0.453891 0.439537 0.845668 0.179073
C4    C     C_R   0.564140 0.543330 0.150660 0.184787
C5    C     C_R   0.491014 0.504057 0.884767 0.039749
C6    C     C_R   0.496019 0.514608 0.113822 0.043960
C7    C     C_1   0.490914 0.509307 0.965535 0.077481
C8    C     C_1   0.492147 0.512405 0.033187 0.078605
C9    C     C_R   0.826362 0.553038 0.547056 -0.127442
C10   C     C_R   0.173252 0.449150 0.451444 -0.125255
C11   C     C_R   0.741214 0.552909 0.547417 0.275070
C12   C     C_R   0.499255 0.497146 0.644250 0.556337
C13   C     C_R   0.258443 0.448461 0.451530 0.274282
C14   C     C_R   0.747304 0.445908 0.451315 0.292042
C15   C     C_R   0.252785 0.553832 0.549031 0.311536
C16   C     C_R   0.510331 0.346234 0.500665 0.572509
C17   C     C_R   0.489949 0.653653 0.497807 0.572728
C18   C     C_R   0.833985 0.443825 0.450455 -0.003003
C19   C     C_R   0.166049 0.557560 0.548700 0.000790
C20   C     C_R   0.873793 0.498986 0.498873 -0.022086
C21   C     C_R   0.126011 0.503212 0.499723 -0.021096
C22   C     C_1   0.962873 0.501110 0.499349 -0.022058
C23   C     C_R   0.530882 0.562862 0.845738 -0.125299
C24   C     C_1   0.036885 0.501677 0.499000 -0.022365
C25   C     C_R   0.516626 0.253790 0.491744 0.012798
C26   C     C_R   0.487822 0.744435 0.484340 0.013533
C27   C     C_R   0.450922 0.212875 0.461965 -0.147415
C28   C     C_R   0.559596 0.785444 0.495511 -0.156478
C29   C     C_R   0.461031 0.132069 0.431699 -0.124244
C30   C     C_R   0.570966 0.861273 0.464495 -0.146673
C31   C     C_R   0.536705 0.089049 0.431905 0.000256
C32   C     C_R   0.510473 0.899899 0.422457 0.001273
C33   C     C_R   0.599819 0.123422 0.473915 0.048838
C34   C     C_R   0.431866 0.485746 0.154658 -0.125092
C35   C     C_R   0.433053 0.866613 0.420111 0.043440
C36   C     C_R   0.589500 0.206204 0.504266 0.173514
C37   C     C_R   0.421851 0.787963 0.450339 0.166313
C38   C     C_2   0.556218 0.030733 0.366416 0.162108
C39   C     C_2   0.538388 0.950233 0.360308 0.143799
C40   C     C_3   0.883999 0.384351 0.396938 -0.235929
C41   C     C_3   0.897452 0.423025 0.320814 -0.299853
C42   C     C_3   0.947972 0.364278 0.266682 -0.419343
C43   C     C_3   0.116017 0.618491 0.600868 -0.236933
C44   C     C_3   0.097241 0.580054 0.676079 -0.297852
C45   C     C_R   0.533969 0.558504 0.767447 -0.113096
C46   C     C_3   0.045488 0.639978 0.728149 -0.425439
C47   C     C_3   0.678630 0.072845 0.483983 -0.226404
C48   C     C_3   0.679571 0.034548 0.561477 -0.308921
C49   C     C_3   0.757258 0.981241 0.571554 -0.431735
C50   C     C_3   0.363732 0.913688 0.382786 -0.225072
C51   C     C_3   0.306628 0.958115 0.442561 -0.305490
C52   C     C_3   0.237886 0.007598 0.406043 -0.435794
C53   C     C_3   0.418276 0.363550 0.723274 -0.248745
C54   C     C_3   0.482375 0.293289 0.704961 -0.287753
C55   C     C_3   0.444171 0.217027 0.670967 -0.436398
C56   C     C_R   0.434868 0.484029 0.232570 -0.116142
C57   C     C_3   0.643645 0.572242 0.269140 -0.233621
C58   C     C_3   0.625111 0.657475 0.308411 -0.271975
C59   C     C_3   0.697908 0.685740 0.352337 -0.420966
C60   C     C_R   0.496565 0.495774 0.726848 0.017671
C61   C     C_R   0.502872 0.509404 0.271794 0.008001
C62   C     C_R   0.455424 0.435214 0.765706 0.005933
Cu1   Cu    Cu3+1 0.580420 0.500000 0.499980 1.066504
Cu2   Cu    Cu3+1 0.419580 0.500000 0.500020 1.075699
H1    H     H_    0.392888 0.245392 0.456155 0.181359
H2    H     H_    0.383590 0.461385 0.262101 0.193557
H3    H     H_    0.008394 0.349458 0.290664 0.160343
H4    H     H_    0.916653 0.306252 0.255951 0.183589
H5    H     H_    0.956650 0.393911 0.212173 0.168917
H6    H     H_    0.838184 0.438502 0.294789 0.194902
H7    H     H_    0.929440 0.481028 0.329556 0.171713
H8    H     H_    0.943584 0.367239 0.421548 0.148829
H9    H     H_    0.854950 0.324739 0.388893 0.199010
H10   H     H_    0.077796 0.697058 0.740563 0.175919
H11   H     H_    0.986821 0.656403 0.701488 0.162228
H12   H     H_    0.610766 0.755247 0.522134 0.177665
H13   H     H_    0.033056 0.610559 0.782106 0.168656
H14   H     H_    0.064079 0.523071 0.665613 0.175657
H15   H     H_    0.154622 0.562969 0.704704 0.201384
H16   H     H_    0.147050 0.676699 0.610726 0.196583
H17   H     H_    0.058413 0.638116 0.573831 0.148822
H18   H     H_    0.762791 0.930037 0.527698 0.153055
H19   H     H_    0.810835 0.019222 0.567552 0.175684
H20   H     H_    0.756054 0.954300 0.627941 0.168772
H21   H     H_    0.674678 0.083687 0.607233 0.212220
H22   H     H_    0.626798 0.995713 0.567369 0.164726
H23   H     H_    0.855640 0.595876 0.584888 0.140694
H24   H     H_    0.687197 0.022313 0.439793 0.154455
H25   H     H_    0.731120 0.111776 0.477103 0.205377
H26   H     H_    0.262530 0.055302 0.370545 0.165973
H27   H     H_    0.201541 0.965995 0.370544 0.179939
H28   H     H_    0.197667 0.038919 0.450636 0.156779
H29   H     H_    0.280169 0.912742 0.479438 0.216756
H30   H     H_    0.341231 0.000896 0.478648 0.159866
H31   H     H_    0.386295 0.960766 0.345506 0.162556
H32   H     H_    0.330234 0.871373 0.345402 0.202909
H33   H     H_    0.403739 0.191020 0.713325 0.180588
H34   H     H_    0.143773 0.407110 0.412996 0.139865
H35   H     H_    0.408296 0.233124 0.620884 0.151941
H36   H     H_    0.492443 0.169316 0.653394 0.163360
H37   H     H_    0.527834 0.314244 0.664336 0.188862
H38   H     H_    0.514151 0.276128 0.757184 0.215539
H39   H     H_    0.367687 0.340239 0.756455 0.197452
H40   H     H_    0.389518 0.383101 0.670663 0.165536
H41   H     H_    0.711235 0.643999 0.398979 0.163692
H42   H     H_    0.752056 0.686081 0.314436 0.168381
H43   H     H_    0.684621 0.749308 0.376681 0.171485
H44   H     H_    0.609802 0.702784 0.265083 0.231925
H45   H     H_    0.630965 0.884641 0.465553 0.121197
H46   H     H_    0.572342 0.656421 0.347739 0.175246
H47   H     H_    0.669411 0.527310 0.308252 0.191166
H48   H     H_    0.694781 0.577391 0.228980 0.189600
H49   H     H_    0.412007 0.106909 0.399987 0.134088
H50   H     H_    0.559904 0.612263 0.876023 0.161313
H51   H     H_    0.379161 0.464059 0.126028 0.156302
H52   H     H_    0.564313 0.605492 0.738349 0.180960
N1    N     N_R   0.701220 0.499980 0.499970 -0.207188
N2    N     N_R   0.298780 0.500020 0.500030 -0.202295
O1    O     O_R   0.567930 0.499990 0.391240 -0.489157
O2    O     O_R   0.432070 0.500010 0.608760 -0.481407
O3    O     O_R   0.432120 0.500000 0.391270 -0.454999
O4    O     O_R   0.567880 0.500000 0.608730 -0.448430
O5    O     O_R   0.575780 0.386400 0.499970 -0.407247
O6    O     O_R   0.424220 0.613600 0.500030 -0.407695
O7    O     O_R   0.439960 0.386410 0.500000 -0.491535
O8    O     O_R   0.560040 0.613590 0.500000 -0.494029

loop_
_geom_bond_atom_site_label_1
_geom_bond_atom_site_label_2
_ccdc_geom_bond_type
C23   C45   A    
C44   H14   S    
C59   H42   S    
Br1   C11   S    
Cu1   Cu2   S    
Br3   C13   S    
C9    H23   S    
C35   C50   S    
C43   C44   S    
C28   H12   S    
C17   O8    A    
C51   H29   S    
C15   N2    A    
Br4   C14   S    
C1    C61   S    
C54   H38   S    
C47   H25   S    
C1    O1    A    
C29   H49   S    
C26   C37   A    
C48   H22   S    
C41   H6    S    
C16   O7    A    
C58   H44   S    
C53   H40   S    
C34   C56   A    
Cu2   N2    S    
C58   C59   S    
C43   H17   S    
C23   H50   S    
C10   C13   A    
C46   H10   S    
C49   H20   S    
C11   N1    A    
C42   H5    S    
C6    C34   A    
C52   H27   S    
C30   C32   A    
C27   H1    S    
Cu1   O4    S    
Cu2   O3    S    
C12   O2    A    
C31   C33   A    
C18   C40   S    
C42   H4    S    
C57   H47   S    
C12   C60   S    
C40   H9    S    
C40   C41   S    
Cu1   O1    S    
C35   C37   A    
C15   C19   A    
C27   C29   A    
C2    C57   S    
C44   C46   S    
C34   H51   S    
Br6   C37   S    
C41   C42   S    
C20   C22   S    
Br7   C36   S    
C51   H30   S    
C44   H15   S    
C29   C31   A    
C46   H13   S    
C48   C49   S    
Cu1   N1    S    
C57   C58   S    
C50   C51   S    
C32   C35   A    
C22   C24   T    
C48   H21   S    
C14   N1    A    
C56   C61   A    
C45   H52   S    
C56   H2    S    
Cu2   O7    S    
C7    C8    T    
C21   C24   S    
C55   H35   S    
C52   H26   S    
C38   C39   D    
C2    C61   A    
C2    C4    A    
Cu2   O2    S    
Br5   C15   S    
C42   H3    S    
C57   H48   S    
C50   H32   S    
C40   H8    S    
C25   C27   A    
C5    C7    S    
C41   H7    S    
C59   H41   S    
C12   O4    A    
C17   O6    A    
C14   C18   A    
Cu1   O5    S    
C54   H37   S    
Br10  C3    S    
C1    O3    A    
Cu1   O8    S    
C3    C62   A    
C17   C26   S    
C54   C55   S    
C3    C5    A    
C18   C20   A    
C19   C21   A    
C16   O5    A    
C58   H46   S    
C26   C28   A    
C28   C30   A    
C9    C20   A    
C46   H11   S    
C19   C43   S    
C47   H24   S    
Cu2   O6    S    
C59   H43   S    
C31   C38   S    
C55   H33   S    
C4    C6    A    
C49   H18   S    
C51   C52   S    
Br2   C4    S    
C33   C36   A    
C55   H36   S    
C45   C60   A    
C33   C47   S    
C32   C39   S    
C53   C54   S    
C53   H39   S    
C16   C25   S    
C30   H45   S    
C53   C62   S    
Br9   C38   S    
C6    C8    S    
C43   H16   S    
C60   C62   A    
C49   H19   S    
C52   H28   S    
C47   C48   S    
C25   C36   A    
Br8   C39   S    
C5    C23   A    
C50   H31   S    
C10   H34   S    
C13   N2    A    
C9    C11   A    
C10   C21   A    
