data_mof_unit_25473.cif
_audit_creation_date              2012-12-11T15:46:40-0500
_audit_creation_method            fapswitch 2.2
_symmetry_space_group_name_H-M    P1
_symmetry_Int_Tables_number       1
_space_group_crystal_system       triclinic
_cell_length_a                    11.542809
_cell_length_b                    11.541977
_cell_length_c                    19.557394
_cell_angle_alpha                 90.47138
_cell_angle_beta                  90.117053
_cell_angle_gamma                 60.013873
_cell_volume                      2256.72213362

loop_
_atom_site_label
_atom_site_type_symbol
_atom_type_description
_atom_site_fract_x
_atom_site_fract_y
_atom_site_fract_z
_atom_type_partial_charge
C1    C     C_R   0.640492 0.117205 0.599275 0.546823
C2    C     C_1   0.653145 0.149449 0.668650 0.003774
C3    C     C_R   0.653424 0.689962 0.187223 0.016790
C4    C     C_R   0.612505 0.745991 0.598646 0.546819
C5    C     C_R   0.530334 0.736829 0.220016 0.004523
C6    C     C_R   0.524243 0.743228 0.289632 0.078825
C7    C     C_R   0.753894 0.688051 0.296623 -0.173516
C8    C     C_R   0.760717 0.682385 0.225221 -0.169220
C9    C     C_3   0.420675 0.702418 0.216026 -0.218849
C10   C     C_3   0.415601 0.708882 0.293615 -0.038102
C11   C     C_R   0.636970 0.709059 0.329625 0.042825
C12   C     C_1   0.641337 0.703926 0.668016 0.004101
C13   C     C_R   0.155413 0.188134 0.188867 0.016936
C14   C     C_R   0.204362 0.261615 0.222520 0.015944
C15   C     C_R   0.227144 0.247370 0.291611 0.041447
C16   C     C_R   0.241132 0.145189 0.598215 0.547118
C17   C     C_R   0.172765 0.071564 0.295206 -0.165793
C18   C     C_R   0.150227 0.084935 0.224665 -0.156230
C19   C     C_3   0.150290 0.409406 0.226483 -0.271534
C20   C     C_3   0.172858 0.393849 0.302726 -0.266717
C21   C     C_R   0.204576 0.158444 0.329811 0.021356
C22   C     C_R   0.688298 0.194372 0.198969 0.016485
C23   C     C_1   0.126560 0.198942 0.859277 0.003795
C24   C     C_R   0.798322 0.098570 0.235871 0.041725
C25   C     C_R   0.791145 0.082224 0.304720 0.018704
C26   C     C_R   0.565270 0.268171 0.305213 -0.129476
C27   C     C_R   0.574156 0.286625 0.235191 -0.141749
C28   C     C_R   0.645313 0.113227 0.403089 0.545748
C29   C     C_3   0.884623 0.951824 0.222889 -0.269269
C30   C     C_3   0.878852 0.933639 0.299023 -0.272821
C31   C     C_R   0.670844 0.159383 0.339346 0.016663
C32   C     C_R   0.081637 0.231274 0.928568 0.546236
C33   C     C_R   0.683927 0.604388 0.929493 0.544254
C34   C     C_1   0.171589 0.170223 0.727720 -0.030692
C35   C     C_R   0.708400 0.206742 0.930122 0.546323
C36   C     C_R   0.084342 0.234999 0.124762 0.549452
C37   C     C_R   0.680970 0.615975 0.123915 0.552923
C38   C     C_R   0.710330 0.212362 0.127944 0.545334
C39   C     C_R   0.615228 0.741639 0.401365 0.541207
C40   C     C_R   0.245865 0.140026 0.400735 0.543905
C41   C     C_1   0.670349 0.646429 0.860124 0.004697
C42   C     C_1   0.654836 0.683692 0.728446 -0.031133
C43   C     C_1   0.663437 0.666652 0.799696 -0.031012
C44   C     C_1   0.150091 0.182366 0.798941 -0.030740
C45   C     C_1   0.195450 0.160766 0.667405 0.003830
C46   C     C_1   0.678547 0.191392 0.860760 0.003841
C47   C     C_1   0.658678 0.167081 0.729029 -0.030789
C48   C     C_1   0.665693 0.180927 0.800323 -0.030660
Cr1   Cr    Cr6+3 0.404720 0.198220 0.499960 1.022902
Cr2   Cr    Cr6+3 0.698290 0.897110 0.500380 1.024020
Cr3   Cr    Cr6+3 0.396970 0.904720 0.499610 1.021146
Cr4   Cr    Cr6+3 0.926290 0.152010 0.028150 1.024058
Cr5   Cr    Cr6+3 0.921440 0.451830 0.027490 1.023461
Cr6   Cr    Cr6+3 0.626370 0.446880 0.028730 1.022920
H1    H     H_    0.840288 0.672543 0.325758 0.116568
H2    H     H_    0.976717 0.897512 0.324893 0.128507
H3    H     H_    0.853518 0.659153 0.200514 0.122069
H4    H     H_    0.452365 0.600710 0.195756 0.183677
H5    H     H_    0.328648 0.783540 0.192117 0.097786
H6    H     H_    0.320518 0.789013 0.315500 0.129802
H7    H     H_    0.157881 0.999575 0.323053 0.111653
H8    H     H_    0.116690 0.023125 0.199725 0.128288
H9    H     H_    0.043026 0.467862 0.213266 0.158714
H10   H     H_    0.381674 0.558077 0.316098 0.203446
H11   H     H_    0.467738 0.585228 0.376209 0.257053
H12   H     H_    0.215951 0.439935 0.200107 0.128749
H13   H     H_    0.249296 0.418206 0.320726 0.127232
H14   H     H_    0.078345 0.441452 0.332868 0.138165
H15   H     H_    0.472262 0.331705 0.331353 0.132984
H16   H     H_    0.490446 0.368006 0.209245 0.121582
H17   H     H_    0.986241 0.923874 0.204561 0.131241
H18   H     H_    0.832991 0.909504 0.192256 0.140198
H19   H     H_    0.825867 0.879037 0.311961 0.162748
N1    N     N_3   0.459856 0.577898 0.323361 -0.630117
O1    O     O_R   0.267750 0.231960 0.575440 -0.505060
O2    O     O_R   0.596230 0.579400 0.952760 -0.506145
O3    O     O_R   0.639160 0.321170 0.958690 -0.493629
O4    O     O_R   0.527290 0.186640 0.570530 -0.494435
O5    O     O_R   0.821370 0.124220 0.104400 -0.519210
O6    O     O_R   0.037020 0.167050 0.097880 -0.508484
O7    O     O_R   0.056310 0.349620 0.102920 -0.520335
O8    O     O_R   0.797790 0.564880 0.097980 -0.508836
O9    O     O_R   0.596000 0.584270 0.104310 -0.526984
O10   O     O_R   0.638950 0.325690 0.099180 -0.505572
O11   O     O_3   0.824700 0.350240 0.028120 -0.251671
O12   O     O_R   0.685950 0.784660 0.430010 -0.509648
O13   O     O_R   0.728110 0.003450 0.576380 -0.504396
O14   O     O_R   0.682980 0.789190 0.570500 -0.493029
O15   O     O_R   0.499300 0.771880 0.575540 -0.505474
O16   O     O_R   0.285350 0.030870 0.569740 -0.493339
O17   O     O_R   0.270960 0.227070 0.423890 -0.519136
O18   O     O_R   0.530270 0.182120 0.430040 -0.509632
O19   O     O_R   0.731320 0.998570 0.424830 -0.520143
O20   O     O_R   0.502510 0.767000 0.423980 -0.527460
O21   O     O_R   0.288320 0.026340 0.429250 -0.506396
O22   O     O_3   0.499990 0.000020 0.499980 -0.253460
O23   O     O_R   0.821590 0.119350 0.952850 -0.505505
O24   O     O_R   0.037230 0.162540 0.957390 -0.494905
O25   O     O_R   0.056530 0.344750 0.951370 -0.504942
O26   O     O_R   0.798000 0.560370 0.957490 -0.495127

loop_
_geom_bond_atom_site_label_1
_geom_bond_atom_site_label_2
_ccdc_geom_bond_type
C25   C31   A    
C1    O13   A    
C16   O1    A    
C20   H13   S    
C19   C20   S    
C7    H1    S    
Cr6   O10   S    
C7    C8    A    
Cr5   O25   S    
C7    C11   A    
C26   C27   A    
C13   C18   A    
C16   O16   A    
Cr4   O11   S    
C9    H4    S    
Cr3   O16   S    
C5    C6    A    
C38   O5    A    
C22   C38   S    
Cr4   O23   S    
Cr1   O4    S    
C19   H12   S    
Cr5   O7    S    
C1    C2    S    
C24   C29   S    
C12   C42   T    
C17   H7    S    
C19   H9    S    
Cr1   O1    S    
C4    C12   S    
Cr4   O5    S    
C9    C10   S    
Cr2   O14   S    
Cr3   O22   S    
Cr6   O3    S    
C26   C31   A    
Cr1   O22   S    
C13   C14   A    
C1    O4    A    
C41   C43   T    
Cr1   O17   S    
Cr6   O9    S    
Cr5   O26   S    
C15   C20   S    
C23   C44   T    
C46   C48   T    
C34   C44   S    
C24   C25   A    
C13   C36   S    
C3    C8    A    
C36   O6    A    
C6    C11   A    
C30   H19   S    
C18   H8    S    
C30   H2    S    
C35   O3    A    
C17   C21   A    
H11   N1    S    
C28   O19   A    
C9    H5    S    
C10   H6    S    
C39   O20   A    
C5    C9    S    
C29   C30   S    
C8    H3    S    
C33   O2    A    
C47   C48   S    
C36   O7    A    
C17   C18   A    
C28   O18   A    
C34   C45   T    
C11   C39   S    
C27   H16   S    
Cr2   O13   S    
Cr6   O2    S    
C22   C27   A    
C22   C24   A    
C37   O8    A    
C42   C43   S    
Cr1   O18   S    
C4    O15   A    
C25   C30   S    
C38   O10   A    
C14   C19   S    
C20   H14   S    
C28   C31   S    
C37   O9    A    
C3    C5    A    
C16   C45   S    
C6    C10   S    
Cr6   O11   S    
Cr2   O19   S    
C4    O14   A    
C2    C47   T    
C32   O25   A    
C33   O26   A    
C33   C41   S    
C23   C32   S    
C29   H18   S    
Cr4   O6    S    
Cr3   O15   S    
C10   N1    S    
Cr2   O22   S    
C21   C40   S    
Cr4   O24   S    
C32   O24   A    
C40   O17   A    
Cr2   O12   S    
Cr3   O20   S    
C15   C21   A    
C3    C37   S    
C26   H15   S    
H10   N1    S    
C14   C15   A    
Cr5   O8    S    
Cr5   O11   S    
C40   O21   A    
C39   O12   A    
C35   O23   A    
C35   C46   S    
Cr3   O21   S    
C29   H17   S    
