data_mof_unit_7506.cif
_audit_creation_date              2012-12-11T17:07:50-0500
_audit_creation_method            fapswitch 2.2
_symmetry_space_group_name_H-M    P1
_symmetry_Int_Tables_number       1
_space_group_crystal_system       triclinic
_cell_length_a                    17.246726
_cell_length_b                    17.141061
_cell_length_c                    17.338709
_cell_angle_alpha                 90.000338
_cell_angle_beta                  89.768855
_cell_angle_gamma                 90.000043
_cell_volume                      5125.75197696

loop_
_atom_site_label
_atom_site_type_symbol
_atom_type_description
_atom_site_fract_x
_atom_site_fract_y
_atom_site_fract_z
_atom_type_partial_charge
C1    C     C_R   0.415063 0.323050 0.862132 -0.079403
C2    C     C_R   0.197764 0.894211 0.399228 -0.156666
C3    C     C_R   0.789956 0.865948 0.186275 -0.145324
C4    C     C_R   0.242552 0.317576 0.636227 -0.092316
C5    C     C_R   0.211817 0.862129 0.810901 -0.137453
C6    C     C_R   0.862049 0.788243 0.810662 -0.149817
C7    C     C_R   0.683030 0.242689 0.636566 -0.084797
C8    C     C_R   0.637950 0.288297 0.689303 -0.150003
C9    C     C_R   0.816970 0.742658 0.863416 -0.084802
C10   C     C_R   0.257448 0.817572 0.863771 -0.092330
C11   C     C_R   0.288187 0.362133 0.689095 -0.137386
C12   C     C_R   0.741758 0.819878 0.136741 -0.080603
C13   C     C_R   0.076297 0.169174 0.355934 -0.086644
C14   C     C_R   0.710045 0.365948 0.313726 -0.145323
C15   C     C_R   0.257192 0.180363 0.134389 -0.093606
C16   C     C_R   0.290087 0.633982 0.315045 -0.143817
C17   C     C_2   0.190033 0.644368 0.423122 0.584905
C18   C     C_2   0.205026 0.047073 0.180244 0.488084
C19   C     C_2   0.812282 0.356704 0.418478 0.573705
C20   C     C_2   0.795342 0.952828 0.181290 0.484185
C21   C     C_2   0.191722 0.355126 0.578288 0.594062
C22   C     C_2   0.203102 0.948717 0.815915 0.492659
C23   C     C_2   0.948630 0.791314 0.811712 0.485870
C24   C     C_R   0.802568 0.105763 0.398617 -0.116400
C25   C     C_2   0.646227 0.189902 0.579883 0.569419
C26   C     C_2   0.551369 0.291441 0.688195 0.485913
C27   C     C_2   0.853766 0.689899 0.920129 0.568948
C28   C     C_2   0.308266 0.855120 0.921722 0.594028
C29   C     C_2   0.296898 0.448721 0.684085 0.492724
C30   C     C_2   0.687718 0.856704 0.081524 0.573632
C31   C     C_2   0.704658 0.452828 0.318713 0.484239
C32   C     C_2   0.309965 0.144369 0.076874 0.584868
C33   C     C_2   0.294974 0.547072 0.319755 0.488118
C34   C     C_R   0.895484 0.198155 0.601379 -0.105950
C35   C     C_R   0.197572 0.105828 0.599273 -0.157115
C36   C     C_R   0.084936 0.823053 0.637869 -0.079433
C37   C     C_R   0.827532 0.922382 0.641897 -0.122393
C38   C     C_3   0.869725 0.320917 0.724033 -0.540849
C39   C     C_3   0.677705 0.868413 0.720071 -0.504121
C40   C     C_3   0.148032 0.674766 0.711219 -0.434034
C41   C     C_R   0.672465 0.422387 0.858102 -0.122336
C42   C     C_3   0.306536 0.128428 0.731036 -0.495311
C43   C     C_3   0.863649 0.681341 0.283271 -0.465025
C44   C     C_3   0.685629 0.133330 0.270262 -0.498553
C45   C     C_3   0.137095 0.318143 0.284129 -0.422017
C46   C     C_3   0.314233 0.866421 0.270042 -0.466637
C47   C     C_3   0.362910 0.818143 0.215876 -0.422049
C48   C     C_3   0.185772 0.366422 0.229963 -0.466631
C49   C     C_3   0.636353 0.181340 0.216727 -0.465042
C50   C     C_3   0.814371 0.633330 0.229738 -0.498590
C51   C     C_3   0.352023 0.174765 0.788735 -0.434290
C52   C     C_R   0.604514 0.698155 0.898621 -0.105970
C53   C     C_3   0.193513 0.628428 0.768921 -0.495294
C54   C     C_3   0.630278 0.820965 0.776013 -0.540833
C55   C     C_3   0.822298 0.368365 0.779977 -0.504128
C56   C     C_R   0.393571 0.697537 0.896147 -0.091708
C57   C     C_R   0.325049 0.416766 0.859343 -0.132945
C58   C     C_R   0.589234 0.323028 0.860941 -0.160668
C59   C     C_R   0.697008 0.608030 0.896860 -0.126417
C60   C     C_R   0.392651 0.302231 0.103032 -0.100096
C61   C     C_R   0.328484 0.580500 0.143779 -0.127400
C62   C     C_R   0.606898 0.697652 0.103616 -0.131784
C63   C     C_R   0.302429 0.605827 0.900727 -0.157126
C64   C     C_R   0.671329 0.419289 0.143510 -0.152263
C65   C     C_R   0.893101 0.197652 0.396385 -0.131799
C66   C     C_R   0.828673 0.919289 0.356489 -0.152255
C67   C     C_R   0.107350 0.802230 0.396968 -0.100115
C68   C     C_R   0.171517 0.080500 0.356222 -0.127393
C69   C     C_R   0.910765 0.823024 0.639054 -0.160630
C70   C     C_R   0.802992 0.108030 0.603141 -0.126417
C71   C     C_R   0.106430 0.197537 0.603853 -0.091697
C72   C     C_R   0.174953 0.916768 0.640654 -0.132944
C73   C     C_R   0.355712 0.353977 0.818846 0.041637
C74   C     C_R   0.423704 0.669174 0.144066 -0.086640
C75   C     C_R   0.646160 0.359516 0.816932 0.074332
C76   C     C_R   0.681670 0.686083 0.882617 0.109936
C77   C     C_R   0.315644 0.682809 0.883739 0.106864
C78   C     C_R   0.363318 0.639146 0.187306 0.046514
C79   C     C_R   0.684498 0.683166 0.118253 0.113489
C80   C     C_R   0.636436 0.360439 0.187016 0.068262
C81   C     C_R   0.314857 0.316788 0.117131 0.105707
C82   C     C_R   0.863567 0.860440 0.312983 0.068268
C83   C     C_R   0.185143 0.816788 0.382870 0.105697
C84   C     C_R   0.136683 0.139147 0.312695 0.046511
C85   C     C_R   0.697432 0.605763 0.101383 -0.116448
C86   C     C_R   0.815501 0.183166 0.381748 0.113488
C87   C     C_R   0.818329 0.186083 0.617383 0.109936
C88   C     C_R   0.184359 0.182810 0.616261 0.106792
C89   C     C_R   0.144291 0.853979 0.681151 0.041663
C90   C     C_R   0.853836 0.859507 0.683063 0.074389
C91   C     C_R   0.754878 0.356074 0.727086 0.168467
C92   C     C_R   0.702301 0.813200 0.823730 0.222570
C93   C     C_R   0.193885 0.700192 0.818561 0.163548
C94   C     C_R   0.347230 0.242105 0.733593 0.219999
C95   C     C_R   0.809357 0.704133 0.179333 0.191972
C96   C     C_R   0.576166 0.330492 0.143954 -0.120399
C97   C     C_R   0.645873 0.247697 0.272366 0.154504
C98   C     C_R   0.190108 0.295907 0.178999 0.117725
C99   C     C_R   0.354062 0.752097 0.272110 0.137246
C100  C     C_R   0.309895 0.795906 0.321005 0.117738
C101  C     C_R   0.145941 0.252098 0.227894 0.137226
C102  C     C_R   0.690643 0.204133 0.320667 0.191964
C103  C     C_R   0.854128 0.747698 0.227633 0.154466
C104  C     C_R   0.306138 0.200201 0.681410 0.163652
C105  C     C_R   0.152799 0.742096 0.766376 0.220412
C106  C     C_R   0.745137 0.856088 0.772940 0.168381
C107  C     C_R   0.302236 0.394211 0.100773 -0.156668
C108  C     C_R   0.797712 0.313187 0.676294 0.222544
C109  C     C_R   0.678320 0.335630 0.742996 -0.082070
C110  C     C_R   0.734738 0.748368 0.859904 0.035417
C111  C     C_R   0.254457 0.734918 0.858649 -0.021005
C112  C     C_R   0.330653 0.320664 0.746044 -0.083238
C113  C     C_R   0.745782 0.737033 0.142302 0.035307
C114  C     C_R   0.662312 0.326364 0.259794 -0.074968
C115  C     C_R   0.253231 0.263103 0.140703 -0.003321
C116  C     C_R   0.337393 0.673383 0.260159 -0.056198
C117  C     C_R   0.246770 0.763102 0.359299 -0.003332
C118  C     C_R   0.923836 0.830493 0.356045 -0.120409
C119  C     C_R   0.162610 0.173384 0.239843 -0.056197
C120  C     C_R   0.754217 0.237033 0.357700 0.035258
C121  C     C_R   0.837690 0.826364 0.240205 -0.074980
C122  C     C_R   0.245550 0.234923 0.641340 -0.020905
C123  C     C_R   0.169360 0.820661 0.753944 -0.083457
C124  C     C_R   0.821683 0.835619 0.757002 -0.082127
C125  C     C_R   0.765264 0.248371 0.640101 0.035331
C126  C     C_R   0.242808 0.680362 0.365611 -0.093612
C127  C     C_R   0.209914 0.133982 0.184956 -0.143803
C128  C     C_R   0.758241 0.319878 0.363261 -0.080637
H1    H     H_    0.446440 0.270606 0.851006 0.093912
H2    H     H_    0.253436 0.922330 0.406138 0.107408
H3    H     H_    0.036060 0.214055 0.339153 0.095390
H4    H     H_    0.746789 0.077750 0.405430 0.125074
H5    H     H_    0.924336 0.253721 0.594458 0.125054
H6    H     H_    0.253278 0.077854 0.591498 0.111575
H7    H     H_    0.053560 0.770609 0.648999 0.093998
H8    H     H_    0.783418 0.963617 0.658499 0.104475
H9    H     H_    0.889729 0.264659 0.748996 0.201499
H10   H     H_    0.659277 0.930522 0.717648 0.191375
H11   H     H_    0.087898 0.652457 0.704444 0.192882
H12   H     H_    0.716581 0.463620 0.841502 0.104479
H13   H     H_    0.247971 0.111985 0.752629 0.220100
H14   H     H_    0.924538 0.660267 0.286190 0.186835
H15   H     H_    0.742377 0.116616 0.244453 0.215445
H16   H     H_    0.076282 0.339295 0.288357 0.175668
H17   H     H_    0.257218 0.882944 0.245146 0.222376
H18   H     H_    0.423723 0.839294 0.211650 0.175673
H19   H     H_    0.242788 0.382944 0.254859 0.222381
H20   H     H_    0.575464 0.160267 0.213806 0.186843
H21   H     H_    0.757624 0.616618 0.255549 0.215444
H22   H     H_    0.412163 0.152467 0.795491 0.192705
H23   H     H_    0.575662 0.753720 0.905544 0.125054
H24   H     H_    0.252087 0.612001 0.747339 0.220067
H25   H     H_    0.610252 0.764719 0.751039 0.201498
H26   H     H_    0.840745 0.430468 0.782422 0.191414
H27   H     H_    0.915402 0.355790 0.694530 0.202381
H28   H     H_    0.685025 0.839384 0.663121 0.206883
H29   H     H_    0.180338 0.685021 0.656493 0.244033
H30   H     H_    0.340561 0.080000 0.704923 0.195380
H31   H     H_    0.835263 0.692038 0.340020 0.213267
H32   H     H_    0.652992 0.084925 0.298097 0.195881
H33   H     H_    0.166107 0.307069 0.340265 0.244305
H34   H     H_    0.246722 0.577853 0.908496 0.111584
H35   H     H_    0.347117 0.915049 0.296936 0.184887
H36   H     H_    0.333900 0.807069 0.159740 0.244302
H37   H     H_    0.152887 0.415050 0.203072 0.184882
H38   H     H_    0.664741 0.192036 0.159979 0.213260
H39   H     H_    0.847006 0.584925 0.201902 0.195871
H40   H     H_    0.319727 0.185002 0.843471 0.244106
H41   H     H_    0.159492 0.579988 0.795016 0.195439
H42   H     H_    0.584620 0.855844 0.805537 0.202374
H43   H     H_    0.814953 0.339322 0.836916 0.206876
H44   H     H_    0.422594 0.753398 0.895417 0.085361
H45   H     H_    0.463941 0.714055 0.160848 0.095389
H46   H     H_    0.276152 0.452889 0.843952 0.092346
H47   H     H_    0.565261 0.266244 0.849813 0.097113
H48   H     H_    0.753086 0.580165 0.898443 0.086489
H49   H     H_    0.420893 0.246026 0.101713 0.086654
H50   H     H_    0.278862 0.545315 0.159347 0.092322
H51   H     H_    0.578500 0.753750 0.102436 0.093819
H52   H     H_    0.720899 0.454448 0.158895 0.092627
H53   H     H_    0.921500 0.253750 0.397565 0.093819
H54   H     H_    0.779103 0.954449 0.341104 0.092635
H55   H     H_    0.079107 0.746025 0.398287 0.086654
H56   H     H_    0.753211 0.577751 0.094569 0.125039
H57   H     H_    0.221139 0.045315 0.340653 0.092328
H58   H     H_    0.934738 0.766239 0.650175 0.097259
H59   H     H_    0.746914 0.080162 0.601563 0.086528
H60   H     H_    0.077407 0.253398 0.604583 0.085365
H61   H     H_    0.223852 0.952889 0.656043 0.092363
H62   H     H_    0.154492 0.594569 0.408082 0.063167
H63   H     H_    0.161787 0.016192 0.214040 0.026557
H64   H     H_    0.848390 0.405395 0.401023 0.052144
H65   H     H_    0.838857 0.983557 0.214522 0.028696
H66   H     H_    0.157766 0.406225 0.592972 0.060525
H67   H     H_    0.535877 0.285507 0.160761 0.104077
H68   H     H_    0.160091 0.978063 0.780915 0.025061
H69   H     H_    0.978740 0.835600 0.778455 0.032433
H70   H     H_    0.598491 0.152356 0.596524 0.053384
H71   H     H_    0.521254 0.335568 0.721653 0.032419
H72   H     H_    0.901456 0.652290 0.903501 0.053699
H73   H     H_    0.342223 0.906222 0.907048 0.060556
H74   H     H_    0.339906 0.478069 0.719089 0.025053
H75   H     H_    0.651611 0.905396 0.098977 0.052177
H76   H     H_    0.661153 0.483559 0.285469 0.028691
H77   H     H_    0.345503 0.094566 0.091911 0.063184
H78   H     H_    0.246564 0.422330 0.093863 0.107408
H79   H     H_    0.338213 0.516191 0.285959 0.026562
H80   H     H_    0.964125 0.785508 0.339238 0.104076
N1    N     N_R   0.425360 0.368540 0.922560 -0.037458
N2    N     N_R   0.131460 0.925360 0.422560 -0.045899
N3    N     N_R   0.074640 0.131460 0.422560 -0.037089
N4    N     N_R   0.868540 0.074640 0.422560 -0.049082
N5    N     N_R   0.925360 0.131460 0.577440 -0.050617
N6    N     N_R   0.131460 0.074640 0.577440 -0.047926
N7    N     N_R   0.074640 0.868540 0.577440 -0.037470
N8    N     N_R   0.868540 0.925360 0.577440 -0.043928
N9    N     N_R   0.425340 0.631500 0.922560 -0.048372
N10   N     N_R   0.368500 0.425340 0.922560 -0.038140
N11   N     N_R   0.574660 0.368500 0.922560 -0.040829
N12   N     N_R   0.631460 0.425360 0.922560 -0.043933
N13   N     N_R   0.631500 0.574660 0.922560 -0.045376
N14   N     N_R   0.425340 0.368500 0.077440 -0.046959
N15   N     N_R   0.368500 0.574660 0.077440 -0.037956
N16   N     N_R   0.574660 0.631500 0.077440 -0.046641
N17   N     N_R   0.631500 0.425340 0.077440 -0.040877
N18   N     N_R   0.925340 0.131500 0.422560 -0.046643
N19   N     N_R   0.868500 0.925340 0.422560 -0.040877
N20   N     N_R   0.074660 0.868500 0.422560 -0.046957
N21   N     N_R   0.131500 0.074660 0.422560 -0.037957
N22   N     N_R   0.925340 0.868500 0.577440 -0.040852
N23   N     N_R   0.574640 0.631460 0.922560 -0.050609
N24   N     N_R   0.868500 0.074660 0.577440 -0.045375
N25   N     N_R   0.074660 0.131500 0.577440 -0.048372
N26   N     N_R   0.131500 0.925340 0.577440 -0.038144
N27   N     N_R   0.368540 0.574640 0.922560 -0.047928
N28   N     N_R   0.425360 0.631460 0.077440 -0.037091
N29   N     N_R   0.631460 0.574640 0.077440 -0.049076
N30   N     N_R   0.574640 0.368540 0.077440 -0.044417
N31   N     N_R   0.368540 0.425360 0.077440 -0.045898
N32   N     N_R   0.925360 0.868540 0.422560 -0.044414
Ni1   Ni    Ni4+2 0.500000 0.369720 0.000000 0.227909
Ni2   Ni    Ni4+2 0.630280 0.500000 0.000000 0.216158
Ni3   Ni    Ni4+2 0.500000 0.630280 0.000000 0.232650
Ni4   Ni    Ni4+2 0.369720 0.500000 0.000000 0.216397
Ni5   Ni    Ni4+2 0.000000 0.869720 0.500000 0.227905
Ni6   Ni    Ni4+2 0.130280 0.000000 0.500000 0.216389
Ni7   Ni    Ni4+2 0.000000 0.130280 0.500000 0.232651
Ni8   Ni    Ni4+2 0.869720 0.000000 0.500000 0.216176
O1    O     O_2   0.185351 0.670980 0.488311 -0.591771
O2    O     O_2   0.830063 0.687434 0.986482 -0.595807
O3    O     O_2   0.313124 0.828414 0.986826 -0.584521
O4    O     O_2   0.259129 0.488492 0.639653 -0.585295
O5    O     O_2   0.682894 0.832383 0.015579 -0.596352
O6    O     O_2   0.745994 0.491400 0.360978 -0.609378
O7    O     O_2   0.314648 0.170985 0.011688 -0.591762
O8    O     O_2   0.253403 0.508599 0.362207 -0.583697
O9    O     O_2   0.246597 0.008599 0.137793 -0.583716
O10   O     O_2   0.817104 0.332386 0.484423 -0.596335
O11   O     O_2   0.753991 0.991402 0.139041 -0.609407
O12   O     O_2   0.186856 0.328426 0.513182 -0.584499
O13   O     O_2   0.240875 0.988489 0.860342 -0.585309
O14   O     O_2   0.987696 0.746729 0.850151 -0.616623
O15   O     O_2   0.669960 0.187354 0.513543 -0.595827
O16   O     O_2   0.512304 0.247138 0.649434 -0.616300

loop_
_geom_bond_atom_site_label_1
_geom_bond_atom_site_label_2
_ccdc_geom_bond_type
C44   C49   S    
C36   C89   A    
C55   H26   S    
C81   C107  A    
C67   C83   A    
C72   C89   A    
C10   C28   S    
C39   C106  S    
C8    C26   S    
C97   C114  A    
C54   H42   S    
C118  H80   S    
C58   H47   S    
C6    C124  A    
C71   H60   S    
N4    Ni8   S    
C81   C115  S    
N9    N27   A    
C19   O10   D    
C61   N15   A    
N2    N20   A    
C24   N4    A    
C63   N27   A    
C14   C128  A    
C65   C86   A    
C65   H53   S    
C30   H75   S    
C13   C84   A    
C63   H34   S    
N29   Ni2   S    
N1    N10   A    
N28   Ni3   S    
C27   O2    D    
C1    H1    S    
C84   C119  S    
C36   N7    A    
C52   N23   A    
C25   O15   D    
C50   C95   S    
C46   H17   S    
C26   O16   D    
C57   N10   A    
N19   N32   A    
C22   O13   D    
C57   C73   A    
C48   H19   S    
C19   C128  S    
C47   C99   S    
C105  C123  A    
N5    Ni7   S    
C35   C88   A    
N21   Ni6   S    
N3    Ni7   S    
C77   C111  S    
C45   H33   S    
C56   N9    A    
C107  H78   S    
C55   C91   S    
C25   H70   S    
C59   N13   A    
C93   C105  A    
N19   Ni8   S    
C96   H67   S    
C44   H15   S    
C38   C55   S    
C21   O12   D    
C51   H22   S    
C41   H12   S    
C66   N19   A    
C45   H16   S    
N8    N22   A    
C53   C93   S    
C53   H24   S    
N31   Ni4   S    
C3    C12   A    
N10   Ni4   S    
C21   H66   S    
C80   C96   A    
C117  C126  A    
C14   C31   S    
C37   N8    A    
C97   C102  A    
C31   O6    D    
C53   H41   S    
C19   H64   S    
N4    N18   A    
C71   N25   A    
C66   H54   S    
C47   H18   S    
C94   C104  A    
C61   H50   S    
C15   C127  A    
C56   H44   S    
N17   N30   A    
C64   C80   A    
C22   H68   S    
C2    C83   A    
C42   H30   S    
N7    N26   A    
C90   C124  S    
C38   H27   S    
C6    C9    A    
C70   C87   A    
C16   C116  A    
C35   H6    S    
C55   H43   S    
C64   N17   A    
N14   Ni1   S    
C95   C103  A    
C58   C75   A    
C43   C103  S    
N13   Ni2   S    
C64   H52   S    
C82   C118  A    
C62   C79   A    
C18   H63   S    
C2    N2    A    
C40   H11   S    
C75   C109  S    
C48   H37   S    
C1    N1    A    
C68   C84   A    
C29   O4    D    
C40   H29   S    
C7    C8    A    
C74   H45   S    
C88   C122  S    
C59   H48   S    
N1    Ni1   S    
C62   H51   S    
C44   C102  S    
N25   Ni7   S    
C54   H25   S    
N20   Ni5   S    
C89   C123  S    
C23   O14   D    
C60   H49   S    
C14   C114  A    
C107  N31   A    
C56   C77   A    
N11   Ni1   S    
C49   H20   S    
C42   C104  S    
N24   Ni8   S    
N15   Ni4   S    
C101  C119  A    
C20   O11   D    
C43   H14   S    
N23   Ni3   S    
N9    Ni3   S    
C54   C92   S    
C45   C101  S    
C18   C127  S    
C41   C75   A    
C5    C10   A    
C60   C81   A    
C24   H4    S    
C99   C100  A    
N30   Ni1   S    
C61   C78   A    
N16   N29   A    
N13   N23   A    
C42   H13   S    
C13   H3    S    
C30   O5    D    
C4    C122  A    
C10   C111  A    
N6    Ni6   S    
C99   C116  A    
C7    C25   S    
C7    C125  A    
C4    C11   A    
C43   C50   S    
C26   H71   S    
N22   Ni5   S    
C31   H76   S    
N5    N24   A    
C67   H55   S    
C70   H59   S    
C93   C111  A    
C15   C32   S    
C58   N11   A    
C47   H36   S    
C37   C90   A    
C92   C106  A    
C80   C114  S    
C68   H57   S    
N7    Ni5   S    
C85   H56   S    
C62   N16   A    
C46   H35   S    
C79   C113  S    
N32   Ni5   S    
C108  C125  A    
C15   C115  A    
N6    N25   A    
C20   H65   S    
C28   H73   S    
C74   N28   A    
C69   C90   A    
C103  C121  A    
C36   H7    S    
C72   H61   S    
C79   C85   A    
C41   N12   A    
C102  C120  A    
C68   N21   A    
C9    C27   S    
C73   C112  S    
C12   C113  A    
C63   C77   A    
C45   C48   S    
C118  N32   A    
C9    C110  A    
N11   N12   A    
C46   C100  S    
C46   C47   S    
C33   H79   S    
C37   H8    S    
C29   H74   S    
N3    N21   A    
C87   C125  S    
C12   C30   S    
C11   C112  A    
C96   N30   A    
C91   C108  A    
C33   O8    D    
C78   C116  S    
C27   H72   S    
C52   C76   A    
C34   N5    A    
C60   N14   A    
C23   H69   S    
C120  C128  A    
N16   Ni3   S    
C5    C22   S    
C42   C51   S    
C17   H62   S    
N8    Ni8   S    
C98   C101  A    
C48   C98   S    
C5    C123  A    
C43   H31   S    
C34   H5    S    
C39   H28   S    
C1    C73   A    
C91   C109  A    
N17   Ni2   S    
C28   O3    D    
C13   N3    A    
C16   C33   S    
C3    C20   S    
C69   N22   A    
N26   Ni6   S    
C66   C82   A    
C4    C21   S    
C50   H21   S    
C92   C110  A    
C98   C115  A    
N12   Ni2   S    
C67   N20   A    
C95   C113  A    
C52   H23   S    
C44   H32   S    
C6    C23   S    
C59   C76   A    
C32   O7    D    
C17   O1    D    
C2    H2    S    
C38   H9    S    
C72   N26   A    
C65   N18   A    
C85   N29   A    
C34   C87   A    
C18   O9    D    
C38   C108  S    
C17   C126  S    
C35   N6    A    
C70   N24   A    
N27   Ni4   S    
C39   H10   S    
C83   C117  S    
N15   N28   A    
C51   C94   S    
C49   C97   S    
C71   C88   A    
C39   C54   S    
C49   H38   S    
C104  C122  A    
C11   C29   S    
C51   H40   S    
C76   C110  S    
C40   C53   S    
C74   C78   A    
C106  C124  A    
C50   H39   S    
N2    Ni6   S    
N14   N31   A    
C40   C105  S    
C82   C121  S    
C86   C120  S    
C100  C117  A    
C32   H77   S    
C8    C109  A    
C24   C86   A    
C69   H58   S    
C16   C126  A    
C94   C112  A    
C3    C121  A    
C119  C127  A    
C57   H46   S    
N18   Ni7   S    
