data_mof_unit_22998.cif
_audit_creation_date              2012-12-11T14:23:03-0500
_audit_creation_method            fapswitch 2.2
_symmetry_space_group_name_H-M    P1
_symmetry_Int_Tables_number       1
_space_group_crystal_system       triclinic
_cell_length_a                    11.063474
_cell_length_b                    11.095234
_cell_length_c                    18.827525
_cell_angle_alpha                 90.882536
_cell_angle_beta                  90.38245
_cell_angle_gamma                 60.590533
_cell_volume                      2013.04637823

loop_
_atom_site_label
_atom_site_type_symbol
_atom_type_description
_atom_site_fract_x
_atom_site_fract_y
_atom_site_fract_z
_atom_type_partial_charge
C1    C     C_R   0.240722 0.644922 0.611204 0.594413
C2    C     C_3   0.660417 0.559482 0.802208 0.147219
C3    C     C_3   0.701536 0.672167 0.812475 0.045416
C4    C     C_3   0.672543 0.643806 0.676611 0.089629
C5    C     C_3   0.821421 0.613464 0.691834 -0.319678
C6    C     C_3   0.640155 0.543182 0.721213 0.476653
C7    C     C_R   0.689364 0.139968 0.817491 -0.038631
C8    C     C_R   0.799357 0.138423 0.777629 -0.083117
C9    C     C_R   0.799613 0.123281 0.701872 0.014483
C10   C     C_R   0.577773 0.130442 0.706038 0.180405
C11   C     C_R   0.576521 0.141338 0.779495 0.261066
C12   C     C_R   0.654352 0.621392 0.600670 0.583305
C13   C     C_R   0.909364 0.152278 0.809163 0.270782
C14   C     C_R   0.023558 0.127065 0.768197 -0.092996
C15   C     C_R   0.026003 0.104716 0.695423 -0.142932
C16   C     C_R   0.918423 0.095317 0.662094 0.296241
C17   C     C_R   0.678563 0.142637 0.667073 -0.003517
C18   C     C_R   0.197013 0.658491 0.838586 -0.007562
C19   C     C_R   0.199186 0.548203 0.799435 -0.037497
C20   C     C_R   0.182988 0.557050 0.724075 -0.106927
C21   C     C_R   0.222228 0.756627 0.729734 0.314764
C22   C     C_R   0.225191 0.752194 0.803944 0.247124
C23   C     C_R   0.630904 0.221671 0.600176 0.613310
C24   C     C_R   0.216891 0.429372 0.834625 0.315670
C25   C     C_R   0.190070 0.335113 0.798323 -0.123747
C26   C     C_R   0.162810 0.347635 0.726142 -0.065002
C27   C     C_R   0.155134 0.458161 0.688642 0.278872
C28   C     C_R   0.200696 0.660055 0.688195 -0.018231
C29   C     C_R   0.655732 0.688647 0.172210 0.008912
C30   C     C_R   0.694357 0.555986 0.196152 -0.034493
C31   C     C_R   0.729176 0.528810 0.267996 -0.005650
C32   C     C_R   0.612587 0.774509 0.294628 -0.068810
C33   C     C_R   0.620243 0.798024 0.223276 0.237309
C34   C     C_R   0.220516 0.651815 0.401601 0.520476
C35   C     C_R   0.730510 0.445182 0.147842 -0.109508
C36   C     C_R   0.839839 0.316248 0.163905 -0.048984
C37   C     C_R   0.899433 0.293157 0.230943 0.209304
C38   C     C_R   0.839370 0.395891 0.284142 -0.061057
C39   C     C_R   0.665458 0.640793 0.318003 -0.023770
C40   C     C_R   0.655485 0.164675 0.173745 0.039047
C41   C     C_R   0.520880 0.241452 0.201003 0.071946
C42   C     C_R   0.503517 0.234099 0.274374 0.016607
C43   C     C_R   0.755131 0.124841 0.291141 -0.133826
C44   C     C_R   0.770966 0.102511 0.219287 -0.115693
C45   C     C_R   0.642925 0.617845 0.391655 0.532625
C46   C     C_R   0.403473 0.308905 0.155976 0.262848
C47   C     C_R   0.274950 0.331115 0.180117 -0.120803
C48   C     C_R   0.259706 0.304460 0.250108 -0.097135
C49   C     C_R   0.369796 0.262517 0.297558 -0.042688
C50   C     C_R   0.623171 0.191576 0.319614 0.014846
C51   C     C_R   0.140877 0.670042 0.184621 -0.002416
C52   C     C_R   0.218937 0.725419 0.214461 -0.033655
C53   C     C_R   0.193762 0.765578 0.285599 -0.096386
C54   C     C_R   0.086468 0.620396 0.301782 0.204946
C55   C     C_R   0.070565 0.622488 0.228436 -0.106769
C56   C     C_R   0.609707 0.236375 0.393178 0.533277
C57   C     C_R   0.296461 0.766408 0.171776 0.264940
C58   C     C_R   0.310324 0.880039 0.193491 0.269712
C59   C     C_R   0.277562 0.929494 0.263748 0.291193
C60   C     C_R   0.207613 0.881886 0.307560 0.251202
C61   C     C_R   0.155539 0.686996 0.331153 -0.008391
C62   C     C_R   0.703719 0.096949 0.893905 0.561295
C63   C     C_R   0.725454 0.688632 0.888156 0.583699
C64   C     C_R   0.121333 0.704140 0.907032 0.580372
C65   C     C_R   0.676446 0.107801 0.102893 0.602283
C66   C     C_R   0.701996 0.698348 0.100851 0.545363
C67   C     C_3   0.588326 0.809852 0.780394 -0.219012
C68   C     C_R   0.089115 0.710682 0.113271 0.604356
C69   C     C_3   0.579156 0.795450 0.699751 -0.251250
C70   C     C_3   0.839222 0.628836 0.771739 -0.309889
Cr1   Cr    Cr6+3 0.392940 0.397950 0.502230 1.077239
Cr2   Cr    Cr6+3 0.398400 0.708500 0.501260 1.072765
Cr3   Cr    Cr6+3 0.708640 0.393530 0.496460 1.080363
Cr4   Cr    Cr6+3 0.937880 0.938320 0.007620 1.091714
Cr5   Cr    Cr6+3 0.625560 0.937220 0.994510 1.078739
Cr6   Cr    Cr6+3 0.938080 0.625010 0.001190 1.034873
H1    H     H_    0.111220 0.126266 0.793068 0.147247
H2    H     H_    0.143377 0.272918 0.698880 0.135226
H3    H     H_    0.881939 0.235756 0.123417 0.158179
H4    H     H_    0.471637 0.836203 0.682459 0.208958
H5    H     H_    0.892116 0.373347 0.334434 0.168486
H6    H     H_    0.003006 0.586996 0.205751 0.155693
H7    H     H_    0.843828 0.686297 0.662267 0.117060
O1    O     O_R   0.507340 0.255690 0.581430 -0.490228
O2    O     O_R   0.524510 0.695820 0.424050 -0.508617
O3    O     O_R   0.736370 0.504260 0.414810 -0.529510
O4    O     O_R   0.691220 0.277270 0.422180 -0.505422
O5    O     O_3   0.499990 0.499990 0.499980 -0.282475
O6    O     O_R   0.089570 0.825450 0.930590 -0.474617
O7    O     O_R   0.818700 0.054260 0.929860 -0.470340
O8    O     O_R   0.606310 0.077010 0.915520 -0.442957
O9    O     O_R   0.646730 0.806540 0.917560 -0.498094
O10   O     O_R   0.837290 0.593240 0.915240 -0.522498
O11   O     O_R   0.065320 0.635310 0.931580 -0.470367
O12   O     O_R   0.280360 0.527380 0.578910 -0.460099
O13   O     O_R   0.068470 0.828620 0.091850 -0.472832
O14   O     O_R   0.799150 0.057200 0.079350 -0.539450
O15   O     O_R   0.585220 0.080180 0.076770 -0.483379
O16   O     O_R   0.627170 0.809480 0.067050 -0.493008
O17   O     O_R   0.816200 0.596410 0.076500 -0.525729
O18   O     O_R   0.045770 0.638240 0.081070 -0.532530
O19   O     O_3   0.833840 0.833520 0.001110 -0.304059
O20   O     O_R   0.260600 0.739610 0.584580 -0.439798
O21   O     O_R   0.532370 0.695050 0.573830 -0.486116
O22   O     O_R   0.744850 0.503430 0.576380 -0.479261
O23   O     O_R   0.699080 0.276500 0.571950 -0.414356
O24   O     O_R   0.498860 0.256520 0.419860 -0.548827
O25   O     O_R   0.272490 0.528150 0.429140 -0.501553
O26   O     O_R   0.252110 0.740440 0.423010 -0.487208
H8    H     H_    0.618617 0.889493 0.791249 0.140023
O27   O     O_3   0.727719 0.405171 0.699650 -0.707522
H9    H     H_    0.823233 0.376475 0.715589 0.290749
H10   H     H_    0.921608 0.528499 0.791849 0.143741
H11   H     H_    0.895681 0.507637 0.673796 0.186770
O28   O     O_3   0.471036 0.119076 0.673602 -0.709055
H12   H     H_    0.505896 0.067085 0.628192 0.328461
O29   O     O_3   0.903317 0.206424 0.876262 -0.672472
H13   H     H_    0.804514 0.268068 0.888665 0.317647
O30   O     O_3   0.464783 0.149107 0.815613 -0.662636
H14   H     H_    0.424112 0.100165 0.788886 0.344162
H15   H     H_    0.114295 0.090930 0.664729 0.135661
O31   O     O_3   0.930583 0.051211 0.592045 -0.694481
H16   H     H_    0.020980 0.033945 0.572712 0.338944
O32   O     O_3   0.255113 0.846222 0.696255 -0.672816
H17   H     H_    0.273779 0.902658 0.730974 0.342386
H18   H     H_    0.485748 0.843671 0.805335 0.208684
O33   O     O_3   0.271182 0.401907 0.902707 -0.648907
H19   H     H_    0.276248 0.315356 0.919675 0.343131
O34   O     O_3   0.256647 0.841216 0.841734 -0.696058
H20   H     H_    0.303237 0.796152 0.886622 0.375699
H21   H     H_    0.197605 0.248224 0.826529 0.115279
O35   O     O_3   0.105206 0.471800 0.620214 -0.684647
H22   H     H_    0.052902 0.571574 0.609126 0.307718
H23   H     H_    0.574615 0.859953 0.332502 0.164006
H24   H     H_    0.690250 0.462897 0.094105 0.159386
O36   O     O_3   0.603377 0.925378 0.207482 -0.699186
H25   H     H_    0.550511 0.954845 0.163357 0.385779
O37   O     O_3   0.015158 0.168658 0.243421 -0.712586
H26   H     H_    0.045949 0.171805 0.292479 0.358947
H27   H     H_    0.845799 0.087359 0.324707 0.142827
O38   O     O_3   0.417565 0.349684 0.088898 -0.662799
H28   H     H_    0.325635 0.395663 0.065279 0.348632
H29   H     H_    0.875202 0.036449 0.199390 0.178227
H30   H     H_    0.186259 0.370227 0.144929 0.120714
H31   H     H_    0.160552 0.319741 0.268300 0.185958
H32   H     H_    0.347803 0.241052 0.349904 0.175476
O39   O     O_3   0.027045 0.560392 0.342177 -0.723305
H33   H     H_    0.026065 0.587268 0.392652 0.335762
O40   O     O_3   0.346608 0.700716 0.106826 -0.661608
H34   H     H_    0.405833 0.734309 0.085304 0.364918
H35   H     H_    0.616857 0.858960 0.673127 0.105576
O41   O     O_3   0.341901 0.948876 0.142880 -0.707640
H36   H     H_    0.314319 0.043375 0.160738 0.372974
O42   O     O_3   0.308826 0.029351 0.287028 -0.720847
H37   H     H_    0.296756 0.040802 0.339243 0.348149
O43   O     O_3   0.135789 0.964643 0.365182 -0.708116
H38   H     H_    0.058996 0.946705 0.377244 0.330356
H39   H     H_    0.873863 0.706657 0.780804 0.125905
H40   H     H_    0.747108 0.461734 0.823139 0.109936
O44   O     O_3   0.540153 0.592801 0.841528 -0.700362
H41   H     H_    0.539024 0.504938 0.848982 0.328713
O45   O     O_3   0.503189 0.574579 0.707540 -0.623235
H42   H     H_    0.492891 0.494898 0.723130 0.337877

loop_
_geom_bond_atom_site_label_1
_geom_bond_atom_site_label_2
_ccdc_geom_bond_type
C8    C13   A    
Cr1   O24   S    
C5    H11   S    
C41   C42   A    
C35   C36   A    
C11   O30   S    
Cr2   O2    S    
C57   C58   A    
O40   H34   S    
C7    C8    A    
Cr3   O5    S    
C7    C11   A    
C26   C27   A    
C68   O13   A    
C30   C35   A    
Cr4   O6    S    
O43   H38   S    
C9    C16   A    
C65   O15   A    
Cr1   O1    S    
C2    C3    S    
C12   O22   A    
C5    H7    S    
C32   C39   A    
Cr1   O12   S    
C10   C17   A    
C15   C16   A    
C29   C33   A    
C18   C19   A    
C6    O27   S    
C14   H1    S    
C66   O17   A    
C16   O31   S    
Cr3   O4    S    
O39   H33   S    
Cr6   O11   S    
Cr2   O26   S    
C53   C61   A    
C59   O42   S    
C6    O45   S    
O35   H22   S    
C57   O40   S    
C63   O9    A    
C1    C28   S    
C41   C46   A    
C7    C62   S    
C4    C12   S    
C1    O20   A    
Cr5   O8    S    
C39   C45   S    
C10   C11   A    
C59   C60   A    
C13   C14   A    
C62   O8    A    
C27   O35   S    
C2    C6    S    
C64   O6    A    
C4    C69   S    
Cr2   O5    S    
C53   C60   A    
C58   O41   S    
C54   C61   A    
C46   O38   S    
C70   H10   S    
Cr6   O19   S    
C23   O1    A    
C51   C52   A    
C69   H35   S    
Cr4   O13   S    
C3    C70   S    
C68   O18   A    
C4    C6    S    
C52   C57   A    
C67   H18   S    
C35   H24   S    
C8    C9    A    
C56   O4    A    
Cr2   O21   S    
C58   C59   A    
C23   O23   A    
C47   H30   S    
C36   H3    S    
Cr5   O15   S    
C50   C56   S    
Cr1   O5    S    
C70   H39   S    
C66   O16   A    
C37   C38   A    
C45   O2    A    
C43   C44   A    
C60   O43   S    
C56   O24   A    
C29   C30   A    
Cr6   O10   S    
Cr5   O19   S    
C67   H8    S    
Cr3   O22   S    
C47   C48   A    
C17   C23   S    
C40   C44   A    
C1    O12   A    
C48   H31   S    
Cr5   O16   S    
C43   H27   S    
C26   H2    S    
C24   C25   A    
C55   H6    S    
O42   H37   S    
Cr5   O9    S    
C42   C50   A    
C9    C17   A    
C40   C41   A    
C20   C27   A    
C21   C28   A    
C40   C65   S    
C38   H5    S    
C2    H40   S    
C2    O44   S    
O33   H19   S    
C25   H21   S    
C52   C53   A    
O34   H20   S    
Cr6   O18   S    
C54   C55   A    
C48   C49   A    
C15   H15   S    
O27   H9    S    
C18   C22   A    
C3    C67   S    
O36   H25   S    
C5    C70   S    
C13   O29   S    
O30   H14   S    
C43   C50   A    
C12   O21   A    
O45   H42   S    
Cr2   O20   S    
C3    C63   S    
Cr6   O17   S    
C20   C28   A    
C63   O10   A    
O29   H13   S    
C31   C38   A    
Cr4   O19   S    
C37   O37   S    
C34   O25   A    
O44   H41   S    
Cr4   O7    S    
C19   C20   A    
C45   O3    A    
C25   C26   A    
C64   O11   A    
C22   O34   S    
O38   H28   S    
C32   C33   A    
C32   H23   S    
C33   O36   S    
C18   C64   S    
Cr3   O23   S    
C30   C31   A    
C21   O32   S    
C44   H29   S    
C62   O7    A    
C24   O33   S    
C31   C39   A    
C49   H32   S    
C19   C24   A    
C51   C55   A    
C51   C68   S    
C34   C61   S    
Cr3   O3    S    
C46   C47   A    
O37   H26   S    
C10   O28   S    
C42   C49   A    
C65   O14   A    
C29   C66   S    
C4    C5    S    
O41   H36   S    
C36   C37   A    
C34   O26   A    
C14   C15   A    
C54   O39   S    
C69   H4    S    
C67   C69   S    
O31   H16   S    
C21   C22   A    
Cr4   O14   S    
O28   H12   S    
Cr1   O25   S    
O32   H17   S    
