data_mof_unit_55720.cif
_audit_creation_date              2012-12-10T19:04:11-0500
_audit_creation_method            fapswitch 2.2
_symmetry_space_group_name_H-M    P1
_symmetry_Int_Tables_number       1
_space_group_crystal_system       triclinic
_cell_length_a                    10.702199
_cell_length_b                    10.923048
_cell_length_c                    9.589228
_cell_angle_alpha                 90.987919
_cell_angle_beta                  88.523833
_cell_angle_gamma                 93.014031
_cell_volume                      1118.92292271

loop_
_atom_site_label
_atom_site_type_symbol
_atom_type_description
_atom_site_fract_x
_atom_site_fract_y
_atom_site_fract_z
_atom_type_partial_charge
C1    C     C_R   0.495484 0.262041 0.498973 0.822545
C2    C     C_3   0.974044 0.531282 0.372055 -0.037697
C3    C     C_3   0.042286 0.414920 0.406555 -0.190670
C4    C     C_3   0.124220 0.492922 0.506894 -0.176869
C5    C     C_R   0.538198 0.066169 0.609187 0.022093
C6    C     C_R   0.492092 0.127576 0.496163 -0.181550
C7    C     C_R   0.444001 0.056184 0.382433 -0.100360
C8    C     C_R   0.443147 0.927081 0.384513 0.469558
C9    C     C_R   0.491767 0.869120 0.500172 -0.156198
C10   C     C_R   0.541951 0.939892 0.609413 -0.043416
C11   C     C_3   0.513800 0.930663 0.762756 -0.539312
C12   C     C_R   0.259941 0.494631 0.502008 0.884089
C13   C     C_3   0.504706 0.069811 0.764537 0.477517
C14   C     C_R   0.566786 0.588735 0.072929 0.202195
C15   C     C_R   0.414159 0.428503 0.072693 0.022960
C16   C     C_R   0.417940 0.426773 0.924082 0.025542
C17   C     C_R   0.567149 0.588277 0.926273 0.176421
C18   C     C_3   0.704111 0.617558 0.916759 -0.510484
C19   C     C_3   0.703006 0.619710 0.075736 -0.229574
C20   C     C_R   0.496137 0.736772 0.500948 0.919248
C21   C     C_R   0.741241 0.503707 0.498165 0.880038
C22   C     C_3   0.031818 0.464098 0.628716 0.433706
C23   C     C_3   0.947159 0.386332 0.528630 -0.336537
C24   C     C_3   0.879222 0.504156 0.494334 -0.215879
C25   C     C_3   0.964083 0.580132 0.596058 0.373593
C26   C     C_3   0.055793 0.607693 0.473627 0.316168
Cu1   Cu    Cu3+1 0.499990 0.499980 0.640670 0.993594
Cu2   Cu    Cu3+1 0.500010 0.500020 0.359330 0.992298
H1    H     H_    0.899583 0.295204 0.547809 0.152482
H2    H     H_    0.594461 0.898453 0.820146 0.196650
H3    H     H_    0.354040 0.366725 0.865755 0.203606
H4    H     H_    0.756287 0.540702 0.871373 0.243417
H5    H     H_    0.725509 0.707613 0.866963 0.211521
H6    H     H_    0.752411 0.544127 0.120772 0.207033
H7    H     H_    0.076720 0.345823 0.330646 0.219452
H8    H     H_    0.424203 0.877478 0.785637 0.172584
N1    N     N_R   0.500800 0.500930 0.147930 -0.235839
N2    N     N_R   0.500800 0.500890 0.852020 -0.207785
O1    O     O_R   0.500000 0.319640 0.618810 -0.559263
O2    O     O_R   0.500010 0.319680 0.381230 -0.642711
O3    O     O_R   0.316850 0.499950 0.618770 -0.561908
O4    O     O_R   0.316860 0.499990 0.381190 -0.603203
O5    O     O_R   0.499990 0.680320 0.618770 -0.597503
O6    O     O_R   0.500000 0.680360 0.381190 -0.511722
O7    O     O_R   0.683140 0.500010 0.618810 -0.576739
O8    O     O_R   0.683150 0.500050 0.381230 -0.572672
C27   C     C_2   0.372929 0.104623 0.802718 0.352704
H9    H     H_    0.342273 0.102984 0.911449 0.092617
O9    O     O_2   0.299739 0.133329 0.714826 -0.555884
O10   O     O_3   0.591412 0.131276 0.856083 -0.601070
C28   C     C_3   0.715204 0.144132 0.801538 -0.315561
H10   H     H_    0.722029 0.213222 0.717621 0.170047
H11   H     H_    0.750431 0.055360 0.763462 0.164292
H12   H     H_    0.776775 0.177838 0.886676 0.181294
C29   C     C_2   0.310882 0.354888 0.140240 0.399720
H13   H     H_    0.312939 0.330893 0.247627 0.134005
O11   O     O_2   0.220171 0.317221 0.074397 -0.547598
C30   C     C_2   0.731322 0.745080 0.138288 0.315700
H14   H     H_    0.748701 0.824222 0.072275 0.074190
O12   O     O_2   0.733753 0.759370 0.264630 -0.573073
O13   O     O_3   0.075020 0.432701 0.760694 -0.557284
C31   C     C_3   0.989606 0.346821 0.823336 -0.187167
H15   H     H_    0.992823 0.256425 0.768690 0.149450
H16   H     H_    0.892905 0.379523 0.826641 0.130237
H17   H     H_    0.017000 0.333209 0.932188 0.264431
O14   O     O_3   0.916263 0.668536 0.689151 -0.606985
C32   C     C_3   0.005623 0.702183 0.790188 -0.289764
H18   H     H_    0.101984 0.716735 0.744665 0.182815
H19   H     H_    0.004004 0.632596 0.873256 0.236351
H20   H     H_    0.979762 0.789955 0.840127 0.167830
O15   O     O_3   0.123614 0.718768 0.442090 -0.569576
C33   C     C_3   0.043546 0.817272 0.446366 -0.198186
H21   H     H_    0.037227 0.855948 0.553850 0.186203
H22   H     H_    0.948002 0.792239 0.408631 0.163509
H23   H     H_    0.084819 0.890637 0.378202 0.223006
C34   C     C_2   0.966100 0.570929 0.224778 0.425341
H24   H     H_    0.951191 0.665498 0.202246 0.084920
O16   O     O_2   0.984010 0.498777 0.128772 -0.566337
C35   C     C_2   0.382491 0.111915 0.266749 0.372756
H25   H     H_    0.438945 0.162067 0.189175 0.060536
O17   O     O_2   0.269575 0.095849 0.253478 -0.523931
O18   O     O_3   0.376360 0.856282 0.286665 -0.522398
C36   C     C_3   0.432790 0.866206 0.151991 -0.206275
H26   H     H_    0.423336 0.775609 0.099209 0.171086
H27   H     H_    0.533747 0.896507 0.152006 0.126804
H28   H     H_    0.381104 0.928930 0.087626 0.160825

loop_
_geom_bond_atom_site_label_1
_geom_bond_atom_site_label_2
_ccdc_geom_bond_type
C29   H13   S    
C3    C23   S    
C7    C8    A    
C27   O9    D    
C16   H3    S    
Cu2   O8    S    
C31   H15   S    
C8    O18   S    
C23   H1    S    
C11   H8    S    
C34   O16   D    
C5    C6    A    
Cu2   O2    S    
Cu1   N2    S    
C30   O12   D    
C15   C16   A    
C28   H10   S    
C18   C19   S    
C15   N1    A    
C12   O4    A    
C1    O2    A    
C13   C27   S    
C27   H9    S    
C11   H2    S    
Cu1   O1    S    
C8    C9    A    
C22   C25   S    
C31   H16   S    
C23   C24   S    
C4    C12   S    
C9    C10   A    
C5    C13   S    
Cu1   O7    S    
O14   C32   S    
C26   O15   S    
C14   C17   A    
C33   H23   S    
C20   O6    A    
O10   C28   S    
C21   O7    A    
C19   C30   S    
C32   H18   S    
C34   H24   S    
C33   H22   S    
C35   O17   D    
C25   C26   S    
Cu2   O6    S    
C1    C6    S    
C32   H19   S    
C15   C29   S    
C12   O3    A    
C4    C22   S    
Cu1   O3    S    
C9    C20   S    
C36   H26   S    
C3    H7    S    
C17   C18   S    
C2    C26   S    
C24   C25   S    
C36   H27   S    
C29   O11   D    
C2    C24   S    
C18   H4    S    
C3    C4    S    
C20   O5    A    
C2    C34   S    
C7    C35   S    
C21   O8    A    
C31   H17   S    
C14   C19   S    
C25   O14   S    
C33   H21   S    
C19   H6    S    
C4    C26   S    
C6    C7    A    
C28   H12   S    
C32   H20   S    
C2    C3    S    
C30   H14   S    
O15   C33   S    
C22   O13   S    
C11   C13   S    
Cu2   N1    S    
Cu2   O4    S    
C13   O10   S    
C17   N2    A    
O13   C31   S    
C18   H5    S    
C10   C11   S    
C1    O1    A    
C35   H25   S    
Cu1   O5    S    
C5    C10   A    
C36   H28   S    
O18   C36   S    
C21   C24   S    
Cu1   Cu2   S    
C22   C23   S    
C28   H11   S    
C16   N2    A    
C14   N1    A    
