data_mof_unit_23247.cif
_audit_creation_date              2012-12-10T20:41:56-0500
_audit_creation_method            fapswitch 2.2
_symmetry_space_group_name_H-M    P1
_symmetry_Int_Tables_number       1
_space_group_crystal_system       triclinic
_cell_length_a                    14.878082
_cell_length_b                    15.527447
_cell_length_c                    9.895498
_cell_angle_alpha                 88.851857
_cell_angle_beta                  90.824932
_cell_angle_gamma                 90.602115
_cell_volume                      2285.22909211

loop_
_atom_site_label
_atom_site_type_symbol
_atom_type_description
_atom_site_fract_x
_atom_site_fract_y
_atom_site_fract_z
_atom_type_partial_charge
C1    C     C_R   0.387217 0.874282 0.500408 0.914188
C2    C     C_R   0.928880 0.531898 0.068600 -0.037753
C3    C     C_R   0.575901 0.982197 0.074028 0.645885
C4    C     C_R   0.076042 0.482778 0.074007 0.645077
C5    C     C_R   0.576052 0.983449 0.930122 0.609367
C6    C     C_R   0.076185 0.484062 0.930104 0.620130
C7    C     C_R   0.428634 0.031783 0.927513 0.075338
C8    C     C_R   0.928164 0.530921 0.927600 0.076176
C9    C     C_3   0.329565 0.012632 0.918683 0.963392
C10   C     C_3   0.829331 0.509892 0.919850 0.959550
C11   C     C_3   0.332031 0.009863 0.075624 -0.610908
C12   C     C_R   0.383060 0.122552 0.498140 0.914610
C13   C     C_3   0.832093 0.508375 0.076755 -0.611599
C14   C     C_R   0.623616 0.116609 0.499689 0.966984
C15   C     C_R   0.618092 0.878259 0.501122 0.991749
C16   C     C_R   0.123120 0.617170 0.499634 0.958525
C17   C     C_R   0.118228 0.378366 0.501135 1.012674
C18   C     C_R   0.295704 0.227110 0.615858 -0.143523
C19   C     C_R   0.295953 0.770382 0.622019 -0.172354
C20   C     C_R   0.793940 0.725568 0.616205 -0.129745
C21   C     C_R   0.797346 0.269213 0.621038 -0.149143
C22   C     C_R   0.320770 0.192184 0.494162 -0.272774
C23   C     C_R   0.886552 0.374755 0.500086 0.942433
C24   C     C_R   0.334780 0.796485 0.501218 -0.217348
C25   C     C_R   0.819958 0.691505 0.494324 -0.268326
C26   C     C_R   0.833015 0.297803 0.499428 -0.210080
C27   C     C_R   0.275730 0.216546 0.373426 0.387804
C28   C     C_R   0.317376 0.751672 0.381506 0.385351
C29   C     C_R   0.774981 0.715886 0.373469 0.388807
C30   C     C_R   0.815469 0.253280 0.379203 0.381344
C31   C     C_R   0.701507 0.769562 0.378710 0.609428
C32   C     C_R   0.746600 0.191202 0.379934 0.536495
C33   C     C_R   0.202163 0.270047 0.378794 0.603183
C34   C     C_R   0.882880 0.622415 0.498162 0.904408
C35   C     C_R   0.247267 0.690898 0.381222 0.544685
C36   C     C_R   0.679045 0.807310 0.501691 -0.301140
C37   C     C_R   0.697825 0.175720 0.498856 -0.251097
C38   C     C_R   0.179813 0.307919 0.501734 -0.284971
C39   C     C_R   0.196555 0.677162 0.498812 -0.249107
C40   C     C_R   0.721593 0.779702 0.621382 -0.343659
C41   C     C_R   0.727119 0.210255 0.621000 -0.330101
C42   C     C_R   0.223358 0.281371 0.621240 -0.296002
C43   C     C_R   0.223785 0.713645 0.620512 -0.356343
C44   C     C_3   0.764699 0.831123 0.730685 1.204588
C45   C     C_3   0.350656 0.279496 0.714272 0.868888
C46   C     C_3   0.768677 0.159344 0.735213 1.105405
C47   C     C_3   0.267917 0.334244 0.727660 1.198286
C48   C     C_3   0.259023 0.664316 0.740853 1.169657
C49   C     C_3   0.365304 0.249792 0.196600 -0.116947
C50   C     C_3   0.335003 0.768657 0.149452 0.012732
C51   C     C_3   0.864161 0.749183 0.196165 -0.116151
C52   C     C_3   0.832069 0.267961 0.145994 -0.012751
C53   C     C_3   0.501020 0.281291 0.645269 -0.167903
C54   C     C_3   0.498459 0.711415 0.732301 -0.129859
C55   C     C_3   0.998883 0.779928 0.652175 -0.172106
C56   C     C_3   0.341967 0.720241 0.734422 0.872672
C57   C     C_3   0.976296 0.141885 0.782822 -0.130914
C58   C     C_3   0.212629 0.116208 0.914816 -0.233735
C59   C     C_3   0.218915 0.912768 0.863217 -0.205482
C60   C     C_3   0.709403 0.610129 0.914934 -0.213875
C61   C     C_3   0.720772 0.406998 0.867697 -0.209513
C62   C     C_3   0.847773 0.776747 0.717533 0.873000
C63   C     C_3   0.848335 0.219950 0.728757 0.873299
C64   C     C_R   0.429187 0.032506 0.068473 -0.038748
F1    F     F_    0.656614 0.788126 0.261234 -0.582900
F2    F     F_    0.720305 0.164279 0.853233 -0.659838
F3    F     F_    0.226964 0.324026 0.851728 -0.610269
F4    F     F_    0.207746 0.675921 0.854640 -0.671840
F5    F     F_    0.373110 0.236754 0.834240 -0.674646
F6    F     F_    0.356216 0.766583 0.850904 -0.706556
F7    F     F_    0.869117 0.732632 0.836689 -0.678528
F8    F     F_    0.863114 0.267635 0.843412 -0.694597
F9    F     F_    0.652938 0.964339 0.143124 -0.524995
F10   F     F_    0.153186 0.465349 0.143116 -0.522944
F11   F     F_    0.653650 0.970969 0.864894 -0.495064
F12   F     F_    0.731023 0.142469 0.269366 -0.611416
F13   F     F_    0.153810 0.471923 0.864809 -0.492181
F14   F     F_    0.156988 0.288275 0.261433 -0.582619
F15   F     F_    0.232530 0.641600 0.271043 -0.608265
F16   F     F_    0.777628 0.916455 0.694184 -0.545581
F17   F     F_    0.788298 0.076010 0.701205 -0.563444
F18   F     F_    0.280592 0.419161 0.688002 -0.547509
F19   F     F_    0.274863 0.578752 0.716067 -0.531934
F20   F     F_    0.722111 0.819222 0.853200 -0.625092
H1    H     H_    0.293272 0.059187 0.126670 0.250279
H2    H     H_    0.328867 0.704971 0.101055 0.267040
H3    H     H_    0.830840 0.811571 0.172139 0.230605
H4    H     H_    0.890850 0.724242 0.100734 0.226783
H5    H     H_    0.922541 0.759240 0.266058 0.121965
H6    H     H_    0.874508 0.308776 0.079130 0.211420
H7    H     H_    0.764327 0.297774 0.149181 0.110321
H8    H     H_    0.828121 0.203344 0.100217 0.260479
H9    H     H_    0.502442 0.251301 0.544770 0.104708
H10   H     H_    0.511377 0.232002 0.726900 0.220424
H11   H     H_    0.559127 0.326516 0.650388 0.175452
H12   H     H_    0.321395 0.944978 0.120829 0.188394
H13   H     H_    0.510366 0.697649 0.841701 0.199125
H14   H     H_    0.500068 0.781861 0.712177 0.187841
H15   H     H_    0.553791 0.682819 0.674947 0.165856
H16   H     H_    0.001293 0.750767 0.551132 0.109247
H17   H     H_    0.008837 0.730081 0.733083 0.224510
H18   H     H_    0.056697 0.825383 0.659204 0.174245
H19   H     H_    0.933575 0.098553 0.846473 0.196786
H20   H     H_    0.010481 0.190782 0.846622 0.190996
H21   H     H_    0.028695 0.101642 0.737600 0.169519
H22   H     H_    0.235538 0.164386 0.989406 0.267708
H23   H     H_    0.793161 0.558002 0.126879 0.249917
H24   H     H_    0.169617 0.066207 0.963910 0.111549
H25   H     H_    0.170538 0.150943 0.838953 0.199453
H26   H     H_    0.180901 0.954926 0.791114 0.171185
H27   H     H_    0.191830 0.916477 0.967057 0.124116
H28   H     H_    0.207280 0.845880 0.830894 0.227911
H29   H     H_    0.730655 0.660443 0.987102 0.264322
H30   H     H_    0.668859 0.559458 0.967026 0.123372
H31   H     H_    0.665254 0.641473 0.838337 0.190839
H32   H     H_    0.681359 0.447233 0.794605 0.181737
H33   H     H_    0.693961 0.411429 0.971583 0.122737
H34   H     H_    0.822199 0.443874 0.123670 0.191064
H35   H     H_    0.710853 0.339308 0.837994 0.225441
H36   H     H_    0.332433 0.312522 0.173426 0.232067
H37   H     H_    0.391663 0.225146 0.100743 0.226184
H38   H     H_    0.423839 0.259104 0.266458 0.123714
H39   H     H_    0.378756 0.809527 0.084517 0.204668
H40   H     H_    0.268145 0.800176 0.153706 0.104485
N1    N     N_R   0.499140 0.000000 0.142800 -0.189184
N2    N     N_R   0.999140 0.500000 0.142800 -0.188567
N3    N     N_R   0.499160 0.000000 0.857150 -0.222038
N4    N     N_R   0.999160 0.500000 0.857150 -0.217312
O1    O     O_R   0.408400 0.908380 0.614690 -0.583006
O2    O     O_R   0.591610 0.908390 0.614650 -0.581620
O3    O     O_R   0.091610 0.591610 0.614650 -0.589446
O4    O     O_R   0.091610 0.408390 0.614650 -0.556335
O5    O     O_R   0.591590 0.091600 0.385310 -0.562341
O6    O     O_R   0.591590 0.908400 0.385310 -0.509821
O7    O     O_R   0.091590 0.591600 0.385310 -0.562428
O8    O     O_R   0.091590 0.408400 0.385310 -0.517442
O9    O     O_3   0.303096 0.189091 0.249099 -0.614951
O10   O     O_3   0.378190 0.759825 0.276516 -0.597720
O11   O     O_3   0.802333 0.688308 0.249180 -0.613131
O12   O     O_R   0.408400 0.091620 0.614690 -0.579739
O13   O     O_3   0.875552 0.262756 0.273278 -0.592840
O14   O     O_3   0.421573 0.329138 0.656640 -0.619055
O15   O     O_3   0.416947 0.673365 0.689358 -0.621093
O16   O     O_3   0.919102 0.827307 0.663050 -0.627009
O17   O     O_3   0.926909 0.182427 0.677250 -0.631077
O18   O     O_3   0.287115 0.082276 0.847805 -0.581200
O19   O     O_3   0.311929 0.931943 0.859582 -0.575711
O20   O     O_3   0.785000 0.578111 0.848265 -0.583816
O21   O     O_3   0.813232 0.428461 0.862361 -0.573678
O22   O     O_R   0.908400 0.408380 0.614690 -0.558883
O23   O     O_R   0.908400 0.591620 0.614690 -0.586013
O24   O     O_R   0.408370 0.908370 0.385350 -0.597786
O25   O     O_R   0.408370 0.091630 0.385350 -0.592391
O26   O     O_R   0.908370 0.408370 0.385350 -0.604243
O27   O     O_R   0.908370 0.591630 0.385350 -0.593525
O28   O     O_R   0.591610 0.091610 0.614650 -0.584706
Zn1   Zn    Zn3+2 0.500010 0.000000 0.653130 1.091821
Zn2   Zn    Zn3+2 0.000010 0.500000 0.653130 1.114938
Zn3   Zn    Zn3+2 0.499980 0.000000 0.346870 1.084703
Zn4   Zn    Zn3+2 0.999980 0.500000 0.346870 1.086237

loop_
_geom_bond_atom_site_label_1
_geom_bond_atom_site_label_2
_ccdc_geom_bond_type
C19   C56   S    
C11   H12   S    
C57   H21   S    
C21   C26   A    
C5    F11   S    
C57   O17   S    
C53   H11   S    
C58   H25   S    
C60   H30   S    
C12   O25   A    
C13   H23   S    
O1    Zn1   S    
C13   H34   S    
N4    Zn2   S    
C15   O6    A    
C34   O27   A    
C27   C33   A    
C55   H18   S    
C27   O9    S    
C30   O13   S    
O2    Zn1   S    
O28   Zn1   S    
C46   F2    S    
C1    O1    A    
C18   C42   A    
C10   O21   S    
C20   C40   A    
C33   F14   S    
C47   F18   S    
C49   H36   S    
C61   H35   S    
C20   C25   A    
O5    Zn3   S    
C12   C22   S    
C9    O18   S    
C59   H26   S    
C1    O24   A    
C48   C56   S    
C53   O14   S    
C23   C26   S    
C16   O3    A    
C2    C13   S    
C56   O15   S    
C52   H6    S    
C8    N4    A    
C28   C35   A    
C55   H16   S    
C59   H27   S    
C41   C46   S    
C12   O12   A    
C54   H13   S    
N1    Zn3   S    
O7    Zn4   S    
C43   C48   S    
N3    Zn1   S    
C31   C36   A    
C4    F10   S    
C25   C34   S    
C17   C38   S    
C54   O15   S    
O27   Zn4   S    
O24   Zn3   S    
C17   O4    A    
C20   C62   S    
C60   H29   S    
C61   H32   S    
C57   H19   S    
C52   O13   S    
C47   F3    S    
C19   C43   A    
C45   C47   S    
C60   H31   S    
C25   C29   A    
C29   O11   S    
C61   H33   S    
O23   Zn2   S    
C44   F16   S    
C28   O10   S    
C4    C6    A    
C11   C64   S    
C51   H3    S    
C6    F13   S    
C39   C43   A    
C44   C62   S    
C45   F5    S    
C9    O19   S    
O4    Zn2   S    
C58   H22   S    
O25   Zn3   S    
O3    Zn2   S    
C35   C39   A    
O26   Zn4   S    
O12   Zn1   S    
C46   F17   S    
C36   C40   A    
C49   H37   S    
C5    N3    A    
C17   O8    A    
C58   O18   S    
C59   H28   S    
C50   H40   S    
C32   C37   A    
C48   F4    S    
C51   O11   S    
C9    C11   S    
C21   C41   A    
C2    N2    A    
C23   O22   A    
C26   C30   A    
C56   F6    S    
C22   C27   A    
C45   O14   S    
C54   H15   S    
C52   H8    S    
C18   C45   S    
C3    C5    A    
C15   C36   S    
C49   O9    S    
C31   F1    S    
C57   H20   S    
C55   O16   S    
O22   Zn2   S    
C14   O28   A    
C53   H10   S    
C18   C22   A    
C2    C8    A    
C50   H39   S    
C24   C28   A    
C62   O16   S    
C44   F20   S    
C10   C13   S    
C51   H4    S    
C32   F12   S    
C34   O23   A    
C3    N1    A    
C38   C42   A    
C14   O5    A    
N2    Zn4   S    
C55   H17   S    
C33   C38   A    
C48   F19   S    
C4    N2    A    
C46   C63   S    
C19   C24   A    
C6    N4    A    
C29   C31   A    
C51   H5    S    
C14   C37   S    
C30   C32   A    
C15   O2    A    
C11   H1    S    
C49   H38   S    
C35   F15   S    
C62   F7    S    
O6    Zn3   S    
C58   H24   S    
C42   C47   S    
C37   C41   A    
C3    F9    S    
C7    C64   A    
C21   C63   S    
C50   H2    S    
C16   C39   S    
O8    Zn4   S    
C7    C9    S    
C40   C44   S    
C63   F8    S    
C1    C24   S    
C8    C10   S    
C64   N1    A    
C23   O26   A    
C50   O10   S    
C54   H14   S    
C52   H7    S    
C60   O20   S    
C7    N3    A    
C16   O7    A    
C61   O21   S    
C63   O17   S    
C53   H9    S    
C10   O20   S    
C59   O19   S    
