data_mof_unit_52851.cif
_audit_creation_date              2012-12-10T20:36:33-0500
_audit_creation_method            fapswitch 2.2
_symmetry_space_group_name_H-M    P1
_symmetry_Int_Tables_number       1
_space_group_crystal_system       triclinic
_cell_length_a                    10.51221
_cell_length_b                    10.762826
_cell_length_c                    9.852326
_cell_angle_alpha                 90.735494
_cell_angle_beta                  90.66118
_cell_angle_gamma                 90.07342
_cell_volume                      1114.53568062

loop_
_atom_site_label
_atom_site_type_symbol
_atom_type_description
_atom_site_fract_x
_atom_site_fract_y
_atom_site_fract_z
_atom_type_partial_charge
C1    C     C_R   0.502774 0.259842 0.498162 0.886970
C2    C     C_R   0.462663 0.938867 0.613853 0.189233
C3    C     C_3   0.520780 0.934527 0.752751 0.238313
C4    C     C_R   0.257342 0.500086 0.499260 0.894498
C5    C     C_3   0.523620 0.075540 0.750151 -0.514578
C6    C     C_R   0.436555 0.409604 0.069087 0.200989
C7    C     C_R   0.571780 0.582493 0.074085 -0.126619
C8    C     C_R   0.571736 0.582550 0.929990 -0.060491
C9    C     C_R   0.436858 0.409349 0.926497 0.217606
C10   C     C_3   0.297819 0.382721 0.918125 -0.506630
C11   C     C_3   0.297306 0.383708 0.072169 -0.517321
C12   C     C_3   0.956744 0.603086 0.439763 -0.234368
C13   C     C_R   0.499427 0.739672 0.500436 0.897028
C14   C     C_R   0.742690 0.499695 0.500874 0.865329
C15   C     C_3   0.044060 0.396018 0.561295 -0.258469
C16   C     C_3   0.956873 0.398071 0.433540 -0.232173
C17   C     C_3   0.877538 0.499520 0.502384 0.004495
C18   C     C_3   0.963474 0.498034 0.627150 0.509749
C19   C     C_3   0.043949 0.602078 0.567521 -0.253621
C20   C     C_3   0.546840 0.112482 0.230580 -0.357468
C21   C     C_3   0.684532 0.158100 0.226435 -0.831730
C22   C     C_3   0.038346 0.501663 0.370484 -0.100679
C23   C     C_3   0.122588 0.500097 0.498329 -0.040425
C24   C     C_R   0.465732 0.065752 0.610715 0.015802
C25   C     C_R   0.497836 0.127340 0.491922 -0.144324
C26   C     C_R   0.514136 0.058528 0.368269 0.149078
C27   C     C_R   0.508332 0.930405 0.374138 -0.257534
C28   C     C_R   0.491652 0.870959 0.497938 -0.211413
H1    H     H_    0.917647 0.315519 0.378845 0.146838
H2    H     H_    0.275780 0.291430 0.115803 0.196467
H3    H     H_    0.083834 0.312968 0.612214 0.144493
H4    H     H_    0.083562 0.683935 0.623291 0.155450
H5    H     H_    0.916736 0.686685 0.390147 0.147245
H6    H     H_    0.072036 0.503680 0.264359 0.143622
H7    H     H_    0.525769 0.876700 0.282384 0.173815
H8    H     H_    0.997012 0.495231 0.818674 0.320700
H9    H     H_    0.702927 0.200469 0.126359 0.244041
H10   H     H_    0.704839 0.228404 0.306924 0.264087
H11   H     H_    0.750537 0.078631 0.240257 0.241453
H12   H     H_    0.615837 0.888876 0.756181 0.088644
H13   H     H_    0.536059 0.041127 0.148561 0.176348
H14   H     H_    0.478598 0.185325 0.200181 0.220724
H15   H     H_    0.480209 0.888550 0.935299 0.321086
H16   H     H_    0.458386 0.120685 0.823860 0.220977
H17   H     H_    0.621734 0.114314 0.749829 0.177273
H18   H     H_    0.627692 0.650670 0.130172 0.140407
H19   H     H_    0.627571 0.650771 0.877166 0.149920
H20   H     H_    0.242387 0.460296 0.873354 0.219675
H21   H     H_    0.277622 0.289634 0.872635 0.200013
H22   H     H_    0.242578 0.462517 0.115743 0.218021
N1    N     N_R   0.499140 0.499140 0.142800 -0.104114
N2    N     N_R   0.499140 0.499180 0.857150 -0.105855
O1    O     O_R   0.500020 0.316790 0.614690 -0.615315
O2    O     O_3   0.434108 0.888827 0.846869 -0.737239
O3    O     O_R   0.500000 0.316760 0.385350 -0.623192
O4    O     O_R   0.313960 0.499990 0.614650 -0.626125
O5    O     O_R   0.313940 0.499950 0.385310 -0.625450
O6    O     O_R   0.500000 0.683240 0.614650 -0.604931
O7    O     O_R   0.499980 0.683210 0.385310 -0.629319
O8    O     O_R   0.686060 0.500050 0.614690 -0.578568
O9    O     O_R   0.686040 0.500010 0.385350 -0.633091
O10   O     O_3   0.919476 0.496091 0.760500 -0.764853
Zn1   Zn    Zn3+2 0.500010 0.500020 0.653130 0.978169
Zn2   Zn    Zn3+2 0.499990 0.499980 0.346870 0.937336

loop_
_geom_bond_atom_site_label_1
_geom_bond_atom_site_label_2
_ccdc_geom_bond_type
C4    O5    A    
C12   C17   S    
C15   C18   S    
C19   C23   S    
C24   C25   A    
C13   C28   S    
C15   H3    S    
C13   O7    A    
C6    N1    A    
O9    Zn2   S    
C14   O8    A    
C9    C10   S    
C8    N2    A    
H15   O2    S    
C20   H14   S    
C21   H11   S    
O3    Zn2   S    
C6    C9    A    
C15   C23   S    
C2    C3    S    
C26   C27   A    
O4    Zn1   S    
C7    N1    A    
C7    C8    A    
C11   H22   S    
C4    O4    A    
C1    C25   S    
O1    Zn1   S    
C14   C17   S    
O7    Zn2   S    
C9    N2    A    
C20   C26   S    
C12   H5    S    
O8    Zn1   S    
H8    O10   S    
C19   H4    S    
C12   C19   S    
C5    H16   S    
C3    H12   S    
C17   C18   S    
C6    C11   S    
C10   H20   S    
C22   H6    S    
C3    O2    S    
C1    O3    A    
C8    H19   S    
C2    C28   A    
C10   C11   S    
N1    Zn2   S    
C15   C16   S    
C7    H18   S    
C12   C22   S    
O6    Zn1   S    
C21   H9    S    
C20   C21   S    
C16   H1    S    
O5    Zn2   S    
C18   C19   S    
C27   C28   A    
C13   O6    A    
C4    C23   S    
C1    O1    A    
C22   C23   S    
C5    C24   S    
C16   C22   S    
C2    C24   A    
C27   H7    S    
C25   C26   A    
C14   O9    A    
C10   H21   S    
C5    H17   S    
C18   O10   S    
C21   H10   S    
C11   H2    S    
C20   H13   S    
C16   C17   S    
C3    C5    S    
N2    Zn1   S    
