data_mof_unit_5833.cif
_audit_creation_date              2012-10-26T19:46:27-0400
_audit_creation_method            fapswitch 2.2
_symmetry_space_group_name_H-M    P1
_symmetry_Int_Tables_number       1
_space_group_crystal_system       triclinic
_cell_length_a                    10.840535
_cell_length_b                    9.693997
_cell_length_c                    15.140701
_cell_angle_alpha                 90.000022
_cell_angle_beta                  100.888962
_cell_angle_gamma                 90.000837
_cell_volume                      1562.46001141

loop_
_atom_site_label
_atom_site_type_symbol
_atom_type_description
_atom_site_fract_x
_atom_site_fract_y
_atom_site_fract_z
_atom_type_partial_charge
C1    C     C_R   0.262872 0.499790 0.501668 0.577170
C2    C     C_R   0.935714 0.623642 0.497522 -0.106227
C3    C     C_R   0.935913 0.373413 0.499440 -0.106683
C4    C     C_R   0.064293 0.623642 0.502480 -0.106204
C5    C     C_R   0.463732 0.617338 0.090434 -0.108376
C6    C     C_R   0.460630 0.381339 0.899399 -0.096729
C7    C     C_R   0.536232 0.617343 0.909564 -0.108370
C8    C     C_R   0.539340 0.381335 0.100598 -0.096729
C9    C     C_R   0.466086 0.618166 0.182484 -0.106860
C10   C     C_R   0.460066 0.381616 0.807433 -0.093132
C11   C     C_R   0.533892 0.618169 0.817514 -0.106846
C12   C     C_R   0.737128 0.499792 0.498331 0.577148
C13   C     C_R   0.539910 0.381614 0.192563 -0.093130
C14   C     C_R   0.502890 0.499945 0.234006 0.007352
C15   C     C_R   0.497096 0.499945 0.765992 0.007354
C16   C     C_R   0.500621 0.499046 0.048682 0.028907
C17   C     C_R   0.499345 0.499049 0.951317 0.028905
C18   C     C_R   0.871104 0.498864 0.497939 0.004976
C19   C     C_R   0.128896 0.498862 0.502058 0.004992
C20   C     C_R   0.502050 0.499993 0.330484 0.569501
C21   C     C_R   0.497949 0.499992 0.669516 0.569493
C22   C     C_R   0.413804 0.075685 0.436386 0.280113
C23   C     C_R   0.587481 0.924700 0.562542 0.281967
C24   C     C_R   0.586197 0.075687 0.563611 0.280130
C25   C     C_R   0.412520 0.924696 0.437457 0.281965
C26   C     C_R   0.064077 0.373412 0.500551 -0.106688
Cu1   Cu    Cu3+1 0.500000 0.640660 0.500000 1.138463
Cu2   Cu    Cu3+1 0.500000 0.359340 0.500000 1.138277
H1    H     H_    0.431622 0.708821 0.051835 0.132162
H2    H     H_    0.887274 0.721356 0.493343 0.196926
H3    H     H_    0.887900 0.275418 0.499461 0.177588
H4    H     H_    0.112740 0.721355 0.506663 0.196923
H5    H     H_    0.233016 0.355612 0.281284 0.350811
H6    H     H_    0.801887 0.648747 0.698408 0.350379
H7    H     H_    0.766951 0.355632 0.718699 0.350884
H8    H     H_    0.198156 0.648751 0.301544 0.350394
H9    H     H_    0.429293 0.289709 0.929614 0.130136
H10   H     H_    0.568334 0.708836 0.948161 0.132157
H11   H     H_    0.570672 0.289709 0.070378 0.130139
H12   H     H_    0.437537 0.710775 0.212976 0.196517
H13   H     H_    0.429131 0.289945 0.768631 0.163620
H14   H     H_    0.562445 0.710782 0.787022 0.196510
H15   H     H_    0.570840 0.289945 0.231364 0.163633
H16   H     H_    0.112083 0.275416 0.500525 0.177588
N1    N     N_R   0.500000 0.852070 0.500000 -0.324263
N2    N     N_R   0.500000 0.147930 0.500000 -0.327958
O1    O     O_R   0.319640 0.618740 0.499990 -0.454461
O2    O     O_2   0.179142 0.106513 0.328458 -0.202715
O3    O     O_3   0.279180 0.334553 0.342782 -0.491218
O4    O     O_2   0.833618 0.870909 0.611035 -0.285168
O5    O     O_2   0.718051 0.892279 0.734384 -0.227790
O6    O     O_3   0.719833 0.665980 0.658466 -0.502189
O7    O     O_2   0.635756 0.139662 0.739315 -0.280649
O8    O     O_2   0.820846 0.106539 0.671538 -0.202700
O9    O     O_3   0.720815 0.334559 0.657228 -0.491322
O10   O     O_2   0.166379 0.870880 0.388950 -0.285138
O11   O     O_2   0.281968 0.892280 0.265609 -0.227828
O12   O     O_R   0.680360 0.381260 0.500010 -0.462722
O13   O     O_3   0.280176 0.665967 0.341526 -0.502212
O14   O     O_R   0.680360 0.618740 0.500010 -0.454463
O15   O     O_R   0.319640 0.381260 0.499990 -0.462720
O16   O     O_R   0.499990 0.618780 0.371460 -0.459232
O17   O     O_R   0.500010 0.381220 0.628540 -0.450073
O18   O     O_R   0.500010 0.618780 0.628540 -0.459238
O19   O     O_R   0.499990 0.381220 0.371460 -0.450077
O20   O     O_2   0.364239 0.139664 0.260671 -0.280659
S1    S     S_3+6 0.309288 0.165231 0.343252 0.095314
S2    S     S_3+6 0.713038 0.836553 0.641313 0.078532
S3    S     S_3+6 0.690709 0.165238 0.656744 0.095323
S4    S     S_3+6 0.286969 0.836539 0.358680 0.078521

loop_
_geom_bond_atom_site_label_1
_geom_bond_atom_site_label_2
_ccdc_geom_bond_type
C23   S2    S    
C6    C10   A    
C2    C4    A    
C23   C24   A    
C5    C9    A    
C8    C13   A    
C23   N1    A    
C8    H11   S    
Cu2   O12   S    
O11   S4    D    
C2    C18   A    
C15   C21   S    
O10   S4    D    
Cu1   O1    S    
O6    S2    S    
C2    H2    S    
C9    C14   A    
H8    O13   S    
C24   N2    A    
Cu2   O15   S    
Cu1   N1    S    
Cu2   O19   S    
C6    H9    S    
C12   O12   A    
C8    C16   A    
C4    H4    S    
C13   C14   A    
C10   H13   S    
C7    C11   A    
Cu2   N2    S    
H7    O9    S    
O9    S3    S    
O8    S3    D    
C11   C15   A    
C11   H14   S    
C3    H3    S    
C25   N1    A    
O5    S2    D    
Cu1   O16   S    
C7    H10   S    
C24   S3    S    
O20   S1    D    
C5    H1    S    
Cu1   O14   S    
C9    H12   S    
O2    S1    D    
C20   O16   A    
C22   S1    S    
C1    C19   S    
C21   O17   A    
Cu1   O18   S    
O13   S4    S    
C26   H16   S    
C12   O14   A    
Cu2   O17   S    
C14   C20   S    
C20   O19   A    
C13   H15   S    
C3    C18   A    
H6    O6    S    
H5    O3    S    
C12   C18   S    
Cu1   Cu2   S    
C19   C26   A    
C6    C17   A    
C1    O1    A    
C5    C16   A    
C25   S4    S    
O3    S1    S    
C22   N2    A    
O7    S3    D    
C4    C19   A    
O4    S2    D    
C3    C26   A    
C16   C17   S    
C1    O15   A    
C10   C15   A    
C21   O18   A    
C22   C25   A    
C7    C17   A    
