data_mof_unit_14265.cif
_audit_creation_date              2012-10-26T20:32:01-0400
_audit_creation_method            fapswitch 2.2
_symmetry_space_group_name_H-M    P1
_symmetry_Int_Tables_number       1
_space_group_crystal_system       triclinic
_cell_length_a                    10.629337
_cell_length_b                    10.876199
_cell_length_c                    9.552216
_cell_angle_alpha                 90.909398
_cell_angle_beta                  89.299507
_cell_angle_gamma                 90.081377
_cell_volume                      1104.07853075

loop_
_atom_site_label
_atom_site_type_symbol
_atom_type_description
_atom_site_fract_x
_atom_site_fract_y
_atom_site_fract_z
_atom_type_partial_charge
C1    C     C_R   0.497763 0.262114 0.498015 0.540666
C2    C     C_R   0.532888 0.939681 0.619112 0.015535
C3    C     C_3   0.472473 0.936975 0.761026 0.247422
C4    C     C_R   0.259359 0.499600 0.500882 0.553034
C5    C     C_3   0.470144 0.076471 0.757315 -0.209820
C6    C     C_R   0.593581 0.558154 0.073458 0.103039
C7    C     C_R   0.400916 0.454706 0.074758 -0.007820
C8    C     C_R   0.401074 0.454268 0.926075 0.002802
C9    C     C_R   0.594132 0.557259 0.926027 0.167623
C10   C     C_3   0.730926 0.526082 0.919882 0.230203
C11   C     C_3   0.730241 0.529152 0.078204 -0.216191
C12   C     C_3   0.962451 0.494795 0.367143 -0.123444
C13   C     C_R   0.501514 0.737346 0.500731 0.567843
C14   C     C_R   0.740790 0.499382 0.499279 0.550936
C15   C     C_3   0.038395 0.502884 0.634421 -0.090958
C16   C     C_3   0.956892 0.399866 0.568488 -0.099450
C17   C     C_3   0.877863 0.498706 0.498330 0.045109
C18   C     C_3   0.957050 0.601688 0.564340 -0.116629
C19   C     C_3   0.043605 0.597891 0.433032 -0.116293
C20   C     C_3   0.455203 0.109076 0.223185 -0.228890
C21   C     C_3   0.314561 0.141822 0.220768 -0.292787
C22   C     C_3   0.266463 0.148882 0.071149 -0.459400
C23   C     C_3   0.043575 0.396049 0.437256 -0.144382
C24   C     C_3   0.122583 0.499123 0.502829 0.040477
C25   C     C_R   0.530665 0.066223 0.615326 -0.037270
C26   C     C_R   0.503475 0.128249 0.491930 0.018295
C27   C     C_R   0.491125 0.057927 0.364730 -0.026908
C28   C     C_R   0.497553 0.929827 0.371131 -0.149799
C29   C     C_R   0.509581 0.870007 0.498916 0.025566
Cu1   Cu    Cu3+1 0.499990 0.499980 0.640670 1.020898
Cu2   Cu    Cu3+1 0.500010 0.500020 0.359330 0.924613
F1    F     F_    0.752644 0.408528 0.867077 -0.629311
F2    F     F_    0.352853 0.886337 0.758179 -0.628745
H1    H     H_    0.918341 0.318757 0.623687 0.157358
H2    H     H_    0.072091 0.506143 0.743980 0.131736
H3    H     H_    0.918542 0.685842 0.616236 0.108275
H4    H     H_    0.082041 0.679006 0.377736 0.122783
H5    H     H_    0.932559 0.490332 0.256730 0.115368
H6    H     H_    0.081935 0.311829 0.385355 0.103219
H7    H     H_    0.483264 0.876117 0.276097 0.140640
H8    H     H_    0.168923 0.185349 0.072313 0.144817
H9    H     H_    0.327189 0.209920 0.007617 0.138969
H10   H     H_    0.266149 0.055845 0.021449 0.193286
H11   H     H_    0.258566 0.070674 0.276238 0.169662
H12   H     H_    0.534307 0.898794 0.842619 0.101038
H13   H     H_    0.298088 0.231148 0.275602 0.174950
H14   H     H_    0.515607 0.187126 0.191405 0.180749
H15   H     H_    0.473792 0.038814 0.139466 0.128100
H16   H     H_    0.373730 0.115898 0.754121 0.163519
H17   H     H_    0.533377 0.120323 0.835434 0.114698
H18   H     H_    0.321725 0.415662 0.130297 0.119173
H19   H     H_    0.322469 0.413988 0.871024 0.104888
H20   H     H_    0.790090 0.598450 0.871076 0.093535
H21   H     H_    0.748843 0.437895 0.124532 0.181093
H22   H     H_    0.785354 0.607116 0.122584 0.068682
N1    N     N_R   0.500800 0.500930 0.147930 -0.232409
N2    N     N_R   0.500800 0.500890 0.852020 -0.199598
O1    O     O_R   0.500000 0.319640 0.618810 -0.485104
O2    O     O_R   0.500010 0.319680 0.381230 -0.521389
O3    O     O_R   0.316850 0.499950 0.618770 -0.509494
O4    O     O_R   0.316860 0.499990 0.381190 -0.517799
O5    O     O_R   0.499990 0.680320 0.618770 -0.472693
O6    O     O_R   0.500000 0.680360 0.381190 -0.516855
O7    O     O_R   0.683140 0.500010 0.618810 -0.453541
O8    O     O_R   0.683150 0.500050 0.381230 -0.523623

loop_
_geom_bond_atom_site_label_1
_geom_bond_atom_site_label_2
_ccdc_geom_bond_type
C12   C17   S    
C15   C18   S    
C23   C24   S    
C28   H7    S    
C14   C17   S    
C20   C27   S    
Cu1   O7    S    
Cu2   N1    S    
C2    C25   A    
C21   H11   S    
C9    C10   S    
Cu2   O4    S    
C22   H10   S    
C13   O6    A    
Cu1   Cu2   S    
C13   C29   S    
C14   O7    A    
C4    O3    A    
C6    C9    A    
Cu1   O5    S    
C2    C3    S    
C7    H18   S    
C7    C8    A    
C21   H13   S    
C22   H9    S    
C21   C22   S    
C12   C23   S    
C5    H16   S    
C26   C27   A    
C20   H15   S    
C11   H21   S    
C7    N1    A    
C19   C24   S    
C2    C29   A    
C23   H6    S    
Cu1   O1    S    
C12   C19   S    
C15   H2    S    
C15   C24   S    
C14   O8    A    
C17   C18   S    
C16   C23   S    
C9    N2    A    
C1    O2    A    
C12   H5    S    
C1    C26   S    
C4    C24   S    
C5    C25   S    
C5    H17   S    
C20   H14   S    
C10   C11   S    
C3    F2    S    
C6    C11   S    
C15   C16   S    
C22   H8    S    
Cu1   N2    S    
C10   F1    S    
Cu2   O6    S    
C11   H22   S    
C20   C21   S    
C18   C19   S    
Cu2   O2    S    
C27   C28   A    
Cu2   O8    S    
C10   H20   S    
C8    H19   S    
C28   C29   A    
C19   H4    S    
C16   H1    S    
C25   C26   A    
C1    O1    A    
C18   H3    S    
C4    O4    A    
C3    H12   S    
C8    N2    A    
C13   O5    A    
C6    N1    A    
C16   C17   S    
C3    C5    S    
Cu1   O3    S    
