data_mof_unit_14533.cif
_audit_creation_date              2012-12-10T16:44:18-0500
_audit_creation_method            fapswitch 2.2
_symmetry_space_group_name_H-M    P1
_symmetry_Int_Tables_number       1
_space_group_crystal_system       triclinic
_cell_length_a                    7.429649
_cell_length_b                    8.716371
_cell_length_c                    13.376228
_cell_angle_alpha                 94.033155
_cell_angle_beta                  77.346728
_cell_angle_gamma                 103.099334
_cell_volume                      823.012574099

loop_
_atom_site_label
_atom_site_type_symbol
_atom_type_description
_atom_site_fract_x
_atom_site_fract_y
_atom_site_fract_z
_atom_type_partial_charge
C1    C     C_R   0.544844 0.800107 0.503054 0.906604
C2    C     C_R   0.336370 0.496823 0.807192 -0.102949
C3    C     C_2   0.568731 0.967663 0.504448 -0.484013
C4    C     C_R   0.399363 0.497834 0.694614 0.778458
C5    C     C_2   0.427218 0.032842 0.495593 0.437982
C6    C     C_R   0.454584 0.200126 0.497044 0.764069
C7    C     C_R   0.602031 0.512691 0.305811 0.845121
C8    C     C_R   0.872179 0.696923 0.055715 -0.274336
C9    C     C_R   0.663685 0.543830 0.195905 -0.205788
C10   C     C_R   0.151169 0.419254 0.849452 -0.293400
C11   C     C_R   0.093434 0.397716 0.954295 -0.215408
C12   C     C_R   0.413237 0.516904 0.977720 -0.016713
C13   C     C_R   0.221517 0.444068 0.018426 0.605851
C14   C     C_R   0.463252 0.558971 0.872942 0.010149
C15   C     C_R   0.556120 0.554094 0.037050 0.094649
C16   C     C_R   0.733174 0.653995 0.996649 0.051919
C17   C     C_R   0.768934 0.711898 0.898276 -0.186480
C18   C     C_R   0.636558 0.665160 0.837268 -0.161945
C19   C     C_R   0.531164 0.491911 0.134250 -0.247284
C20   C     C_R   0.836531 0.644774 0.155710 0.683056
Cu1   Cu    Cu3+1 0.321300 0.483160 0.488710 1.041479
Cu2   Cu    Cu3+1 0.678700 0.516840 0.511290 1.016333
F1    F     F_    0.967230 0.698240 0.213973 -0.600552
F2    F     F_    0.254524 0.946282 0.485119 -0.622459
F3    F     F_    0.149602 0.429063 0.120404 -0.661204
H1    H     H_    0.010863 0.617559 0.579396 0.240013
H2    H     H_    0.989074 0.382398 0.420651 0.248725
H3    H     H_    0.901078 0.792368 0.867719 0.145932
H4    H     H_    0.006690 0.774468 0.025354 0.170310
H5    H     H_    0.409328 0.402130 0.164487 0.241611
H6    H     H_    0.050612 0.373754 0.801201 0.190239
H7    H     H_    0.947891 0.342708 0.986242 0.175115
H8    H     H_    0.669936 0.718065 0.762948 0.160129
H9    H     H_    0.705468 0.038724 0.512806 0.163401
N1    N     N_2   0.947230 0.542220 0.528320 -0.186735
N2    N     N_2   0.052770 0.457780 0.471680 -0.183600
O1    O     O_R   0.383920 0.714220 0.492660 -0.512779
O2    O     O_R   0.685730 0.742660 0.511730 -0.567102
O3    O     O_R   0.275440 0.478800 0.636790 -0.601668
O4    O     O_R   0.577250 0.507240 0.655860 -0.594286
O5    O     O_R   0.314270 0.257340 0.488270 -0.540460
O6    O     O_R   0.616080 0.285780 0.507340 -0.631655
O7    O     O_R   0.422750 0.492760 0.344140 -0.560486
O8    O     O_R   0.724560 0.521200 0.363210 -0.519845

loop_
_geom_bond_atom_site_label_1
_geom_bond_atom_site_label_2
_ccdc_geom_bond_type
C2    C4    S    
C20   F1    S    
C7    O7    A    
H2    N2    S    
C14   C18   A    
C9    C20   A    
N1    N2    D    
Cu1   O3    S    
C4    O3    A    
C1    O1    A    
Cu2   O4    S    
C17   H3    S    
C17   C18   A    
C8    C16   A    
Cu1   N2    S    
C8    C20   A    
Cu1   Cu2   S    
C15   C19   A    
Cu2   N1    S    
C11   C13   A    
C13   F3    S    
Cu2   O6    S    
C5    F2    S    
C1    O2    A    
Cu1   O5    S    
C8    H4    S    
C12   C14   A    
C11   H7    S    
C12   C15   A    
C5    C6    S    
C2    C14   A    
C18   H8    S    
C10   C11   A    
C15   C16   A    
C2    C10   A    
C3    C5    D    
H1    N1    S    
Cu1   O1    S    
C12   C13   A    
C6    O6    A    
C7    C9    S    
C3    H9    S    
C7    O8    A    
Cu1   O7    S    
C19   H5    S    
C10   H6    S    
C9    C19   A    
Cu2   O8    S    
C4    O4    A    
C16   C17   A    
C1    C3    S    
C6    O5    A    
Cu2   O2    S    
