data_mof_unit_12928.cif
_audit_creation_date              2013-03-05T15:48:19-0500
_audit_creation_method            fapswitch 2.2
_symmetry_space_group_name_H-M    P1
_symmetry_Int_Tables_number       1
_space_group_crystal_system       triclinic
_cell_length_a                    21.119808
_cell_length_b                    7.235349
_cell_length_c                    18.240453
_cell_angle_alpha                 89.936902
_cell_angle_beta                  93.556137
_cell_angle_gamma                 89.948578
_cell_volume                      2781.93875963

loop_
_atom_site_label
_atom_site_type_symbol
_atom_site_description
_atom_site_fract_x
_atom_site_fract_y
_atom_site_fract_z
_atom_type_partial_charge
O1    O     O_R   0.448880 0.506250 0.415280 -0.579144
O2    O     O_R   0.551120 0.006250 0.584720 -0.576233
O3    O     O_R   0.434830 0.174000 0.557310 -0.563797
O4    O     O_R   0.565170 0.674000 0.442690 -0.563921
C1    C     C_R   0.416943 0.344584 0.579609 0.923577
C2    C     C_R   0.583062 0.844592 0.420392 0.922911
O5    O     O_R   0.441680 0.176440 0.414130 -0.577639
O6    O     O_R   0.558320 0.676440 0.585870 -0.579330
O7    O     O_R   0.558020 0.007570 0.440520 -0.562064
O8    O     O_R   0.441980 0.507570 0.559480 -0.562525
C3    C     C_R   0.427952 0.344930 0.388238 0.915246
C4    C     C_R   0.572046 0.845006 0.611749 0.915506
O9    O     O_3   0.538160 0.339670 0.508820 -0.272385
O10   O     O_3   0.461840 0.839670 0.491180 -0.273293
V1    V     V_3+5 0.492920 0.064260 0.498360 1.164264
V2    V     V_3+5 0.507080 0.564260 0.501640 1.163542
C5    C     C_R   0.876707 0.020285 0.686162 -0.016173
C6    C     C_R   0.117343 0.390777 0.315674 -0.014630
C7    C     C_R   0.888543 0.946108 0.817185 -0.222684
C8    C     C_R   0.111118 0.436187 0.182597 -0.213200
C9    C     C_R   0.582851 0.856746 0.746503 -0.260416
C10   C     C_R   0.414797 0.304742 0.254586 -0.260486
C11   C     C_R   0.615906 0.903319 0.812408 -0.047434
C12   C     C_R   0.377954 0.267235 0.190300 -0.049955
C13   C     C_R   0.681583 0.941987 0.814140 0.281831
C14   C     C_R   0.311159 0.281599 0.188894 0.277063
C15   C     C_R   0.715650 0.909445 0.750038 -0.057966
C16   C     C_R   0.282007 0.357871 0.250784 -0.060452
C17   C     C_R   0.679716 0.883008 0.682023 0.070919
C18   C     C_R   0.319868 0.375455 0.317963 0.072478
C19   C     C_R   0.783811 0.919511 0.750209 0.077549
C20   C     C_R   0.215288 0.399942 0.249906 0.078700
C21   C     C_R   0.812232 0.959370 0.682986 0.023548
C22   C     C_R   0.185040 0.401587 0.317735 0.025890
C23   C     C_R   0.774863 0.934423 0.615796 0.027471
C24   C     C_R   0.224084 0.415702 0.384243 0.028025
C25   C     C_R   0.710656 0.890070 0.616503 -0.223033
C26   C     C_R   0.290045 0.410106 0.382906 -0.227336
C27   C     C_R   0.824876 0.885798 0.814204 -0.025635
C28   C     C_R   0.177910 0.445936 0.184360 -0.017028
C29   C     C_R   0.913388 0.019526 0.753551 -0.015761
C30   C     C_R   0.081292 0.401052 0.247953 -0.017035
C31   C     C_R   0.613031 0.855724 0.680681 -0.150635
C32   C     C_R   0.386665 0.349765 0.319390 -0.153672
H1    H     H_    0.531953 0.835095 0.745521 0.134118
H2    H     H_    0.465805 0.284994 0.255653 0.135449
H3    H     H_    0.684174 0.866996 0.564447 0.102868
H4    H     H_    0.318220 0.426201 0.434273 0.108045
C33   C     C_1   0.864685 0.938984 0.132297 -0.266443
C34   C     C_1   0.135367 0.438948 0.867777 -0.267012
C35   C     C_1   0.821930 0.924966 0.176178 0.091705
C36   C     C_1   0.178129 0.424869 0.823906 0.088988
C37   C     C_1   0.771458 0.905859 0.228414 0.017988
C38   C     C_1   0.228593 0.405737 0.771662 0.015564
C39   C     C_1   0.728923 0.889214 0.272451 0.011658
C40   C     C_1   0.271118 0.389114 0.727610 0.010135
C41   C     C_1   0.678348 0.870060 0.324550 0.071479
C42   C     C_1   0.321681 0.370005 0.675490 0.070542
C43   C     C_1   0.635434 0.855977 0.368226 -0.299434
C44   C     C_1   0.364582 0.355952 0.631796 -0.299555
O11   O     O_R   0.058070 0.289240 0.940580 -0.560457
O12   O     O_R   0.941930 0.789240 0.059420 -0.567636
O13   O     O_R   0.058330 0.616740 0.085880 -0.582527
O14   O     O_R   0.941670 0.116740 0.914120 -0.570013
C45   C     C_R   0.071910 0.448285 0.111980 0.938282
C46   C     C_R   0.928205 0.949035 0.887801 0.940940
O15   O     O_R   0.065180 0.619040 0.942700 -0.567190
O16   O     O_R   0.934820 0.119040 0.057300 -0.561834
O17   O     O_R   0.948870 0.787780 0.915270 -0.590515
O18   O     O_R   0.051130 0.287780 0.084730 -0.566964
C47   C     C_R   0.083178 0.450325 0.920182 0.938499
C48   C     C_R   0.916841 0.950330 0.079847 0.942200
O19   O     O_3   0.961870 0.453310 0.991210 -0.274314
O20   O     O_3   0.038130 0.953310 0.008790 -0.263820
V3    V     V_3+5 0.007070 0.728770 0.001630 1.192016
V4    V     V_3+5 0.992930 0.228770 0.998370 1.209717
C49   C     C_1   0.978385 0.086592 0.756748 0.067014
N1    N     N_1   0.030120 0.139942 0.759301 -0.080333
C50   C     C_1   0.012646 0.382803 0.245674 0.060568
N2    N     N_1   0.957999 0.368209 0.243752 -0.076348
C51   C     C_1   0.800619 0.936377 0.544152 0.070396
N3    N     N_1   0.820598 0.936931 0.486465 -0.073862
C52   C     C_1   0.199745 0.451785 0.455221 0.070286
N4    N     N_1   0.180963 0.481196 0.512354 -0.074077
C53   C     C_1   0.905124 0.099256 0.622776 0.085219
N5    N     N_1   0.928288 0.163170 0.572757 -0.067219
C54   C     C_1   0.083605 0.353641 0.381068 0.086871
N6    N     N_1   0.056123 0.323350 0.432728 -0.066852
C55   C     C_1   0.804914 0.768672 0.873022 0.144805
N7    N     N_1   0.789391 0.674083 0.919872 -0.013536
C56   C     C_1   0.206794 0.527588 0.121957 0.150776
N8    N     N_1   0.229544 0.594127 0.072197 -0.023059
N9    N     N_R   0.710333 0.044430 0.875290 0.224638
O21   O     O_R   0.700029 0.999448 0.942625 -0.405021
O22   O     O_R   0.743343 0.192128 0.863437 -0.400536
N10   N     N_R   0.273500 0.188587 0.131503 0.224223
O23   O     O_R   0.228928 0.074882 0.148364 -0.402938
O24   O     O_R   0.286471 0.205509 0.062985 -0.407325
C57   C     C_1   0.579783 0.926967 0.876408 0.205500
N11   N     N_1   0.550703 0.945855 0.927616 -0.053656
C58   C     C_1   0.409839 0.197243 0.128280 0.201063
N12   N     N_1   0.435523 0.141152 0.078654 -0.053736

loop_
_geom_bond_atom_site_label_1
_geom_bond_atom_site_label_2
_geom_bond_distance
_ccdc_geom_bond_type
C11   C57   1.443873 S    
C54   N6    1.157797 T    
O13   C45   1.332526 A    
C13   N9    1.442508 S    
N9    O21   1.301625 A    
C15   C17   1.426772 A    
O1    C3    1.332733 A    
O2    C4    1.330512 A    
C2    O7    1.352385 A    
C51   N3    1.157718 T    
C23   C51   1.446392 S    
C49   N1    1.157379 T    
O5    C3    1.332057 A    
C58   N12   1.157441 T    
C5    C53   1.452130 S    
C23   C25   1.394611 A    
C12   C14   1.413057 A    
C4    C31   1.483757 S    
C6    C30   1.412119 A    
C29   C49   1.454155 S    
C8    C28   1.410833 A    
C41   C43   1.247413 T    
C46   O17   1.331719 A    
C24   C52   1.446243 S    
C42   C44   1.247440 T    
C45   O18   1.327947 A    
C18   C26   1.398492 A    
C7    C46   1.492476 S    
C12   C58   1.443901 S    
C9    C31   1.393829 A    
C10   C32   1.394278 A    
C52   N4    1.157702 T    
C40   C42   1.479616 S    
C16   C18   1.426915 A    
C33   C35   1.247398 T    
C33   C48   1.505337 S    
N10   O24   1.301622 A    
C34   C36   1.247415 T    
C19   C21   1.427518 A    
C25   H3    1.084860 S    
C26   H4    1.084769 S    
O6    C4    1.333902 A    
O11   C47   1.342632 A    
O5    V1    1.994951 S    
C30   C50   1.453933 S    
O6    V2    1.997119 S    
C17   C31   1.421029 A    
C18   C32   1.421397 A    
C5    C21   1.429403 A    
C36   C38   1.479604 S    
C9    H1    1.085500 S    
C37   C39   1.247486 T    
O11   V4    1.837177 S    
C14   N10   1.442432 S    
C38   C40   1.247507 T    
O20   V3    1.754573 S    
C15   C19   1.441264 A    
C8    C45   1.489903 S    
C16   C20   1.440456 A    
O4    C2    1.360323 A    
C56   N8    1.157591 T    
C53   N5    1.157772 T    
C35   C37   1.479579 S    
C20   C22   1.427246 A    
O4    V2    1.858856 S    
C34   C47   1.505365 S    
C57   N11   1.157430 T    
O16   C48   1.349992 A    
N10   O23   1.301667 A    
O14   V4    1.997155 S    
O12   C48   1.342552 A    
C3    C32   1.484140 S    
O1    V2    1.982578 S    
O2    V1    1.981379 S    
C6    C22   1.430130 A    
C7    C27   1.411882 A    
C10   H2    1.085557 S    
C39   C41   1.479573 S    
O18   V4    1.984130 S    
O19   V4    1.753217 S    
C10   C12   1.393567 A    
O12   V3    1.837143 S    
C13   C15   1.429994 A    
C20   C28   1.430009 A    
O3    V1    1.858926 S    
C1    C44   1.505440 S    
C2    C43   1.505397 S    
O3    C1    1.360455 A    
C8    C30   1.405478 A    
O16   V4    1.858892 S    
C14   C16   1.430028 A    
C6    C54   1.451822 S    
C9    C11   1.394009 A    
O7    V1    1.830727 S    
C1    O8    1.352529 A    
O8    V2    1.830757 S    
O13   V3    1.994987 S    
C24   C26   1.395368 A    
C21   C23   1.427668 A    
C22   C24   1.427730 A    
C19   C27   1.430969 A    
O17   V3    1.982912 S    
O15   C47   1.350171 A    
C11   C13   1.413709 A    
C28   C56   1.449852 S    
C5    C29   1.411730 A    
C50   N2    1.157422 T    
O15   V3    1.858962 S    
N9    O22   1.301657 A    
O9    V2    1.753725 S    
C17   C25   1.398114 A    
O10   V1    1.755084 S    
C55   N7    1.157604 T    
C27   C55   1.449722 S    
C7    C29   1.406940 A    
O14   C46   1.329902 A    
