data_mof_unit_5535.cif
_audit_creation_date              2012-12-11T14:39:33-0500
_audit_creation_method            fapswitch 2.2
_symmetry_space_group_name_H-M    P1
_symmetry_Int_Tables_number       1
_space_group_crystal_system       triclinic
_cell_length_a                    8.249392
_cell_length_b                    15.029178
_cell_length_c                    17.374032
_cell_angle_alpha                 99.160788
_cell_angle_beta                  97.212184
_cell_angle_gamma                 99.405919
_cell_volume                      2072.43695207

loop_
_atom_site_label
_atom_site_type_symbol
_atom_type_description
_atom_site_fract_x
_atom_site_fract_y
_atom_site_fract_z
_atom_type_partial_charge
Ba1   Ba    Ba6+2 0.844730 0.540500 0.462170 1.740532
Ba2   Ba    Ba6+2 0.345110 0.459580 0.537840 1.753849
C1    C     C_3   0.689496 0.856649 0.244292 -0.326037
C2    C     C_3   0.345808 0.579984 0.230168 -0.051046
C3    C     C_2   0.287697 0.553391 0.142743 -0.092559
C4    C     C_3   0.106755 0.734120 0.247187 0.330617
C5    C     C_2   0.138555 0.498243 0.114226 0.005733
C6    C     C_2   0.042426 0.456066 0.172163 -0.137059
C7    C     C_1   0.107064 0.467931 0.248371 0.045237
C8    C     C_R   0.891429 0.460144 0.859332 -0.117231
C9    C     C_R   0.826758 0.445789 0.779165 0.048771
C10   C     C_R   0.086917 0.525362 0.750717 0.086760
C11   C     C_R   0.152121 0.540424 0.831839 -0.158357
C12   C     C_3   0.652537 0.771131 0.280392 0.350925
C13   C     C_R   0.056934 0.505302 0.886692 -0.008037
C14   C     C_2   0.068126 0.477982 0.027604 -0.071228
C15   C     C_2   0.128981 0.523804 0.972549 -0.059944
C16   C     C_3   0.064277 0.757173 0.165801 -0.336824
C17   C     C_R   0.927618 0.472823 0.724846 -0.216372
C18   C     C_R   0.770072 0.235134 0.522609 -0.211226
C19   C     C_R   0.868345 0.176617 0.550413 0.115566
C20   C     C_R   0.803257 0.082708 0.541515 -0.003128
C21   C     C_R   0.636166 0.046074 0.505413 0.053282
C22   C     C_R   0.540344 0.108098 0.477779 -0.040064
C23   C     C_3   0.411903 0.317110 0.296538 0.335748
C24   C     C_R   0.608953 0.200410 0.483796 0.051830
C25   C     C_R   0.406250 0.907329 0.447315 -0.136016
C26   C     C_R   0.340446 0.813932 0.435176 0.006909
C27   C     C_R   0.589610 0.788259 0.511332 -0.008437
C28   C     C_3   0.342611 0.755350 0.676593 0.306602
C29   C     C_R   0.653023 0.882787 0.526240 -0.130977
C30   C     C_R   0.565438 0.944433 0.492362 0.010768
C31   C     C_R   0.437290 0.753746 0.462268 -0.239154
C32   C     C_3   0.429181 0.843350 0.733485 -0.446080
C33   C     C_3   0.902414 0.251014 0.352112 0.244400
C34   C     C_3   0.392749 0.295153 0.206540 0.503956
C35   C     C_3   0.881671 0.146977 0.324510 0.363962
C36   C     C_3   0.768529 0.672259 0.703697 0.803164
C37   C     C_3   0.856766 0.707293 0.788592 -0.239551
C38   C     C_2   0.045293 0.115789 0.337070 0.526616
C39   C     C_2   0.746488 0.749920 0.839690 0.402652
C40   C     C_2   0.252551 0.215964 0.173017 0.569153
C41   C     C_2   0.252277 0.778693 0.605536 0.464727
C42   C     C_3   0.127547 0.280003 0.748388 0.306298
C43   C     C_3   0.144789 0.256735 0.830678 -0.336278
C44   C     C_3   0.560631 0.222778 0.708120 0.843238
C45   C     C_3   0.501237 0.129231 0.728424 -0.285808
C46   C     C_2   0.257167 0.516610 0.277059 -0.254229
F1    F     F_    0.769472 0.100681 0.363622 -0.739467
F2    F     F_    0.865468 0.621793 0.663617 -0.733468
F3    F     F_    0.540787 0.276188 0.184181 -0.649857
F4    F     F_    0.727452 0.230656 0.701974 -0.801550
H1    H     H_    0.734923 0.781150 0.337956 0.096841
H2    H     H_    0.970636 0.758493 0.789056 0.082762
H3    H     H_    0.895115 0.649633 0.814246 0.055580
H4    H     H_    0.521756 0.764016 0.291315 -0.084695
H5    H     H_    0.607433 0.847823 0.186771 0.110938
H6    H     H_    0.292816 0.331066 0.314487 -0.170282
H7    H     H_    0.508781 0.380077 0.316568 0.057779
H8    H     H_    0.364866 0.356006 0.182331 -0.118011
H9    H     H_    0.821127 0.869966 0.234974 0.157281
H10   H     H_    0.114590 0.711802 0.121593 0.070443
H11   H     H_    0.234290 0.334199 0.745826 0.078517
H12   H     H_    0.484025 0.826578 0.789622 0.161921
H13   H     H_    0.011088 0.306741 0.738089 0.071332
H14   H     H_    0.148772 0.319200 0.875173 0.080594
H15   H     H_    0.036962 0.203988 0.835273 0.143449
H16   H     H_    0.261283 0.230093 0.843293 0.142995
H17   H     H_    0.488992 0.225873 0.650397 0.016134
H18   H     H_    0.519459 0.074259 0.681175 0.057024
H19   H     H_    0.367309 0.119829 0.733837 0.098412
H20   H     H_    0.045894 0.662070 0.245869 0.048813
H21   H     H_    0.573112 0.122924 0.785159 0.121608
H22   H     H_    0.237032 0.578202 0.989838 0.083037
H23   H     H_    0.529699 0.880877 0.707327 0.070037
H24   H     H_    0.920909 0.413030 0.150787 0.123909
H25   H     H_    0.809776 0.439107 0.899796 0.086044
H26   H     H_    0.960636 0.423096 0.009488 0.085039
H27   H     H_    0.365191 0.584803 0.104906 0.074761
H28   H     H_    0.275434 0.581170 0.852382 0.131165
H29   H     H_    0.311735 0.519874 0.337832 0.065514
H30   H     H_    0.876774 0.459397 0.662757 0.115908
H31   H     H_    0.326762 0.948821 0.422462 0.110838
H32   H     H_    0.243705 0.741768 0.260219 -0.061236
H33   H     H_    0.886567 0.040093 0.561692 0.058721
H34   H     H_    0.338903 0.888759 0.747233 0.115909
H35   H     H_    0.768458 0.906429 0.566234 0.072477
H36   H     H_    0.413866 0.087122 0.448659 0.092541
H37   H     H_    0.386243 0.681082 0.452198 0.083098
H38   H     H_    0.821888 0.307168 0.527673 0.036642
H39   H     H_    0.927429 0.746792 0.148633 0.151603
H40   H     H_    0.119874 0.829667 0.165865 0.131779
H41   H     H_    0.437928 0.715884 0.659248 -0.021459
H42   H     H_    0.145803 0.142285 0.307550 -0.044988
H43   H     H_    0.766868 0.823926 0.857475 0.022794
H44   H     H_    0.126062 0.222439 0.180271 -0.106645
H45   H     H_    0.780532 0.268141 0.361380 0.057372
H46   H     H_    0.250305 0.849244 0.599070 -0.059965
H47   H     H_    0.991451 0.273524 0.408209 -0.013421
H48   H     H_    0.830634 0.128801 0.260534 0.073368
H49   H     H_    0.649291 0.627061 0.703863 0.033459
H50   H     H_    0.666185 0.916840 0.284533 0.147056
O1    O     O_2   0.823140 0.439340 0.307240 -0.435131
O2    O     O_2   0.208396 0.181579 0.552165 -0.483505
O3    O     O_3   0.125107 0.200955 0.692589 -0.607662
O4    O     O_3   0.097070 0.445850 0.405300 -0.493014
O5    O     O_3   0.592380 0.611270 0.541370 -0.471392
O6    O     O_2   0.323920 0.276750 0.459260 -0.466809
O7    O     O_3   0.458082 0.242929 0.328470 -0.618246
O8    O     O_2   0.497783 0.463992 0.782983 -0.485697
O9    O     O_3   0.535399 0.292080 0.767786 -0.631051
O10   O     O_3   0.627590 0.606740 0.357340 -0.500930
O11   O     O_2   0.646620 0.514274 0.215577 -0.449868
O12   O     O_3   0.742561 0.746614 0.667339 -0.688843
O13   O     O_3   0.957855 0.293742 0.292080 -0.665490
O14   O     O_3   0.680317 0.694248 0.229180 -0.594932
O15   O     O_2   0.865800 0.723280 0.540790 -0.359630
O16   O     O_3   0.060870 0.655550 0.397490 -0.451506
O17   O     O_2   0.011122 0.821786 0.451172 -0.451113
O18   O     O_2   0.066391 0.060348 0.379906 -0.544822
O19   O     O_2   0.631998 0.701946 0.860606 -0.576726
O20   O     O_2   0.278919 0.144349 0.137201 -0.517162
O21   O     O_2   0.178059 0.716402 0.553546 -0.533427
O22   O     O_3   0.049844 0.794313 0.303407 -0.592536
O23   O     O_2   0.366580 0.560690 0.692810 -0.498575
O24   O     O_3   0.092650 0.554230 0.594710 -0.386011
O25   O     O_3   0.562120 0.393340 0.642670 -0.483874
O26   O     O_3   0.226376 0.706190 0.713690 -0.601426
O27   O     O_3   0.597340 0.388800 0.458640 -0.487424
O28   O     O_3   0.128850 0.344520 0.602520 -0.521303
P1    P     P_3+3 0.993190 0.413330 0.319190 1.019848
P2    P     P_3+3 0.695930 0.711340 0.564320 1.063624
P3    P     P_3+3 0.117096 0.772472 0.396906 1.024673
P4    P     P_3+3 0.196530 0.586750 0.680820 1.125350
P5    P     P_3+3 0.083166 0.225532 0.597670 0.979893
P6    P     P_3+3 0.575591 0.595646 0.255937 0.966624
P7    P     P_3+3 0.497338 0.274196 0.431542 0.982063
P8    P     P_3+3 0.605277 0.399689 0.744292 0.999927

loop_
_geom_bond_atom_site_label_1
_geom_bond_atom_site_label_2
_ccdc_geom_bond_type
O23   P4    D    
C12   H4    S    
O2    P5    D    
C27   C31   A    
C34   C40   S    
O28   P5    S    
C41   H46   S    
C4    O22   S    
Ba1   P2    S    
C5    C6    S    
C37   C39   S    
O13   P1    S    
C42   O3    S    
C4    H20   S    
C9    C17   A    
Ba2   P4    S    
O22   P3    S    
O17   P3    D    
C40   H44   S    
C16   H39   S    
C33   C35   S    
C9    P8    S    
C22   C24   A    
C36   H49   S    
O26   P4    S    
C8    C13   A    
Ba1   O10   S    
O6    P7    D    
C36   O12   S    
C27   P2    S    
C44   F4    S    
Ba2   O5    S    
C6    H24   S    
Ba2   O27   S    
C46   H29   S    
O7    P7    S    
Ba1   Ba2   S    
C32   H34   S    
C20   H33   S    
C39   O19   D    
O15   P2    D    
C44   H17   S    
C37   H3    S    
C6    C7    D    
O11   P6    D    
C43   H15   S    
C21   C22   A    
C33   O13   S    
O25   P8    S    
C3    H27   S    
C17   H30   S    
Ba1   O1    S    
C23   O7    S    
Ba1   O4    S    
O3    P5    S    
O16   P3    S    
Ba2   O25   S    
C24   P7    S    
C7    P1    S    
C11   H28   S    
C10   P4    S    
C19   C20   A    
C42   H13   S    
O10   P6    S    
C33   H47   S    
C8    H25   S    
C1    H9    S    
C42   H11   S    
O4    P1    S    
C4    C16   S    
C28   O26   S    
C29   H35   S    
C28   C32   S    
C26   P3    S    
O8    P8    D    
C4    H32   S    
Ba1   O24   S    
C45   H21   S    
C3    C5    D    
C14   C15   D    
Ba1   P1    S    
C18   H38   S    
Ba2   O4    S    
C36   C37   S    
C45   H18   S    
C31   H37   S    
C35   F1    S    
C29   C30   A    
C44   O9    S    
C43   H16   S    
C32   H12   S    
Ba1   O15   S    
C10   C11   A    
C22   H36   S    
C45   H19   S    
C34   F3    S    
Ba1   O5    S    
O14   P6    S    
C1    H5    S    
C1    H50   S    
C5    C14   S    
C38   O18   D    
C26   C31   A    
C11   C13   A    
C15   H22   S    
C28   C41   S    
C23   H6    S    
C41   O21   D    
C35   C38   S    
Ba2   O24   S    
C43   H14   S    
C42   C43   S    
C40   O20   D    
C2    C46   S    
C13   C15   S    
C44   C45   S    
C25   C30   A    
O12   P2    S    
C16   H10   S    
C38   H42   S    
O5    P2    S    
C34   H8    S    
C36   F2    S    
C1    C12   S    
C28   H41   S    
C32   H23   S    
Ba1   O27   S    
C2    P6    S    
C16   H40   S    
C21   C30   S    
C25   H31   S    
C27   C29   A    
C39   H43   S    
C18   C24   A    
C12   O14   S    
C10   C17   A    
Ba2   O6    S    
Ba2   O28   S    
C14   H26   S    
Ba1   O16   S    
C8    C9    A    
C23   C34   S    
C37   H2    S    
Ba2   O23   S    
C2    C3    S    
C12   H1    S    
O27   P7    S    
C18   C19   A    
O24   P4    S    
C7    C46   D    
C25   C26   A    
C20   C21   A    
C23   H7    S    
C33   H45   S    
O1    P1    D    
C19   P5    S    
C35   H48   S    
O9    P8    S    
