data_mof_unit_21862.cif
_audit_creation_date              2012-12-11T15:55:45-0500
_audit_creation_method            fapswitch 2.2
_symmetry_space_group_name_H-M    P1
_symmetry_Int_Tables_number       1
_space_group_crystal_system       triclinic
_cell_length_a                    11.146676
_cell_length_b                    11.032318
_cell_length_c                    18.761256
_cell_angle_alpha                 90.34672
_cell_angle_beta                  90.561154
_cell_angle_gamma                 59.43938
_cell_volume                      1986.56277207

loop_
_atom_site_label
_atom_site_type_symbol
_atom_type_description
_atom_site_fract_x
_atom_site_fract_y
_atom_site_fract_z
_atom_type_partial_charge
C1    C     C_R   0.384763 0.713290 0.389863 0.541206
C2    C     C_R   0.611333 0.181910 0.154193 0.054617
C3    C     C_R   0.348733 0.335734 0.163438 -0.004479
C4    C     C_R   0.487825 0.266730 0.270194 -0.154904
C5    C     C_R   0.481344 0.265971 0.196207 -0.033696
C6    C     C_R   0.017113 0.653054 0.298024 -0.095744
C7    C     C_R   0.904286 0.744506 0.340438 -0.119207
C8    C     C_R   0.708853 0.041902 0.173080 -0.101056
C9    C     C_R   0.814221 0.954428 0.125773 -0.128206
C10   C     C_R   0.228613 0.417910 0.204484 -0.162275
C11   C     C_R   0.235068 0.419983 0.278399 -0.048224
C12   C     C_R   0.388049 0.354651 0.387430 0.524053
C13   C     C_R   0.880156 0.696925 0.404426 -0.089796
C14   C     C_R   0.966144 0.556951 0.425032 -0.062137
C15   C     C_R   0.073494 0.462874 0.380709 -0.052494
C16   C     C_R   0.104829 0.511723 0.318575 0.046438
C17   C     C_R   0.366596 0.340667 0.311750 -0.000096
C18   C     C_R   0.840201 0.345820 0.178940 0.017324
C19   C     C_R   0.853297 0.235244 0.220676 0.025605
C20   C     C_R   0.809176 0.257821 0.290291 0.003413
C21   C     C_R   0.731316 0.504781 0.277951 -0.152007
C22   C     C_R   0.771475 0.483026 0.206836 -0.154201
C23   C     C_R   0.717056 0.413751 0.395010 0.547931
C24   C     C_3   0.980992 0.097577 0.238308 -0.245694
C25   C     C_3   0.931432 0.121824 0.314676 -0.259295
C26   C     C_R   0.754764 0.390919 0.320790 0.015932
C27   C     C_R   0.367001 0.817673 0.169755 0.019033
C28   C     C_R   0.430187 0.862611 0.219496 0.002571
C29   C     C_R   0.438075 0.827764 0.290844 0.008370
C30   C     C_R   0.336893 0.685412 0.264012 -0.164396
C31   C     C_R   0.329135 0.720053 0.191836 -0.151820
C32   C     C_3   0.398714 0.007882 0.236836 -0.256880
C33   C     C_3   0.407823 0.969575 0.315020 -0.266623
C34   C     C_R   0.346524 0.766699 0.604988 0.552289
C35   C     C_R   0.382659 0.746884 0.314792 0.012996
C36   C     C_R   0.320526 0.322107 0.815803 0.016518
C37   C     C_R   0.421256 0.207271 0.777562 0.037341
C38   C     C_R   0.426558 0.206036 0.704405 0.036171
C39   C     C_R   0.235327 0.447651 0.705880 -0.103457
C40   C     C_R   0.228372 0.444378 0.779838 -0.159514
C41   C     C_3   0.573443 0.147473 0.786467 -0.283907
C42   C     C_3   0.582873 0.131456 0.706610 -0.118524
C43   C     C_R   0.337591 0.330860 0.667913 0.031378
C44   C     C_R   0.832073 0.330139 0.831364 0.031072
C45   C     C_R   0.373837 0.351647 0.597194 0.524918
C46   C     C_R   0.832136 0.438154 0.791840 0.031403
C47   C     C_R   0.825350 0.438941 0.718654 0.038757
C48   C     C_R   0.821217 0.224775 0.719713 -0.150905
C49   C     C_R   0.827578 0.222495 0.794338 -0.162464
C50   C     C_3   0.951794 0.463095 0.787288 -0.187638
C51   C     C_3   0.947316 0.455709 0.707299 0.120116
C52   C     C_R   0.810377 0.339431 0.682633 0.055862
C53   C     C_R   0.299649 0.840684 0.826454 0.039263
C54   C     C_R   0.182406 0.893547 0.782194 0.013626
C55   C     C_R   0.194968 0.884656 0.708756 0.019254
C56   C     C_R   0.759893 0.377284 0.610726 0.534859
C57   C     C_R   0.444901 0.774649 0.721806 -0.157854
C58   C     C_R   0.432126 0.783153 0.796231 0.224314
C59   C     C_3   0.077859 0.847105 0.780980 -0.275996
C60   C     C_3   0.086425 0.844473 0.701017 -0.266669
C61   C     C_R   0.326335 0.820776 0.677442 -0.031973
C62   C     C_R   0.912164 0.315599 0.111900 0.547376
C63   C     C_R   0.326836 0.295146 0.092416 0.535925
C64   C     C_R   0.309244 0.895833 0.103918 0.539237
C65   C     C_R   0.884410 0.309554 0.904239 0.544832
C66   C     C_R   0.298375 0.291143 0.887409 0.537052
C67   C     C_R   0.823482 0.005604 0.059424 -0.071018
C68   C     C_R   0.275838 0.892364 0.898958 0.576931
C69   C     C_R   0.730050 0.145617 0.041261 -0.065355
C70   C     C_R   0.628299 0.234941 0.089416 -0.063805
Cr1   Cr    Cr6+3 0.601740 0.606840 0.505840 0.956468
Cr2   Cr    Cr6+3 0.291500 0.601560 0.495070 0.995107
Cr3   Cr    Cr6+3 0.606780 0.291630 0.499130 0.969891
Cr4   Cr    Cr6+3 0.062440 0.063060 0.008240 0.987470
Cr5   Cr    Cr6+3 0.062950 0.375000 0.998920 0.987454
Cr6   Cr    Cr6+3 0.374550 0.061770 0.992470 1.008882
H1    H     H_    0.589496 0.211318 0.295447 0.140965
H2    H     H_    0.795120 0.768328 0.438135 0.094104
H3    H     H_    0.949066 0.521079 0.475338 0.112658
H4    H     H_    0.137616 0.354112 0.397129 0.086402
H5    H     H_    0.689768 0.608614 0.300595 0.145987
H6    H     H_    0.758386 0.571356 0.175666 0.139607
H7    H     H_    0.078556 0.099855 0.231193 0.136827
H8    H     H_    0.981302 0.006178 0.213192 0.158587
H9    H     H_    0.900120 0.046334 0.332987 0.138485
H10   H     H_    0.001212 0.136644 0.351943 0.146506
H11   H     H_    0.300116 0.617112 0.280844 0.138847
H12   H     H_    0.887133 0.846175 0.140077 0.094378
H13   H     H_    0.281759 0.680875 0.154633 0.127033
H14   H     H_    0.293121 0.091245 0.219371 0.136180
H15   H     H_    0.484147 0.023359 0.219580 0.155524
H16   H     H_    0.498275 0.965216 0.343072 0.139901
H17   H     H_    0.306629 0.029513 0.343168 0.136472
H18   H     H_    0.158587 0.538814 0.677588 0.107971
H19   H     H_    0.147498 0.532534 0.808484 0.099752
H20   H     H_    0.628145 0.048938 0.817426 0.121123
H21   H     H_    0.593409 0.230167 0.806794 0.129703
H22   H     H_    0.618764 0.196982 0.681966 0.175722
H23   H     H_    0.837861 0.853177 0.324749 0.090388
H24   H     H_    0.826023 0.138200 0.691024 0.106507
H25   H     H_    0.831997 0.136784 0.823577 0.113669
H26   H     H_    0.046763 0.373158 0.810581 0.197175
H27   H     H_    0.924552 0.568577 0.807800 0.076913
H28   H     H_    0.924007 0.554581 0.679648 0.084956
H29   H     H_    0.548695 0.720136 0.699579 0.142269
H30   H     H_    0.974639 0.924792 0.801267 0.133658
H31   H     H_    0.902949 0.936943 0.022122 0.107493
H32   H     H_    0.120435 0.742067 0.805324 0.125472
H33   H     H_    0.127214 0.739197 0.678717 0.155769
H34   H     H_    0.991601 0.925573 0.673487 0.126336
H35   H     H_    0.734477 0.184969 0.989435 0.118113
H36   H     H_    0.555859 0.342684 0.073877 0.092174
H37   H     H_    0.038592 0.693843 0.250514 0.090666
H38   H     H_    0.700844 0.998365 0.223047 0.082395
H39   H     H_    0.126509 0.473491 0.179463 0.147851
O1    O     O_R   0.748670 0.497520 0.427970 -0.535784
O2    O     O_R   0.300170 0.471020 0.567120 -0.517649
O3    O     O_R   0.491630 0.259030 0.574940 -0.533142
O4    O     O_R   0.718640 0.304340 0.577850 -0.519243
O5    O     O_3   0.500010 0.500010 0.500020 -0.276373
O6    O     O_R   0.186620 0.923750 0.087000 -0.530209
O7    O     O_R   0.957350 0.194160 0.084660 -0.494215
O8    O     O_R   0.935120 0.407280 0.085350 -0.531868
O9    O     O_R   0.203800 0.365060 0.067090 -0.515292
O10   O     O_R   0.417470 0.174910 0.067830 -0.507227
O11   O     O_R   0.375160 0.946380 0.070880 -0.499623
O12   O     O_R   0.476470 0.723930 0.429450 -0.518178
O13   O     O_R   0.160500 0.919670 0.926690 -0.534990
O14   O     O_R   0.933140 0.190380 0.936050 -0.522008
O15   O     O_R   0.909010 0.403210 0.925030 -0.532033
O16   O     O_R   0.179590 0.361290 0.918480 -0.521826
O17   O     O_R   0.391360 0.170840 0.907510 -0.528838
O18   O     O_R   0.350950 0.942600 0.922260 -0.484832
O19   O     O_3   0.166650 0.166610 0.999880 -0.251002
O20   O     O_R   0.264730 0.744140 0.416740 -0.504996
O21   O     O_R   0.309440 0.472410 0.418220 -0.505219
O22   O     O_R   0.501630 0.260530 0.414310 -0.541042
O23   O     O_R   0.727920 0.305730 0.428950 -0.503182
O24   O     O_R   0.738670 0.496020 0.588600 -0.550566
O25   O     O_R   0.467190 0.722540 0.578350 -0.517834
O26   O     O_R   0.254720 0.742640 0.577370 -0.518605
C71   C     C_3   0.659266 0.975287 0.682678 -0.261195
C72   C     C_3   0.706718 0.952889 0.604534 -0.281331
C73   C     C_3   0.600498 0.948596 0.554070 -0.384830
H40   H     H_    0.609415 0.843986 0.557086 0.162566
H41   H     H_    0.492779 0.030334 0.567828 0.173840
H42   H     H_    0.620688 0.966823 0.498513 0.129660
H43   H     H_    0.729932 0.034906 0.587347 0.188457
H44   H     H_    0.805927 0.850435 0.599854 0.114718
H45   H     H_    0.755057 0.917000 0.716007 0.109591
H46   H     H_    0.594103 0.927535 0.692793 0.145484
O27   O     O_3   0.063246 0.328638 0.681932 -0.553833
C74   C     C_3   0.076254 0.329023 0.606885 -0.011518
H47   H     H_    0.116514 0.397508 0.590733 0.125731
H48   H     H_    0.978213 0.369264 0.577623 0.150932
C75   C     C_3   0.172104 0.178947 0.581282 -0.357550
H49   H     H_    0.268976 0.127597 0.613730 0.159598
H50   H     H_    0.119144 0.117210 0.586762 0.157488
H51   H     H_    0.198827 0.179173 0.524426 0.093201
O28   O     O_3   0.548661 0.723798 0.840303 -0.554415
C76   C     C_3   0.617752 0.800459 0.834349 -0.004101
H52   H     H_    0.542567 0.914649 0.827061 0.157185
H53   H     H_    0.690482 0.759977 0.788685 0.103432
C77   C     C_3   0.700341 0.783926 0.902353 -0.346803
H54   H     H_    0.773609 0.671165 0.913497 0.182192
H55   H     H_    0.760857 0.837916 0.896428 0.057016
H56   H     H_    0.628749 0.830968 0.948184 0.174778

loop_
_geom_bond_atom_site_label_1
_geom_bond_atom_site_label_2
_ccdc_geom_bond_type
C44   C49   A    
C45   O3    A    
C7    C13   A    
C57   H29   S    
C21   C26   A    
C34   O26   A    
Cr3   O4    S    
Cr6   O11   S    
C41   C42   S    
C23   O23   A    
C19   C20   A    
C65   O15   A    
Cr5   O19   S    
C6    H37   S    
C53   C54   A    
C28   C29   A    
C7    H23   S    
Cr1   O5    S    
Cr5   O8    S    
C22   H6    S    
C21   C22   A    
C68   O18   A    
C24   H7    S    
C38   C42   S    
C42   H22   S    
C9    H12   S    
C49   H25   S    
C30   C31   A    
C36   C66   S    
Cr2   O21   S    
C32   H15   S    
C20   C25   S    
C15   C16   A    
C29   C33   S    
C18   C19   A    
C23   C26   S    
C34   O25   A    
C4    H1    S    
C53   C68   S    
C60   H33   S    
C23   O1    A    
C54   C55   A    
Cr4   O13   S    
Cr5   O16   S    
C8    C9    A    
C31   H13   S    
Cr2   O2    S    
C42   C71   S    
C72   H44   S    
C74   H48   S    
C68   O13   A    
Cr5   O15   S    
C8    H38   S    
C50   H27   S    
Cr3   O5    S    
C13   C14   A    
Cr6   O10   S    
Cr1   O12   S    
C44   C65   S    
C72   H43   S    
C30   H11   S    
C73   H42   S    
C62   O8    A    
C76   H53   S    
C44   C46   A    
C64   O6    A    
C76   H52   S    
C66   O17   A    
C54   C59   S    
C75   H51   S    
Cr2   O26   S    
C48   H24   S    
C32   H14   S    
C59   H30   S    
C27   C31   A    
Cr5   O9    S    
C36   C40   A    
C24   C25   S    
C73   H41   S    
C10   C11   A    
C33   H16   S    
C39   C40   A    
C56   O24   A    
Cr6   O19   S    
C18   C62   S    
Cr2   O20   S    
C39   C43   A    
C51   H28   S    
C34   C61   S    
C33   H17   S    
C67   C69   A    
C75   H49   S    
C71   H46   S    
C12   C17   S    
C47   C52   A    
C9    C67   A    
C39   H18   S    
C37   C38   A    
C11   C16   S    
C65   O14   A    
C15   H4    S    
C14   C15   A    
C28   C32   S    
C53   C58   A    
Cr2   O5    S    
C25   H9    S    
C50   C51   S    
C59   C60   S    
C14   H3    S    
C74   C75   S    
C57   C61   A    
C43   C45   S    
C63   O10   A    
C70   H36   S    
C4    C17   A    
C30   C35   A    
C48   C49   A    
Cr4   O7    S    
C21   H5    S    
C51   O27   S    
C50   H26   S    
C64   O11   A    
C12   O21   A    
C56   O4    A    
C41   H21   S    
C2    C5    S    
C55   C61   A    
C40   H19   S    
C62   O7    A    
C76   C77   S    
C1    C35   S    
C66   O16   A    
C45   O2    A    
C46   C50   S    
C46   C47   A    
C77   H54   S    
Cr1   O25   S    
Cr3   O3    S    
C18   C22   A    
C77   H56   S    
C2    C8    A    
C1    O12   A    
C73   H40   S    
C3    C5    A    
C11   C17   A    
C47   C51   S    
Cr6   O18   S    
Cr1   O24   S    
C6    C7    A    
C3    C63   S    
C29   C35   A    
C59   H32   S    
O28   C76   S    
C71   H45   S    
C75   H50   S    
C19   C24   S    
C24   H8    S    
C38   C43   A    
C20   C26   A    
C3    C10   A    
C2    C70   A    
C32   C33   S    
C63   O9    A    
Cr6   O17   S    
C67   H31   S    
C57   C58   A    
Cr3   O22   S    
C4    C5    A    
Cr4   O19   S    
C77   H55   S    
C25   H10   S    
Cr1   O1    S    
C37   C41   S    
C69   C70   A    
C69   H35   S    
C60   H34   S    
C27   C64   S    
C13   H2    S    
C6    C16   A    
C41   H20   S    
C52   C56   S    
C48   C52   A    
Cr4   O6    S    
O27   C74   S    
C36   C37   A    
Cr3   O23   S    
Cr4   O14   S    
C1    O20   A    
C27   C28   A    
C71   C72   S    
C12   O22   A    
C58   O28   S    
C74   H47   S    
C55   C60   S    
C10   H39   S    
C72   C73   S    
