data_mof_unit_16643.cif
_audit_creation_date              2012-12-11T17:37:47-0500
_audit_creation_method            fapswitch 2.2
_symmetry_space_group_name_H-M    P1
_symmetry_Int_Tables_number       1
_space_group_crystal_system       triclinic
_cell_length_a                    12.990752
_cell_length_b                    12.993848
_cell_length_c                    15.294371
_cell_angle_alpha                 116.189912
_cell_angle_beta                  64.217601
_cell_angle_gamma                 96.768915
_cell_volume                      2077.23478825

loop_
_atom_site_label
_atom_site_type_symbol
_atom_type_description
_atom_site_fract_x
_atom_site_fract_y
_atom_site_fract_z
_atom_type_partial_charge
C1    C     C_R   0.001154 0.833017 0.052688 -0.135983
C2    C     C_R   0.303461 0.585121 0.786677 -0.036593
C3    C     C_R   0.259574 0.418508 0.050120 -0.173167
C4    C     C_R   0.680075 0.467349 0.220404 -0.152074
C5    C     C_R   0.047958 0.279323 0.684530 -0.096326
C6    C     C_R   0.361624 0.438515 0.978894 0.168169
C7    C     C_R   0.030374 0.170784 0.679523 0.062919
C8    C     C_R   0.300550 0.547894 0.688684 0.110330
C9    C     C_R   0.016341 0.149312 0.037503 0.018329
C10   C     C_R   0.430882 0.709975 0.201343 -0.119486
C11   C     C_R   0.319824 0.758164 0.279694 -0.133511
C12   C     C_R   0.675086 0.536358 0.322032 0.097503
C13   C     C_R   0.289984 0.877056 0.324101 0.125697
C14   C     C_R   0.374069 0.946694 0.289513 -0.152078
C15   C     C_R   0.485125 0.898088 0.211158 -0.098758
C16   C     C_R   0.754409 0.522423 0.894953 -0.182869
C17   C     C_R   0.513446 0.779832 0.166977 -0.092047
C18   C     C_R   0.156486 0.025969 0.503428 -0.221229
C19   C     C_R   0.045203 0.070107 0.584157 0.047227
C20   C     C_R   0.947815 0.019201 0.572458 0.002547
C21   C     C_R   0.963173 0.924965 0.478534 -0.240522
C22   C     C_R   0.073132 0.881239 0.397108 0.053526
C23   C     C_R   0.661266 0.463632 0.929098 0.141352
C24   C     C_R   0.172158 0.928738 0.408107 0.009410
C25   C     C_R   0.763891 0.013167 0.719595 -0.171746
C26   C     C_R   0.646678 0.046398 0.784545 -0.129060
C27   C     C_R   0.592884 0.129763 0.780087 -0.084963
C28   C     C_R   0.017023 0.695963 0.301213 -0.164201
C29   C     C_R   0.656709 0.181731 0.712341 -0.081488
C30   C     C_R   0.774399 0.150525 0.648962 -0.153311
C31   C     C_R   0.828345 0.065406 0.651756 0.136373
C32   C     C_R   0.874768 0.304044 0.344614 -0.139732
C33   C     C_R   0.769826 0.342554 0.359073 -0.013187
C34   C     C_R   0.075644 0.789833 0.300955 0.058051
C35   C     C_R   0.705473 0.440672 0.452618 0.205582
C36   C     C_R   0.748170 0.499951 0.530308 -0.103658
C37   C     C_R   0.853377 0.461469 0.514960 -0.124042
C38   C     C_R   0.916572 0.363403 0.422192 -0.121104
C39   C     C_R   0.493755 0.472751 0.553589 0.534147
C40   C     C_R   0.676081 0.423828 0.992308 -0.120104
C41   C     C_R   0.394004 0.543297 0.593848 -0.184325
C42   C     C_R   0.384874 0.607472 0.543057 -0.013961
C43   C     C_R   0.479044 0.601280 0.451129 -0.228540
C44   C     C_R   0.581745 0.542771 0.418451 0.003569
C45   C     C_R   0.337711 0.519256 0.953626 -0.038988
C46   C     C_R   0.592280 0.482828 0.472317 -0.195530
C47   C     C_R   0.229264 0.666794 0.514401 -0.180863
C48   C     C_R   0.131947 0.737608 0.551395 -0.106044
C49   C     C_R   0.084073 0.823406 0.657507 -0.082367
C50   C     C_R   0.133409 0.838580 0.726876 -0.110771
C51   C     C_R   0.230962 0.768235 0.690148 -0.142576
C52   C     C_R   0.096774 0.798407 0.208428 -0.128314
C53   C     C_R   0.279426 0.680987 0.583648 0.162831
C54   C     C_2   0.474551 0.400264 0.953264 -0.235070
C55   C     C_2   0.565300 0.446308 0.903165 -0.177542
C56   C     C_R   0.965820 0.179411 0.781799 -0.103854
C57   C     C_2   0.836156 0.957329 0.084508 -0.241521
C58   C     C_2   0.816947 0.037428 0.183457 -0.124263
C59   C     C_R   0.783910 0.558366 0.314060 -0.134052
C60   C     C_R   0.902297 0.748043 0.954413 -0.150731
C61   C     C_R   0.914543 0.852498 0.029523 0.148124
C62   C     C_R   0.201388 0.498585 0.691619 -0.044991
C63   C     C_R   0.057350 0.253608 0.083533 -0.121150
C64   C     C_R   0.955829 0.170304 0.990307 -0.106277
H1    H     H_    0.030216 0.895293 0.110472 0.095827
H2    H     H_    0.453047 0.618509 0.167642 0.118469
H3    H     H_    0.257629 0.702799 0.306366 0.103968
H4    H     H_    0.610155 0.429326 0.200195 0.101082
H5    H     H_    0.353455 0.038387 0.322445 0.119090
H6    H     H_    0.549274 0.952161 0.184648 0.119140
H7    H     H_    0.230054 0.066245 0.515913 0.159789
H8    H     H_    0.887987 0.887505 0.467146 0.145281
H9    H     H_    0.804068 0.945515 0.720633 0.098478
H10   H     H_    0.597078 0.005797 0.836581 0.105439
H11   H     H_    0.501546 0.153262 0.828396 0.118127
H12   H     H_    0.930378 0.110502 0.803852 0.086914
H13   H     H_    0.614692 0.245060 0.707813 0.174035
H14   H     H_    0.822577 0.189532 0.595050 0.123623
H15   H     H_    0.997857 0.333243 0.410466 0.104481
H16   H     H_    0.775677 0.552081 0.833714 0.101712
H17   H     H_    0.923900 0.227902 0.273535 0.112290
H18   H     H_    0.738229 0.295818 0.298437 0.117521
H19   H     H_    0.699693 0.575948 0.602778 0.105767
H20   H     H_    0.885710 0.507463 0.575122 0.107060
H21   H     H_    0.474440 0.646456 0.407626 0.145345
H22   H     H_    0.265279 0.600665 0.431915 0.106576
H23   H     H_    0.168958 0.471291 0.631305 0.076284
H24   H     H_    0.093683 0.726040 0.497747 0.107092
H25   H     H_    0.008997 0.878326 0.685858 0.094926
H26   H     H_    0.096464 0.905360 0.808978 0.116899
H27   H     H_    0.993902 0.660651 0.358808 0.096079
H28   H     H_    0.269354 0.782741 0.744387 0.104790
H29   H     H_    0.478829 0.352128 0.994254 0.122833
H30   H     H_    0.562306 0.491502 0.859498 0.172403
H31   H     H_    0.786709 0.966621 0.046243 0.129193
H32   H     H_    0.860178 0.030936 0.227857 0.132122
H33   H     H_    0.629710 0.361646 0.020282 0.085772
H34   H     H_    0.097152 0.271628 0.137124 0.085869
H35   H     H_    0.147676 0.859227 0.180720 0.092357
H36   H     H_    0.809620 0.603972 0.378814 0.103302
H37   H     H_    0.839605 0.731873 0.922274 0.096759
H38   H     H_    0.395579 0.560752 0.906281 0.106921
H39   H     H_    0.594872 0.208027 0.534823 0.365839
H40   H     H_    0.901695 0.111512 0.957993 0.084385
H41   H     H_    0.365068 0.637537 0.812411 0.074259
H42   H     H_    0.250045 0.365447 0.090519 0.094508
H43   H     H_    0.087518 0.302406 0.618079 0.094646
H44   H     H_    0.599438 0.742437 0.106418 0.117557
N1    N     N_R   0.037320 0.720000 0.995830 -0.052432
N2    N     N_R   0.824900 0.517970 0.936430 -0.040328
N3    N     N_R   0.003190 0.648180 0.211390 -0.034194
N4    N     N_R   0.774330 0.457010 0.995830 -0.042690
N5    N     N_R   0.053760 0.709130 0.151980 -0.041077
N6    N     N_R   0.853840 0.498830 0.211390 -0.043595
N7    N     N_R   0.974250 0.667320 0.936430 -0.045781
N8    N     N_R   0.225670 0.542990 0.004170 -0.056441
N9    N     N_R   0.946240 0.290870 0.848020 -0.040840
N10   N     N_R   0.146160 0.501170 0.788610 -0.042085
N11   N     N_R   0.025750 0.332680 0.063570 -0.034338
N12   N     N_R   0.962680 0.280000 0.004170 -0.040037
N13   N     N_R   0.209230 0.553860 0.848010 -0.043024
N14   N     N_R   0.175100 0.482030 0.063570 -0.040441
N15   N     N_R   0.996810 0.351820 0.788610 -0.042948
N16   N     N_R   0.790770 0.446140 0.151990 -0.045059
Ni1   Ni    Ni4+2 0.130310 0.630310 0.000000 0.211724
Ni2   Ni    Ni4+2 0.869690 0.369690 0.000000 0.216493
Ni3   Ni    Ni4+2 0.985660 0.509480 0.863750 0.217863
Ni4   Ni    Ni4+2 0.014340 0.490520 0.136250 0.217002
O1    O     O_2   0.534761 0.423572 0.688950 -0.377163
O2    O     O_2   0.379570 0.327277 0.642627 -0.294742
O3    O     O_3   0.587791 0.253369 0.499643 -0.545293
S1    S     S_3+6 0.495965 0.368721 0.600458 -0.078098

loop_
_geom_bond_atom_site_label_1
_geom_bond_atom_site_label_2
_ccdc_geom_bond_type
C25   C31   A    
C56   H12   S    
C6    C45   A    
C27   C29   A    
C9    C64   A    
C41   C42   A    
C19   C20   A    
C3    C6    A    
C16   N2    A    
C39   C41   A    
C52   N5    A    
C32   H17   S    
C26   C27   A    
C29   C30   A    
N8    N14   A    
C18   C24   A    
N16   Ni2   S    
C36   C37   A    
C63   H34   S    
C42   C53   S    
C5    H43   S    
C30   C31   A    
C33   C35   A    
N12   Ni2   S    
N5    Ni1   S    
C39   S1    S    
C10   C17   A    
C23   C40   A    
N7    Ni3   S    
C4    N16   A    
C15   C17   A    
C18   C19   A    
C56   N9    A    
C58   H32   S    
C54   H29   S    
C1    N1    A    
C12   C59   A    
C50   H26   S    
C35   C36   A    
C11   H3    S    
C1    H1    S    
C48   H24   S    
C37   H20   S    
C32   C38   A    
C4    C12   A    
N9    Ni2   S    
N4    Ni2   S    
C3    N14   A    
N2    Ni3   S    
C47   C53   A    
O1    S1    D    
N6    N16   A    
N11   Ni4   S    
C28   C34   A    
C3    H42   S    
C13   C14   A    
C59   H36   S    
C7    C56   A    
C6    C54   S    
C55   H30   S    
C27   H11   S    
C44   C46   A    
C10   H2    S    
C28   N3    A    
C22   C34   S    
C21   H8    S    
C43   H21   S    
C47   H22   S    
C8    C41   S    
C40   N4    A    
C45   H38   S    
C17   H44   S    
C40   H33   S    
C5    C7    A    
C25   C26   A    
C13   C24   S    
C60   C61   A    
C16   H16   S    
N10   N13   A    
N10   Ni3   S    
O2    S1    D    
C43   C44   A    
N13   Ni1   S    
C37   C38   A    
C51   H28   S    
N6    Ni4   S    
N15   Ni3   S    
C47   C48   A    
C50   C51   A    
N3    N5    A    
C57   C61   S    
C39   C46   A    
N1    Ni1   S    
C48   C49   A    
C49   C50   A    
C16   C23   A    
C7    C19   S    
N8    Ni1   S    
C57   H31   S    
C14   H5    S    
C22   C24   A    
C42   C43   A    
O3    S1    S    
C4    H4    S    
C33   H18   S    
C2    N13   A    
C18   H7    S    
C64   H40   S    
C15   H6    S    
C54   C55   D    
C2    H41   S    
C9    C63   A    
C2    C8    A    
C49   H25   S    
C1    C61   A    
N11   N12   A    
C23   C55   S    
C62   H23   S    
C5    N15   A    
C52   H35   S    
C34   C52   A    
C64   N12   A    
C32   C33   A    
N9    N15   A    
C12   C44   S    
C11   C13   A    
C45   N8    A    
C57   C58   D    
C59   N6    A    
C26   H10   S    
C28   H27   S    
C25   H9    S    
N14   Ni4   S    
N2    N4    A    
C62   N10   A    
C10   C11   A    
N1    N7    A    
C30   H14   S    
C29   H13   S    
C20   C21   A    
C63   N11   A    
C38   H15   S    
N3    Ni4   S    
C14   C15   A    
C60   N7    A    
C36   H19   S    
C51   C53   A    
C21   C22   A    
C35   C46   S    
H39   O3    S    
C60   H37   S    
C8    C62   A    
C20   C31   S    
