data_mof_unit_12084.cif
_audit_creation_date              2012-12-10T20:27:12-0500
_audit_creation_method            fapswitch 2.2
_symmetry_space_group_name_H-M    P1
_symmetry_Int_Tables_number       1
_space_group_crystal_system       triclinic
_cell_length_a                    10.876032
_cell_length_b                    10.710524
_cell_length_c                    9.895285
_cell_angle_alpha                 90.087946
_cell_angle_beta                  104.344859
_cell_angle_gamma                 89.854398
_cell_volume                      1116.73962164

loop_
_atom_site_label
_atom_site_type_symbol
_atom_type_description
_atom_site_fract_x
_atom_site_fract_y
_atom_site_fract_z
_atom_type_partial_charge
Br1   Br    Br    0.183762 0.311350 0.763963 -0.392834
Br2   Br    Br    0.216672 0.275448 0.100898 -0.273645
Br3   Br    Br    0.146905 0.637915 0.680467 -0.373698
Br4   Br    Br    0.025744 0.504948 0.219039 -0.346166
Br5   Br    Br    0.713456 0.151237 0.349174 -0.245848
Br6   Br    Br    0.201412 0.135431 0.437249 -0.355023
C1    C     C_R   0.504286 0.260187 0.500879 0.991915
C2    C     C_R   0.589748 0.563029 0.096381 -0.022687
C3    C     C_R   0.590163 0.562460 0.952727 -0.064024
C4    C     C_R   0.259453 0.509659 0.441914 0.980714
C5    C     C_R   0.401434 0.448025 0.902108 0.180209
C6    C     C_3   0.356903 0.316520 0.880112 -0.083126
C7    C     C_3   0.368778 0.309401 0.037107 0.509326
C8    C     C_R   0.506692 0.739220 0.502040 0.919719
C9    C     C_R   0.740094 0.501157 0.558769 0.935412
C10   C     C_2   0.122379 0.522218 0.410037 0.037242
C11   C     C_2   0.066416 0.540120 0.515813 0.118457
C12   C     C_R   0.517476 0.128065 0.505295 -0.176026
C13   C     C_2   0.873153 0.526246 0.593252 -0.288902
C14   C     C_2   0.942984 0.483022 0.510496 0.453300
C15   C     C_R   0.455124 0.062379 0.588995 -0.158596
C16   C     C_R   0.601214 0.064778 0.439635 0.282356
C17   C     C_R   0.605468 0.934228 0.442665 0.377626
C18   C     C_R   0.523759 0.870359 0.510174 -0.215189
C19   C     C_R   0.460149 0.935448 0.593029 -0.048990
C20   C     C_3   0.326854 0.924099 0.607242 0.800290
C21   C     C_3   0.320261 0.066308 0.601015 0.028809
C22   C     C_R   0.403838 0.444519 0.045055 0.167333
H1    H     H_    0.312341 0.107132 0.700769 0.147840
H2    H     H_    0.384419 0.913600 0.811706 0.316097
H3    H     H_    0.663576 0.612277 0.170514 0.174843
H4    H     H_    0.664493 0.610869 0.919007 0.166257
H5    H     H_    0.425683 0.256336 0.843915 0.152105
H6    H     H_    0.906785 0.595101 0.674133 0.160587
H7    H     H_    0.973638 0.334711 0.410872 0.393431
H8    H     H_    0.443730 0.146938 0.083358 0.356387
H9    H     H_    0.705190 0.788746 0.417533 0.324445
H10   H     H_    0.159881 0.870242 0.506566 0.389467
N1    N     N_R   0.499160 0.499140 0.142600 -0.107517
N2    N     N_R   0.499160 0.499180 0.856960 -0.118997
O1    O     O_R   0.500020 0.316790 0.614700 -0.628634
O2    O     O_3   0.471307 0.234534 0.104677 -0.714263
O3    O     O_3   0.687840 0.873711 0.378128 -0.697708
O4    O     O_3   0.247068 0.862992 0.493227 -0.699210
O5    O     O_3   0.319061 0.873326 0.736155 -0.700904
O6    O     O_R   0.500000 0.316760 0.385350 -0.536953
O7    O     O_R   0.317820 0.500020 0.571850 -0.567037
O8    O     O_R   0.317800 0.499980 0.342510 -0.576038
O9    O     O_R   0.500000 0.683240 0.614650 -0.594531
O10   O     O_R   0.499980 0.683210 0.385300 -0.619868
O11   O     O_R   0.682200 0.500020 0.657490 -0.631293
O12   O     O_R   0.682180 0.499980 0.428150 -0.577051
O13   O     O_3   0.899333 0.381190 0.426033 -0.663037
Zn1   Zn    Zn3+2 0.500010 0.500020 0.653140 1.032942
Zn2   Zn    Zn3+2 0.499990 0.499980 0.346860 1.080687

loop_
_geom_bond_atom_site_label_1
_geom_bond_atom_site_label_2
_ccdc_geom_bond_type
O6    Zn2   S    
H9    O3    S    
O8    Zn2   S    
C5    C6    S    
C7    C22   S    
H10   O4    S    
C2    N1    A    
C9    O11   A    
H7    O13   S    
C12   C15   A    
H2    O5    S    
H8    O2    S    
Br6   C21   S    
C3    H4    S    
O12   Zn2   S    
C17   C18   A    
O11   Zn1   S    
C1    C12   S    
C15   C21   S    
C20   O4    S    
C4    C10   S    
C9    O12   A    
C18   C19   A    
C9    C13   S    
C20   C21   S    
C8    O10   A    
Br1   C6    S    
C5    C22   A    
C6    H5    S    
O7    Zn1   S    
O10   Zn2   S    
C7    O2    S    
Br3   C11   S    
N2    Zn1   S    
C1    O1    A    
C4    O8    A    
C5    N2    A    
O1    Zn1   S    
C8    O9    A    
C21   H1    S    
Br4   C10   S    
O9    Zn1   S    
C1    O6    A    
C11   C14   S    
C17   O3    S    
C6    C7    S    
C8    C18   S    
C4    O7    A    
Br2   C7    S    
C15   C19   A    
C16   C17   A    
C2    C3    A    
C22   N1    A    
C19   C20   S    
C12   C16   A    
C2    H3    S    
C3    N2    A    
N1    Zn2   S    
Br5   C16   S    
C13   C14   D    
C10   C11   D    
C14   O13   S    
C20   O5    S    
C13   H6    S    
