data_mof_unit_27081.cif
_audit_creation_date              2012-12-10T20:31:57-0500
_audit_creation_method            fapswitch 2.2
_symmetry_space_group_name_H-M    P1
_symmetry_Int_Tables_number       1
_space_group_crystal_system       triclinic
_cell_length_a                    9.884052
_cell_length_b                    10.661218
_cell_length_c                    15.469026
_cell_angle_alpha                 90.322859
_cell_angle_beta                  68.001945
_cell_angle_gamma                 89.608865
_cell_volume                      1511.2960933

loop_
_atom_site_label
_atom_site_type_symbol
_atom_type_description
_atom_site_fract_x
_atom_site_fract_y
_atom_site_fract_z
_atom_type_partial_charge
C1    C     C_R   0.499784 0.739807 0.499731 0.935877
C2    C     C_R   0.397767 0.433692 0.918818 -0.112890
C3    C     C_R   0.252476 0.470720 0.973427 -0.126862
C4    C     C_R   0.493959 0.398591 0.963599 0.144355
C5    C     C_R   0.456420 0.432600 0.058004 0.056918
C6    C     C_R   0.310410 0.467148 0.111519 -0.215303
C7    C     C_R   0.208710 0.480991 0.070075 -0.086981
C8    C     C_R   0.625158 0.330192 0.918179 -0.107157
C9    C     C_R   0.725393 0.311928 0.960726 -0.213390
C10   C     C_R   0.698884 0.363740 0.048573 0.174402
C11   C     C_R   0.565483 0.427776 0.096354 0.069794
C12   C     C_R   0.408674 0.496796 0.676384 0.952104
C13   C     C_R   0.802275 0.351001 0.090370 -0.069554
C14   C     C_R   0.773995 0.402248 0.178835 -0.164465
C15   C     C_R   0.545827 0.487714 0.180470 -0.215970
C16   C     C_R   0.374178 0.938066 0.545422 0.134540
C17   C     C_R   0.501038 0.871845 0.494445 -0.219655
C18   C     C_R   0.625201 0.934002 0.434482 0.621625
C19   C     C_R   0.625920 0.063876 0.434546 -0.255473
C20   C     C_R   0.502249 0.128806 0.493556 -0.202184
C21   C     C_R   0.374776 0.066335 0.544298 0.152637
C22   C     C_3   0.287537 0.077805 0.646275 -0.445004
C23   C     C_R   0.501126 0.260465 0.498570 0.900702
C24   C     C_3   0.288679 0.936108 0.648378 -0.511320
C25   C     C_R   0.897882 0.586937 0.551284 0.036708
C26   C     C_R   0.955309 0.408522 0.455091 0.648653
C27   C     C_R   0.098863 0.408310 0.455449 -0.183680
C28   C     C_R   0.040791 0.587486 0.550720 0.024677
C29   C     C_3   0.051120 0.726174 0.537376 0.357484
C30   C     C_3   0.897022 0.725299 0.539075 0.376219
C31   C     C_R   0.591009 0.497158 0.324026 0.876007
C32   C     C_R   0.350626 0.483167 0.778519 -0.390920
C33   C     C_R   0.644091 0.469478 0.224390 -0.060132
C34   C     C_R   0.154688 0.501971 0.930511 0.508348
C35   C     C_R   0.202411 0.507393 0.833391 0.340382
C36   C     C_R   0.446757 0.446031 0.821671 0.508644
H1    H     H_    0.097686 0.507081 0.113472 0.198666
H2    H     H_    0.903161 0.299337 0.055562 0.145696
H3    H     H_    0.722593 0.113262 0.390807 0.223211
H4    H     H_    0.349215 0.121594 0.685594 0.200440
H5    H     H_    0.177485 0.118957 0.660686 0.220960
H6    H     H_    0.352411 0.897147 0.688160 0.208734
H7    H     H_    0.178123 0.896772 0.666736 0.200057
H8    H     H_    0.175799 0.335889 0.417634 0.176271
H9    H     H_    0.062929 0.777456 0.596454 0.094562
H10   H     H_    0.451433 0.546963 0.214644 0.172090
H11   H     H_    0.887350 0.754406 0.472768 0.182347
H12   H     H_    0.850147 0.385134 0.212868 0.173708
H13   H     H_    0.824863 0.259230 0.924099 0.160759
H14   H     H_    0.271072 0.479550 0.186284 0.157046
H15   H     H_    0.649178 0.284998 0.851360 0.211560
N1    N     N_R   0.856900 0.500860 0.500610 -0.169755
N2    N     N_R   0.142540 0.500820 0.500610 -0.101201
O1    O     O_R   0.385310 0.683210 0.499990 -0.576021
O2    O     O_R   0.614650 0.683240 0.500000 -0.581909
O3    O     O_R   0.319830 0.499970 0.632240 -0.589220
O4    O     O_R   0.549170 0.500000 0.632250 -0.524775
O5    O     O_R   0.385350 0.316760 0.500000 -0.629048
O6    O     O_R   0.614690 0.316790 0.500010 -0.560217
O7    O     O_R   0.450830 0.500000 0.367750 -0.609025
O8    O     O_R   0.680170 0.500030 0.367760 -0.589292
Zn1   Zn    Zn3+2 0.346870 0.499980 0.499990 1.010952
Zn2   Zn    Zn3+2 0.653130 0.500020 0.500010 1.077431
F1    F     F_    0.745238 0.869710 0.378207 -0.653516
F2    F     F_    0.917248 0.318469 0.406556 -0.661691
F3    F     F_    0.151944 0.758717 0.450749 -0.639503
F4    F     F_    0.798542 0.784266 0.617603 -0.647792
F5    F     F_    0.014245 0.533646 0.982655 -0.662672
O9    O     O_3   0.102827 0.534707 0.792686 -0.545157
C37   C     C_3   0.086700 0.666016 0.791133 -0.154638
H16   H     H_    0.013156 0.688024 0.753844 0.179290
H17   H     H_    0.193213 0.711526 0.753122 0.104420
H18   H     H_    0.035896 0.705963 0.862791 0.199266
F6    F     F_    0.591499 0.434737 0.769458 -0.641170

loop_
_geom_bond_atom_site_label_1
_geom_bond_atom_site_label_2
_ccdc_geom_bond_type
O5    Zn1   S    
C23   O5    A    
C16   C21   A    
C24   H6    S    
C31   O8    A    
C19   C20   A    
C4    C8    A    
C14   C33   A    
C25   C28   A    
C23   O6    A    
C26   C27   A    
C32   C36   A    
C28   C29   S    
C5    C11   A    
C3    C7    A    
C5    C6    A    
C22   H5    S    
C8    C9    A    
O7    Zn1   S    
C34   C35   A    
O8    Zn2   S    
C11   C15   A    
C27   H8    S    
C16   C17   A    
O2    Zn2   S    
C31   C33   S    
C37   H16   S    
C9    C10   A    
C30   F4    S    
C16   C24   S    
C21   C22   S    
C12   C32   S    
O4    Zn2   S    
C32   C35   A    
C30   H11   S    
C9    H13   S    
C34   F5    S    
C18   C19   A    
C14   H12   S    
O1    Zn1   S    
C3    C34   A    
N1    Zn2   S    
C29   H9    S    
C31   O7    A    
C2    C4    A    
C1    O1    A    
C29   C30   S    
C26   N1    A    
N2    Zn1   S    
C20   C23   S    
C22   H4    S    
C37   H18   S    
C17   C18   A    
C7    H1    S    
C6    H14   S    
C8    H15   S    
C13   H2    S    
C12   O3    A    
C19   H3    S    
C12   O4    A    
C22   C24   S    
C2    C36   A    
C25   C30   S    
C36   F6    S    
C26   F2    S    
O6    Zn2   S    
C4    C5    A    
C10   C13   A    
C28   N2    A    
C27   N2    A    
C6    C7    A    
C1    C17   S    
C2    C3    A    
C1    O2    A    
C25   N1    A    
C18   F1    S    
O3    Zn1   S    
O9    C37   S    
C10   C11   A    
C29   F3    S    
C20   C21   A    
C35   O9    S    
C24   H7    S    
C37   H17   S    
C15   H10   S    
C13   C14   A    
C15   C33   A    
