data_mof_unit_16862.cif
_audit_creation_date              2012-12-11T14:46:09-0500
_audit_creation_method            fapswitch 2.2
_symmetry_space_group_name_H-M    P1
_symmetry_Int_Tables_number       1
_space_group_crystal_system       triclinic
_cell_length_a                    10.942494
_cell_length_b                    10.966955
_cell_length_c                    18.769754
_cell_angle_alpha                 89.523316
_cell_angle_beta                  90.381182
_cell_angle_gamma                 119.49296
_cell_volume                      1960.51882684

loop_
_atom_site_label
_atom_site_type_symbol
_atom_type_description
_atom_site_fract_x
_atom_site_fract_y
_atom_site_fract_z
_atom_type_partial_charge
C1    C     C_R   0.864262 0.636959 0.603091 0.554990
C2    C     C_R   0.977706 0.208666 0.716555 0.039191
C3    C     C_R   0.967580 0.210440 0.791562 -0.009050
C4    C     C_R   0.205308 0.592543 0.610799 0.538648
C5    C     C_R   0.721889 0.106034 0.706249 -0.006489
C6    C     C_R   0.718143 0.140553 0.777918 0.024916
C7    C     C_R   0.593744 0.032966 0.666425 0.315114
C8    C     C_R   0.474487 0.032082 0.692234 -0.113176
C9    C     C_R   0.479198 0.097024 0.755969 -0.176213
C10   C     C_R   0.596816 0.146972 0.801100 0.300277
C11   C     C_R   0.853916 0.164526 0.673916 0.008389
C12   C     C_R   0.433206 0.714749 0.771594 0.230752
C13   C     C_R   0.732148 0.533959 0.714320 -0.185691
C14   C     C_R   0.725710 0.546171 0.787672 -0.149396
C15   C     C_R   0.811928 0.674404 0.820300 0.015178
C16   C     C_R   0.864874 0.228109 0.603270 0.541839
C17   C     C_R   0.898037 0.793729 0.777530 0.334233
C18   C     C_R   0.889302 0.784121 0.704326 0.246461
C19   C     C_R   0.818561 0.653041 0.672855 -0.021098
C20   C     C_R   0.428083 0.623274 0.303227 0.274201
C21   C     C_R   0.465355 0.642143 0.231034 -0.132381
C22   C     C_R   0.429644 0.722804 0.186859 -0.012643
C23   C     C_R   0.387835 0.677633 0.702305 -0.064070
C24   C     C_R   0.368042 0.796903 0.215904 -0.143398
C25   C     C_R   0.329460 0.778607 0.287270 -0.184453
C26   C     C_R   0.353171 0.687088 0.330432 0.042328
C27   C     C_R   0.733502 0.170809 0.284916 -0.186780
C28   C     C_R   0.866844 0.637726 0.397105 0.555142
C29   C     C_R   0.734199 0.167888 0.212262 -0.158215
C30   C     C_R   0.837732 0.153103 0.176166 -0.011602
C31   C     C_R   0.945844 0.148863 0.214580 -0.118708
C32   C     C_R   0.949288 0.158192 0.288736 0.202925
C33   C     C_R   0.844218 0.173936 0.324085 0.038155
C34   C     C_R   0.246893 0.622862 0.685107 -0.001971
C35   C     C_R   0.832474 0.765605 0.298235 -0.092957
C36   C     C_R   0.818538 0.778248 0.225731 -0.116259
C37   C     C_R   0.805796 0.672792 0.179384 0.031472
C38   C     C_R   0.799774 0.550965 0.205200 -0.161481
C39   C     C_R   0.814150 0.538422 0.277856 -0.141130
C40   C     C_R   0.276059 0.636703 0.397705 0.574743
C41   C     C_R   0.831717 0.646264 0.324094 0.049925
C42   C     C_R   0.806536 0.106295 0.895578 0.596427
C43   C     C_R   0.387773 0.699071 0.899000 0.586419
C44   C     C_R   0.796458 0.695213 0.895746 0.594006
C45   C     C_R   0.835952 0.166791 0.822714 0.019252
C46   C     C_R   0.807063 0.105622 0.102909 0.534625
C47   C     C_R   0.459051 0.727912 0.110851 0.554313
C48   C     C_R   0.797158 0.695435 0.104730 0.522773
C49   C     C_R   0.861674 0.227341 0.396344 0.572020
C50   C     C_R   0.148573 0.599048 0.738771 -0.168379
C51   C     C_R   0.192829 0.626744 0.810001 -0.196321
C52   C     C_R   0.335972 0.684780 0.826270 0.057738
C53   C     C_3   0.657199 0.905142 0.589944 -0.080578
C54   C     C_3   0.118147 0.941200 0.814222 -0.092820
C55   C     C_3   0.438231 0.418642 0.319628 -0.067739
C56   C     C_R   0.090685 0.262401 0.833540 -0.048691
C57   C     C_3   0.486054 0.152158 0.905348 -0.046413
C58   C     C_R   0.220664 0.306440 0.801597 0.224367
C59   C     C_R   0.230388 0.296373 0.728918 -0.082474
C60   C     C_R   0.111376 0.247298 0.686978 -0.055071
Cl1   Cl    Cl    0.973975 0.938529 0.652899 -0.652831
Cl2   Cl    Cl    0.080799 0.140838 0.334768 -0.654357
Cl3   Cl    Cl    0.613450 0.799241 0.788664 -0.630096
Cl4   Cl    Cl    0.373224 0.369537 0.851598 -0.662741
Cr1   Cr    Cr6+3 0.791660 0.390250 0.499930 1.038099
Cr2   Cr    Cr6+3 0.098520 0.708290 0.500540 1.081664
Cr3   Cr    Cr6+3 0.109770 0.401430 0.499480 1.074305
Cr4   Cr    Cr6+3 0.874790 0.925890 0.000070 1.043571
Cr5   Cr    Cr6+3 0.574120 0.948670 0.999300 1.001092
Cr6   Cr    Cr6+3 0.551420 0.625320 0.000920 1.083843
H1    H     H_    0.038278 0.555188 0.725827 0.105233
H2    H     H_    0.649531 0.180415 0.309756 0.148590
H3    H     H_    0.647793 0.169971 0.184819 0.148566
H4    H     H_    0.022891 0.131212 0.187539 0.157674
H5    H     H_    0.845158 0.848305 0.333785 0.168144
H6    H     H_    0.817036 0.869845 0.205297 0.128746
H7    H     H_    0.788649 0.469063 0.169434 0.117374
H8    H     H_    0.817416 0.447470 0.297917 0.134928
H9    H     H_    0.462198 0.690955 0.661569 0.145670
H10   H     H_    0.330557 0.324735 0.704649 0.143748
H11   H     H_    0.087410 0.272820 0.890683 0.134124
H12   H     H_    0.379843 0.988884 0.660133 0.164710
H13   H     H_    0.126964 0.230140 0.632212 0.196719
H14   H     H_    0.753538 0.967712 0.558134 0.170265
H15   H     H_    0.590699 0.809117 0.558790 0.144565
H16   H     H_    0.684701 0.872388 0.640982 0.172322
H17   H     H_    0.163698 0.939954 0.761649 0.138543
H18   H     H_    0.119067 0.859887 0.849779 0.096800
H19   H     H_    0.184744 0.043694 0.839220 0.146115
H20   H     H_    0.526187 0.431295 0.285659 0.105761
H21   H     H_    0.338472 0.368885 0.288588 0.168299
H22   H     H_    0.427460 0.346147 0.363764 0.178251
H23   H     H_    0.392195 0.112308 0.769217 0.121240
H24   H     H_    0.450584 0.039020 0.909756 0.142793
H25   H     H_    0.395925 0.160307 0.886459 0.136053
H26   H     H_    0.513235 0.197842 0.959509 0.142419
H27   H     H_    0.674473 0.430926 0.690724 0.162173
H28   H     H_    0.656380 0.456082 0.819025 0.237320
H29   H     H_    0.520384 0.592329 0.208647 0.122151
H30   H     H_    0.342904 0.863005 0.182847 0.149641
H31   H     H_    0.116392 0.601665 0.851911 0.105254
H32   H     H_    0.272503 0.828624 0.307283 0.158880
O1    O     O_R   0.766500 0.250040 0.579790 -0.474164
O2    O     O_R   0.413330 0.603360 0.920440 -0.411350
O3    O     O_R   0.676110 0.626250 0.926750 -0.439993
O4    O     O_R   0.798570 0.516780 0.574780 -0.520962
O5    O     O_R   0.895350 0.809870 0.080950 -0.519917
O6    O     O_R   0.872490 0.049760 0.073800 -0.517666
O7    O     O_R   0.691680 0.088070 0.079070 -0.539826
O8    O     O_R   0.451720 0.825250 0.074050 -0.518887
O9    O     O_R   0.413580 0.606370 0.080960 -0.512257
O10   O     O_R   0.676340 0.629040 0.075550 -0.529216
O11   O     O_3   0.666780 0.833290 0.000090 -0.269275
O12   O     O_R   0.218690 0.701900 0.425960 -0.509827
O13   O     O_R   0.984000 0.732950 0.581090 -0.455626
O14   O     O_R   0.218600 0.700890 0.574760 -0.475797
O15   O     O_R   0.249390 0.515350 0.579940 -0.529444
O16   O     O_R   0.982790 0.280900 0.573700 -0.537527
O17   O     O_R   0.766600 0.251130 0.419260 -0.530675
O18   O     O_R   0.798660 0.517790 0.425980 -0.505135
O19   O     O_R   0.984100 0.734040 0.420570 -0.487402
O20   O     O_3   0.583375 0.979819 0.597977 -0.551801
O21   O     O_3   0.982554 0.924135 0.806531 -0.486303
O22   O     O_3   0.467900 0.548529 0.349100 -0.552838
O23   O     O_R   0.249490 0.516440 0.419420 -0.443315
O24   O     O_3   0.604604 0.225748 0.860503 -0.563936
O25   O     O_R   0.982880 0.281910 0.424890 -0.438524
O26   O     O_3   0.999980 0.499990 0.499980 -0.303501
O27   O     O_R   0.895110 0.806860 0.920430 -0.484761
O28   O     O_R   0.872260 0.046970 0.925000 -0.463315
O29   O     O_R   0.691430 0.085060 0.918550 -0.480529
O30   O     O_R   0.451490 0.822460 0.925250 -0.517019

loop_
_geom_bond_atom_site_label_1
_geom_bond_atom_site_label_2
_ccdc_geom_bond_type
C54   O21   S    
C6    C45   A    
C27   C29   A    
C35   C36   A    
C56   H11   S    
C39   C41   A    
C49   O17   A    
C54   H17   S    
C27   C33   A    
C12   C23   A    
C35   H5    S    
C37   C38   A    
Cr2   O14   S    
C53   H14   S    
C8    H12   S    
C21   C22   A    
C43   O30   A    
C15   C44   S    
C5    C11   A    
C55   H20   S    
C16   O16   A    
C53   O20   S    
Cr3   O23   S    
C30   C31   A    
C21   H29   S    
C60   H13   S    
Cr6   O2    S    
C43   C52   S    
C48   O5    A    
C29   H3    S    
C33   C49   S    
C28   C41   S    
C18   C19   A    
C3    C56   A    
C43   O2    A    
C55   H21   S    
C36   H6    S    
Cr5   O7    S    
C17   O21   S    
C40   O12   A    
Cr2   O26   S    
C8    C9    A    
C57   H26   S    
C46   O6    A    
C53   H16   S    
Cr4   O5    S    
C9    C10   A    
C1    O4    A    
C22   C47   S    
C59   C60   A    
C13   C14   A    
C35   C41   A    
C2    C11   A    
C12   C52   A    
C4    O14   A    
C14   H28   S    
Cr6   O11   S    
C58   Cl4   S    
C38   C39   A    
C49   O25   A    
C4    C34   S    
C34   C50   A    
C1    C19   S    
Cr2   O13   S    
C13   C19   A    
C51   C52   A    
C39   H8    S    
C7    C8    A    
C24   C25   A    
C54   H19   S    
C28   O18   A    
C57   O24   S    
C5    C7    A    
C12   Cl3   S    
C28   O19   A    
C31   H4    S    
C50   C51   A    
C44   O27   A    
C44   O3    A    
C3    C45   A    
C42   C45   S    
C50   H1    S    
Cr1   O26   S    
C29   C30   A    
Cr3   O25   S    
Cr5   O8    S    
C16   O1    A    
C31   C32   A    
Cr5   O29   S    
C23   C34   A    
Cr5   O11   S    
C17   C18   A    
Cr1   O17   S    
Cr2   O19   S    
C42   O28   A    
C37   C48   S    
Cr4   O28   S    
Cr3   O15   S    
C42   O29   A    
Cr6   O10   S    
C48   O10   A    
C55   H22   S    
C57   H24   S    
C22   C24   A    
C4    O15   A    
C58   C59   A    
Cr1   O1    S    
C7    O20   S    
C9    H23   S    
Cr1   O4    S    
C15   C17   A    
C55   O22   S    
C36   C37   A    
Cr2   O12   S    
C24   H30   S    
C30   C46   S    
Cr6   O3    S    
C59   H10   S    
C6    C10   A    
C18   Cl1   S    
C38   H7    S    
C51   H31   S    
C47   O8    A    
Cr4   O6    S    
Cr4   O11   S    
C32   C33   A    
C2    C3    A    
C25   C26   A    
C32   Cl2   S    
Cr3   O26   S    
C54   H18   S    
C26   C40   S    
C5    C6    A    
C20   C26   A    
Cr5   O30   S    
C47   O9    A    
C40   O23   A    
Cr1   O18   S    
C56   C58   A    
C2    C60   A    
C13   H27   S    
Cr4   O27   S    
C25   H32   S    
Cr3   O16   S    
C20   O22   S    
C11   C16   S    
Cr6   O9    S    
C20   C21   A    
C57   H25   S    
C46   O7    A    
C14   C15   A    
C53   H15   S    
C1    O13   A    
C23   H9    S    
C10   O24   S    
C27   H2    S    
