data_mof_unit_38974.cif
_audit_creation_date              2012-12-10T19:19:32-0500
_audit_creation_method            fapswitch 2.2
_symmetry_space_group_name_H-M    P1
_symmetry_Int_Tables_number       1
_space_group_crystal_system       triclinic
_cell_length_a                    15.735779
_cell_length_b                    15.730376
_cell_length_c                    14.982314
_cell_angle_alpha                 89.962886
_cell_angle_beta                  89.992869
_cell_angle_gamma                 89.925468
_cell_volume                      3708.56405009

loop_
_atom_site_label
_atom_site_type_symbol
_atom_type_description
_atom_site_fract_x
_atom_site_fract_y
_atom_site_fract_z
_atom_type_partial_charge
C1    C     C_R   0.499727 0.337909 0.500030 0.904317
C2    C     C_3   0.083514 0.503739 0.500864 -0.068946
C3    C     C_3   0.972025 0.528279 0.581285 0.339620
C4    C     C_3   0.916817 0.498788 0.502962 -0.060509
C5    C     C_3   0.027062 0.583082 0.517460 -0.439831
C6    C     C_3   0.971074 0.552010 0.438801 0.476793
C7    C     C_1   0.174026 0.503782 0.499779 0.009042
C8    C     C_1   0.826178 0.497484 0.501441 0.076951
C9    C     C_3   0.523905 0.048415 0.591599 -0.483782
C10   C     C_3   0.571236 0.049740 0.430968 0.229110
C11   C     C_3   0.566819 0.950528 0.426976 0.212941
C12   C     C_R   0.337620 0.500546 0.499994 0.903513
C13   C     C_1   0.501070 0.750635 0.499854 -0.230023
C14   C     C_3   0.501370 0.082684 0.497060 -0.033850
C15   C     C_3   0.527379 0.950237 0.591041 0.210813
C16   C     C_3   0.500607 0.917222 0.497260 0.010292
C17   C     C_3   0.408966 0.949977 0.475384 0.299696
C18   C     C_3   0.413613 0.047701 0.462684 0.218141
C19   C     C_1   0.501350 0.825812 0.499002 0.020071
C20   C     C_1   0.500462 0.173999 0.498270 0.012388
C21   C     C_1   0.499874 0.249216 0.499620 -0.206738
C22   C     C_3   0.487026 0.409474 0.052616 -0.080192
C23   C     C_R   0.500306 0.662045 0.499942 0.897637
C24   C     C_3   0.584357 0.534603 0.051253 -0.441638
C25   C     C_3   0.582070 0.537340 0.947171 -0.394075
C26   C     C_3   0.498652 0.501785 0.089967 0.231547
C27   C     C_3   0.487999 0.409207 0.947732 -0.488239
C28   C     C_3   0.497271 0.500824 0.909965 0.228924
C29   C     C_3   0.421171 0.554167 0.947437 -0.070404
C30   C     C_3   0.425378 0.559736 0.053207 -0.061500
C31   C     C_1   0.497818 0.499357 0.809241 0.051282
C32   C     C_1   0.500688 0.501626 0.190754 0.073039
C33   C     C_R   0.662425 0.499418 0.500007 0.893284
C34   C     C_3   0.975026 0.422105 0.487692 0.395238
C35   C     C_3   0.028568 0.474257 0.420784 -0.366691
C36   C     C_1   0.249073 0.502474 0.499831 -0.206573
C37   C     C_1   0.751075 0.498033 0.500324 -0.179168
C38   C     C_3   0.030058 0.451160 0.566550 0.411989
H1    H     H_    0.053077 0.452773 0.355067 0.162817
H2    H     H_    0.630983 0.925599 0.445851 0.102601
H3    H     H_    0.415132 0.058091 0.389143 0.170153
H4    H     H_    0.367245 0.935923 0.533605 0.105426
H5    H     H_    0.479418 0.071521 0.643366 0.179793
H6    H     H_    0.542024 0.369412 0.924078 0.172391
H7    H     H_    0.542208 0.370840 0.075909 0.153534
H8    H     H_    0.600171 0.598484 0.078046 0.177507
H9    H     H_    0.636899 0.491949 0.073062 0.168188
H10   H     H_    0.636460 0.499867 0.920502 0.170335
H11   H     H_    0.591497 0.603672 0.924018 0.168649
H12   H     H_    0.364350 0.534414 0.079595 0.132172
H13   H     H_    0.362165 0.518465 0.930694 0.136275
H14   H     H_    0.429391 0.379331 0.920594 0.163709
H15   H     H_    0.050970 0.648493 0.529082 0.155013
H16   H     H_    0.594747 0.929853 0.601960 0.098142
H17   H     H_    0.586947 0.073233 0.612817 0.205920
H18   H     H_    0.556908 0.074391 0.362514 0.110589
N1    N     N_1   0.498320 0.498630 0.731150 -0.088146
N2    N     N_1   0.501700 0.501360 0.268850 -0.088457
O1    O     O_R   0.500080 0.377210 0.574260 -0.611997
O2    O     O_R   0.499910 0.377070 0.425800 -0.609954
O3    O     O_R   0.376870 0.500060 0.574220 -0.610659
O4    O     O_R   0.376690 0.499920 0.425760 -0.604826
O5    O     O_R   0.500090 0.622930 0.574200 -0.610702
O6    O     O_R   0.499920 0.622790 0.425740 -0.612014
O7    O     O_R   0.623310 0.500080 0.574240 -0.611849
O8    O     O_R   0.623130 0.499940 0.425780 -0.608302
Zn1   Zn    Zn3+2 0.500120 0.500090 0.599130 0.970239
Zn2   Zn    Zn3+2 0.499880 0.499910 0.400870 0.979632
O9    O     O_3   0.653826 0.074413 0.460169 -0.659778
C39   C     C_3   0.686044 0.144735 0.411660 0.106142
H19   H     H_    0.728794 0.180785 0.456861 0.172648
H20   H     H_    0.635810 0.190152 0.389932 0.133389
C40   C     C_3   0.737639 0.114477 0.331138 -0.385002
H21   H     H_    0.791167 0.073955 0.354409 0.228468
H22   H     H_    0.696576 0.076161 0.286377 0.219243
C41   C     C_3   0.772810 0.189607 0.278354 -0.948609
H23   H     H_    0.719906 0.227635 0.249657 0.265608
H24   H     H_    0.813267 0.165911 0.222957 0.264227
H25   H     H_    0.811749 0.231102 0.322082 0.276577
O10   O     O_3   0.542865 0.925597 0.339131 -0.617704
C42   C     C_3   0.591655 0.856333 0.306902 0.142611
H26   H     H_    0.551880 0.821462 0.257841 0.173885
H27   H     H_    0.608674 0.809667 0.359855 0.120708
C43   C     C_3   0.671921 0.887999 0.259725 -0.400569
H28   H     H_    0.654071 0.934400 0.206964 0.231263
H29   H     H_    0.713929 0.920295 0.308626 0.217108
C44   C     C_3   0.720850 0.814543 0.217340 -0.959156
H30   H     H_    0.739462 0.767433 0.269059 0.267149
H31   H     H_    0.779306 0.839166 0.184886 0.267619
H32   H     H_    0.681220 0.782630 0.165983 0.262776
O11   O     O_3   0.338018 0.091564 0.488380 -0.639603
C45   C     C_3   0.326349 0.101530 0.581261 0.095650
H33   H     H_    0.366361 0.154616 0.605911 0.158436
H34   H     H_    0.340412 0.042669 0.619279 0.149199
C46   C     C_3   0.233578 0.125193 0.598383 -0.328827
H35   H     H_    0.216991 0.183122 0.559471 0.234843
H36   H     H_    0.192051 0.072299 0.575840 0.221583
C47   C     C_3   0.217248 0.142211 0.697161 -0.990478
H37   H     H_    0.231233 0.084431 0.737239 0.268525
H38   H     H_    0.149523 0.159789 0.706997 0.271519
H39   H     H_    0.257667 0.195431 0.720939 0.264045
O12   O     O_3   0.472103 0.916930 0.657524 -0.648358
C48   C     C_3   0.514758 0.905145 0.739769 0.083950
H40   H     H_    0.467489 0.914020 0.794055 0.159917
H41   H     H_    0.565721 0.953143 0.751419 0.126353
C49   C     C_3   0.550361 0.814585 0.745797 -0.314581
H42   H     H_    0.497534 0.768166 0.739049 0.241975
H43   H     H_    0.596158 0.803248 0.690618 0.210953
C50   C     C_3   0.595512 0.799825 0.834536 -1.006487
H44   H     H_    0.649810 0.844359 0.841622 0.271148
H45   H     H_    0.620139 0.733729 0.836953 0.266303
H46   H     H_    0.550822 0.809359 0.891045 0.258216
O13   O     O_3   0.378290 0.911837 0.395428 -0.602390
C51   C     C_3   0.310968 0.854731 0.412983 0.094035
H47   H     H_    0.252723 0.891147 0.430931 0.142353
H48   H     H_    0.327159 0.810396 0.468503 0.132517
C52   C     C_3   0.293665 0.801847 0.329476 -0.287761
H49   H     H_    0.273459 0.844485 0.274202 0.223073
H50   H     H_    0.352976 0.768661 0.308972 0.235966
C53   C     C_3   0.224456 0.735855 0.346383 -0.999712
H51   H     H_    0.244957 0.690335 0.398901 0.271266
H52   H     H_    0.211773 0.699863 0.284078 0.268893
H53   H     H_    0.164861 0.767642 0.367895 0.256252
O14   O     O_3   0.941564 0.340343 0.471483 -0.635686
C54   C     C_3   0.007529 0.279454 0.472523 0.125018
H54   H     H_    0.024254 0.264001 0.542775 0.196644
H55   H     H_    0.065435 0.302103 0.436742 0.131653
C55   C     C_3   0.976523 0.198480 0.426702 -0.353884
H56   H     H_    0.915821 0.177468 0.457609 0.237337
H57   H     H_    0.964845 0.211959 0.354924 0.227768
C56   C     C_3   0.041669 0.126935 0.434590 -0.969346
H58   H     H_    0.103319 0.146606 0.404967 0.276087
H59   H     H_    0.018255 0.069951 0.398511 0.268718
H60   H     H_    0.051335 0.109864 0.505799 0.262318
N3    N     N_3   0.432772 0.646671 0.088451 -0.472747
H61   H     H_    0.376766 0.680196 0.075256 0.179292
H62   H     H_    0.483366 0.679241 0.059286 0.191950
N4    N     N_3   0.409881 0.369278 0.088009 -0.466408
H63   H     H_    0.356271 0.392651 0.054857 0.183335
H64   H     H_    0.412896 0.304209 0.073989 0.191024
O15   O     O_3   0.932834 0.603060 0.372553 -0.634299
C57   C     C_3   0.995536 0.652599 0.330078 0.102514
H65   H     H_    0.046839 0.611659 0.301978 0.147582
H66   H     H_    0.023340 0.698728 0.378132 0.139422
C58   C     C_3   0.954405 0.702472 0.253937 -0.327577
H67   H     H_    0.925842 0.657396 0.205371 0.229600
H68   H     H_    0.902995 0.743459 0.281155 0.228233
C59   C     C_3   0.019105 0.758259 0.205767 -0.981452
H69   H     H_    0.046674 0.805495 0.252578 0.269065
H70   H     H_    0.987274 0.792942 0.150503 0.267853
H71   H     H_    0.070924 0.718617 0.177343 0.265607
N5    N     N_3   0.413650 0.636602 0.901901 -0.469170
H72   H     H_    0.358685 0.667692 0.923626 0.181189
H73   H     H_    0.466056 0.675173 0.914656 0.198172
O16   O     O_3   0.940565 0.550121 0.666457 -0.642091
C60   C     C_3   0.905087 0.632475 0.663947 0.097870
H74   H     H_    0.859598 0.639745 0.607437 0.146591
H75   H     H_    0.956538 0.680566 0.657417 0.138745
C61   C     C_3   0.857235 0.648490 0.751060 -0.318060
H76   H     H_    0.806757 0.599708 0.759279 0.230174
H77   H     H_    0.902078 0.643006 0.808113 0.222615
C62   C     C_3   0.816520 0.736581 0.752157 -0.986522
H78   H     H_    0.865633 0.786500 0.743062 0.265346
H79   H     H_    0.784686 0.746937 0.817364 0.270563
H80   H     H_    0.768350 0.742069 0.698236 0.268479
O17   O     O_3   0.062904 0.395316 0.631876 -0.666161
C63   C     C_3   0.106455 0.440820 0.699174 0.144354
H81   H     H_    0.062912 0.450134 0.756773 0.178397
H82   H     H_    0.129306 0.504651 0.677406 0.142008
C64   C     C_3   0.183282 0.388586 0.729300 -0.348292
H83   H     H_    0.161065 0.327590 0.758535 0.227833
H84   H     H_    0.223939 0.374013 0.670541 0.236499
C65   C     C_3   0.236283 0.436125 0.798431 -0.981639
H85   H     H_    0.261553 0.496063 0.769564 0.278365
H86   H     H_    0.290759 0.395860 0.819385 0.258871
H87   H     H_    0.197216 0.451135 0.858142 0.258214

loop_
_geom_bond_atom_site_label_1
_geom_bond_atom_site_label_2
_ccdc_geom_bond_type
C2    C35   S    
O8    Zn2   S    
C44   H30   S    
C1    C21   S    
C40   H21   S    
C14   C18   S    
C2    C7    S    
C59   H71   S    
C32   N2    T    
C4    C8    S    
C56   H60   S    
C55   H56   S    
C58   C59   S    
C51   H47   S    
C46   C47   S    
C17   O13   S    
N3    H61   S    
C63   H82   S    
C65   H85   S    
C27   H14   S    
C25   C28   S    
C26   C32   S    
C64   H84   S    
C18   O11   S    
O6    Zn2   S    
C5    H15   S    
C28   C29   S    
C41   H24   S    
C62   H78   S    
C52   H50   S    
C58   H67   S    
C5    C6    S    
C64   H83   S    
C15   C16   S    
C47   H37   S    
O16   C60   S    
C6    C35   S    
C13   C23   S    
N3    H62   S    
C34   C35   S    
C7    C36   T    
C2    C38   S    
C17   H4    S    
C50   H45   S    
C58   H68   S    
C27   H6    S    
C46   H35   S    
C3    C38   S    
C16   C17   S    
O7    Zn1   S    
C54   C55   S    
C61   H77   S    
C39   H19   S    
C9    H17   S    
C12   C36   S    
C10   H18   S    
C53   H53   S    
O1    Zn1   S    
C23   O5    A    
C30   H12   S    
C15   O12   S    
C40   H22   S    
C57   C58   S    
O9    C39   S    
N1    Zn1   S    
C45   H34   S    
C42   H27   S    
C53   H52   S    
C33   O8    A    
C42   H26   S    
C63   C64   S    
C62   H79   S    
C65   H86   S    
O5    Zn1   S    
C9    H5    S    
C13   C19   T    
C33   O7    A    
O12   C48   S    
C15   H16   S    
C14   C20   S    
C43   H28   S    
C24   C25   S    
C4    C6    S    
C10   C14   S    
C50   H46   S    
O11   C45   S    
C3    C5    S    
C45   C46   S    
C33   C37   S    
C18   H3    S    
C35   H1    S    
C9    C14   S    
C28   C31   S    
C29   C30   S    
C62   H80   S    
C12   O4    A    
C11   C16   S    
O3    Zn1   S    
C61   H76   S    
C39   C40   S    
C3    O16   S    
C17   C18   S    
C61   C62   S    
C48   H41   S    
C49   H42   S    
C41   H23   S    
C6    O15   S    
C25   H10   S    
N4    H64   S    
N2    Zn2   S    
C23   O6    A    
N5    H73   S    
C26   C30   S    
C47   H38   S    
C22   C27   S    
C44   H31   S    
C54   H54   S    
C40   C41   S    
C57   H66   S    
C52   C53   S    
C2    C5    S    
C8    C37   T    
C56   H58   S    
C55   C56   S    
C63   H81   S    
C42   C43   S    
C53   H51   S    
C41   H25   S    
O13   C51   S    
C29   H13   S    
C65   H87   S    
C38   O17   S    
C60   H74   S    
C34   O14   S    
C34   C38   S    
C24   H9    S    
C60   C61   S    
C24   C26   S    
C59   H70   S    
O10   C42   S    
C56   H59   S    
C55   H57   S    
C51   H48   S    
C46   H36   S    
C43   C44   S    
C47   H39   S    
C22   N4    S    
C52   H49   S    
O4    Zn2   S    
C10   C11   S    
C31   N1    T    
C1    O1    A    
C9    C15   S    
C24   H8    S    
O15   C57   S    
C29   N5    S    
C12   O3    A    
O17   C63   S    
C49   H43   S    
C16   C19   S    
C60   H75   S    
C45   H33   S    
C48   C49   S    
C59   H69   S    
C4    C34   S    
C11   H2    S    
C1    O2    A    
C25   H11   S    
C51   C52   S    
C11   O10   S    
C10   O9    S    
C22   H7    S    
C20   C21   T    
O2    Zn2   S    
C30   N3    S    
C22   C26   S    
C44   H32   S    
C48   H40   S    
C54   H55   S    
C57   H65   S    
C43   H29   S    
C39   H20   S    
N5    H72   S    
C50   H44   S    
C64   C65   S    
N4    H63   S    
C3    C4    S    
O14   C54   S    
C27   C28   S    
C49   C50   S    
