data_mof_unit_18941.cif
_audit_creation_date              2012-12-10T18:09:50-0500
_audit_creation_method            fapswitch 2.2
_symmetry_space_group_name_H-M    P1
_symmetry_Int_Tables_number       1
_space_group_crystal_system       triclinic
_cell_length_a                    10.710998
_cell_length_b                    12.634589
_cell_length_c                    13.12285
_cell_angle_alpha                 82.124832
_cell_angle_beta                  91.721242
_cell_angle_gamma                 102.793072
_cell_volume                      1715.48518249

loop_
_atom_site_label
_atom_site_type_symbol
_atom_type_description
_atom_site_fract_x
_atom_site_fract_y
_atom_site_fract_z
_atom_type_partial_charge
C1    C     C_R   0.479379 0.438522 0.690972 0.904035
C2    C     C_R   0.451391 0.439323 0.973574 0.111013
C3    C     C_R   0.424488 0.462011 0.868216 0.081735
C4    C     C_R   0.742671 0.500742 0.499793 0.945781
C5    C     C_R   0.452008 0.521826 0.036230 0.081655
C6    C     C_R   0.404245 0.615554 0.997841 0.135325
C7    C     C_R   0.353973 0.625068 0.898745 -0.139632
C8    C     C_R   0.365376 0.549803 0.833844 -0.167783
C9    C     C_R   0.504166 0.515655 0.134520 -0.327822
C10   C     C_R   0.465563 0.692894 0.156571 0.484576
C11   C     C_R   0.459670 0.397079 0.799976 -0.120578
C12   C     C_3   0.122669 0.497898 0.497074 0.078325
C13   C     C_R   0.324541 0.090124 0.340658 -0.313766
C14   C     C_R   0.643410 0.803545 0.638339 0.054214
C15   C     C_R   0.685894 0.913273 0.655341 -0.204156
C16   C     C_R   0.513118 0.560999 0.308162 0.875875
C17   C     C_R   0.635174 0.992501 0.596672 -0.335572
C18   C     C_R   0.540242 0.964523 0.523450 0.037061
C19   C     C_R   0.510809 0.855212 0.499812 0.177283
C20   C     C_R   0.474840 0.042435 0.472791 0.002856
C21   C     C_R   0.386415 0.012633 0.393835 0.160086
C22   C     C_R   0.360126 0.905811 0.369745 -0.289414
C23   C     C_3   0.091518 0.584589 0.409973 -0.404708
C24   C     C_R   0.420672 0.828170 0.422752 -0.141632
C25   C     C_R   0.491834 0.149096 0.499278 -0.085512
C26   C     C_R   0.350879 0.195825 0.366778 0.004314
C27   C     C_R   0.258697 0.499805 0.497031 0.857794
C28   C     C_3   0.900806 0.383448 0.481941 0.318330
C29   C     C_3   0.043546 0.385006 0.477559 -0.462585
C30   C     C_3   0.947828 0.584658 0.410987 -0.394852
C31   C     C_3   0.946375 0.534459 0.605530 0.400929
C32   C     C_3   0.880950 0.500029 0.500949 -0.053285
C33   C     C_3   0.789998 0.240981 0.391273 0.159918
C34   C     C_3   0.086921 0.518396 0.604721 -0.558603
C35   C     C_3   0.884756 0.180092 0.353489 -0.403961
C36   C     C_3   0.826682 0.057785 0.359425 -0.953758
C37   C     C_3   0.566048 0.872025 0.166851 0.091441
C38   C     C_3   0.705182 0.858609 0.178097 -0.378202
C39   C     C_3   0.796615 0.954795 0.117019 -0.902238
C40   C     C_2   0.661004 0.720839 0.725312 0.982366
C41   C     C_2   0.781471 0.946982 0.736356 0.976832
C42   C     C_3   0.037623 0.731907 0.610343 0.141874
C43   C     C_3   0.089403 0.748375 0.718597 -0.309421
C44   C     C_3   0.204880 0.844672 0.714243 -0.947513
C45   C     C_R   0.411147 0.700118 0.057848 -0.290040
C46   C     C_2   0.881850 0.462931 0.701255 0.872777
C47   C     C_R   0.500950 0.594846 0.197746 -0.163652
C48   C     C_R   0.489110 0.296078 0.838038 -0.180030
C49   C     C_R   0.494877 0.264632 0.943327 -0.141873
C50   C     C_R   0.479823 0.336548 0.010990 -0.184050
H1    H     H_    0.158770 0.583787 0.634098 0.187699
H2    H     H_    0.860060 0.323645 0.549205 0.108659
H3    H     H_    0.329187 0.561790 0.756331 0.146419
H4    H     H_    0.305326 0.257166 0.325330 0.133398
H5    H     H_    0.291539 0.881764 0.310157 0.169131
H6    H     H_    0.257250 0.069387 0.279365 0.147402
H7    H     H_    0.550479 0.177359 0.562319 0.136743
H8    H     H_    0.672181 0.075699 0.610272 0.146903
H9    H     H_    0.394911 0.747378 0.402012 0.232922
H10   H     H_    0.065793 0.318665 0.535623 0.156060
H11   H     H_    0.069812 0.368761 0.400612 0.209992
H12   H     H_    0.935249 0.668409 0.417925 0.188363
H13   H     H_    0.904153 0.564162 0.336149 0.201956
H14   H     H_    0.116680 0.564855 0.334098 0.174600
H15   H     H_    0.097572 0.445203 0.659587 0.148868
H16   H     H_    0.705526 0.231692 0.339371 0.164678
H17   H     H_    0.753255 0.201316 0.468344 0.118382
H18   H     H_    0.912351 0.214299 0.272697 0.233801
H19   H     H_    0.972137 0.189630 0.401785 0.219983
H20   H     H_    0.813612 0.020065 0.440884 0.281131
H21   H     H_    0.892549 0.017700 0.322725 0.269944
H22   H     H_    0.732663 0.043416 0.319689 0.266305
H23   H     H_    0.149951 0.667549 0.416546 0.167194
H24   H     H_    0.557252 0.942708 0.205830 0.161416
H25   H     H_    0.542551 0.894262 0.084654 0.138616
H26   H     H_    0.732278 0.852552 0.260742 0.230842
H27   H     H_    0.715338 0.782343 0.149170 0.229408
H28   H     H_    0.776968 0.955475 0.033363 0.303225
H29   H     H_    0.896886 0.946646 0.131767 0.263343
H30   H     H_    0.785667 0.033710 0.139715 0.262573
H31   H     H_    0.739382 0.595234 0.782311 0.351364
H32   H     H_    0.682522 0.047937 0.789118 0.296291
H33   H     H_    0.003183 0.806452 0.578522 0.170349
H34   H     H_    0.313266 0.694297 0.869410 0.146033
H35   H     H_    0.113261 0.728852 0.556427 0.122497
H36   H     H_    0.013082 0.764093 0.765943 0.287167
H37   H     H_    0.117479 0.673677 0.757688 0.219809
H38   H     H_    0.285101 0.827169 0.672343 0.261382
H39   H     H_    0.237018 0.858464 0.793496 0.264527
H40   H     H_    0.179247 0.920544 0.674804 0.284157
H41   H     H_    0.744174 0.337368 0.764636 0.347303
H42   H     H_    0.374935 0.771814 0.027860 0.139394
H43   H     H_    0.547048 0.448263 0.164760 0.181248
H44   H     H_    0.511509 0.242853 0.786463 0.159541
H45   H     H_    0.487828 0.308681 0.091912 0.130122
H46   H     H_    0.516804 0.186391 0.972502 0.142059
N1    N     N_R   0.433240 0.222190 0.444680 -0.104679
N2    N     N_R   0.566070 0.776970 0.554790 -0.172161
O1    O     O_R   0.468120 0.366740 0.627160 -0.606108
O2    O     O_3   0.478683 0.778249 0.214664 -0.659136
O3    O     O_2   0.616950 0.724208 0.809390 -0.662539
O4    O     O_R   0.734037 0.644846 0.715457 -0.711648
O5    O     O_2   0.874828 0.906209 0.748902 -0.611526
O6    O     O_R   0.767660 0.025433 0.798333 -0.776580
O7    O     O_3   0.930268 0.642905 0.613935 -0.593242
O8    O     O_2   0.926107 0.480364 0.785967 -0.623609
O9    O     O_R   0.773144 0.379257 0.694868 -0.870989
O10   O     O_R   0.510770 0.544830 0.662520 -0.608117
O11   O     O_R   0.663880 0.410950 0.482330 -0.589756
O12   O     O_R   0.706530 0.589040 0.517700 -0.556105
O13   O     O_R   0.489230 0.455170 0.337480 -0.625826
O14   O     O_R   0.531880 0.633260 0.372840 -0.602922
O15   O     O_R   0.293470 0.410960 0.482300 -0.630016
O16   O     O_R   0.336120 0.589050 0.517670 -0.665849
O17   O     O_3   0.843746 0.354848 0.386911 -0.626426
Zn1   Zn    Zn3+2 0.471520 0.381090 0.476390 0.947986
Zn2   Zn    Zn3+2 0.528480 0.618910 0.523610 0.964295

loop_
_geom_bond_atom_site_label_1
_geom_bond_atom_site_label_2
_ccdc_geom_bond_type
C37   H24   S    
C6    C45   A    
C12   C29   S    
C35   C36   S    
C1    C11   S    
C4    O11   A    
C1    O1    A    
C7    C8    A    
C38   H26   S    
C12   C23   S    
C33   H17   S    
C34   H1    S    
C48   H44   S    
C21   C22   A    
C28   C29   S    
C5    C6    A    
C50   H45   S    
C20   C25   A    
C16   C47   S    
C18   C19   A    
C45   H42   S    
C2    C50   A    
O11   Zn1   S    
C40   O3    D    
C31   C46   S    
O13   Zn1   S    
C36   H21   S    
C17   H8    S    
O15   Zn1   S    
C7    H34   S    
C37   H25   S    
C30   H13   S    
C31   O7    S    
C11   C48   A    
C25   H7    S    
C23   H23   S    
C26   H4    S    
C34   H15   S    
C19   N2    A    
C36   H20   S    
C33   H16   S    
C14   N2    A    
C6    C7    A    
H31   O4    S    
C29   H11   S    
C33   O17   S    
C12   C27   S    
C23   C30   S    
H41   O9    S    
C28   C32   S    
C15   C41   S    
C3    C8    A    
O1    Zn1   S    
C1    O10   A    
C40   O4    S    
C41   O5    D    
C39   H29   S    
C43   C44   S    
C39   H28   S    
C5    C9    A    
C37   C38   S    
C28   O17   S    
C31   C32   S    
C29   H10   S    
C46   O9    S    
C10   C45   A    
C17   C18   A    
C31   C34   S    
C13   C21   A    
C42   H35   S    
N1    Zn1   S    
C10   O2    S    
C4    C32   S    
C27   O15   A    
C25   N1    A    
C48   C49   A    
C9    C47   A    
C30   H12   S    
C22   C24   A    
C13   C26   A    
C2    C5    A    
C42   C43   S    
C12   C34   S    
C9    H43   S    
C44   H40   S    
C16   O14   A    
N2    Zn2   S    
C15   C17   A    
C4    O12   A    
C23   H14   S    
C43   H36   S    
O10   Zn2   S    
C42   H33   S    
C8    H3    S    
C22   H5    S    
C38   H27   S    
C41   O6    S    
O14   Zn2   S    
C43   H37   S    
C39   H30   S    
C13   H6    S    
C2    C3    A    
C30   C32   S    
C28   H2    S    
C38   C39   S    
C35   H18   S    
C24   H9    S    
O12   Zn2   S    
C46   O8    D    
C33   C35   S    
C19   C24   A    
C18   C20   A    
C49   H46   S    
C42   O7    S    
O16   Zn2   S    
C3    C11   A    
C26   N1    A    
C14   C40   S    
C27   O16   A    
C20   C21   A    
C35   H19   S    
C49   C50   A    
C10   C47   A    
H32   O6    S    
C14   C15   A    
C44   H38   S    
C37   O2    S    
C44   H39   S    
C36   H22   S    
C16   O13   A    
