data_mof_unit_17668.cif
_audit_creation_date              2012-12-10T16:37:22-0500
_audit_creation_method            fapswitch 2.2
_symmetry_space_group_name_H-M    P1
_symmetry_Int_Tables_number       1
_space_group_crystal_system       triclinic
_cell_length_a                    16.853245
_cell_length_b                    16.890742
_cell_length_c                    16.735415
_cell_angle_alpha                 66.525526
_cell_angle_beta                  66.930596
_cell_angle_gamma                 66.053829
_cell_volume                      3840.09451256

loop_
_atom_site_label
_atom_site_type_symbol
_atom_type_description
_atom_site_fract_x
_atom_site_fract_y
_atom_site_fract_z
_atom_type_partial_charge
C1    C     C_R   0.413203 0.013140 0.671875 -0.236927
C2    C     C_R   0.451652 0.702196 0.920990 -0.207932
C3    C     C_R   0.983401 0.587830 0.328796 -0.221789
C4    C     C_R   0.095041 0.393661 0.647487 -0.211303
C5    C     C_R   0.978120 0.176887 0.431314 0.924486
C6    C     C_R   0.035413 0.821080 0.562676 0.890652
C7    C     C_R   0.178727 0.439532 0.958533 0.893664
C8    C     C_R   0.821464 0.566740 0.029098 0.882634
C9    C     C_R   0.436574 0.967058 0.178889 0.916500
C10   C     C_R   0.562052 0.036085 0.820494 0.890485
C11   C     C_R   0.574243 0.836369 0.995975 0.924349
C12   C     C_R   0.606216 0.904192 0.354228 -0.212356
C13   C     C_R   0.431496 0.177774 0.975864 0.906461
C14   C     C_R   0.033875 0.563113 0.821140 0.867840
C15   C     C_R   0.963660 0.438027 0.179345 0.907278
C16   C     C_R   0.823141 0.021833 0.568568 0.936139
C17   C     C_R   0.178645 0.967733 0.436059 0.882900
C18   C     C_R   0.453454 0.043416 0.707834 -0.155968
C19   C     C_R   0.556379 0.907287 0.302331 -0.170115
C20   C     C_R   0.080608 0.705832 0.442152 -0.169669
C21   C     C_R   0.066930 0.256449 0.492166 -0.150279
C22   C     C_R   0.688789 0.467381 0.075319 -0.160121
C23   C     C_R   0.067327 0.662110 0.395507 -0.222022
C24   C     C_R   0.299472 0.555806 0.908308 -0.152867
C25   C     C_R   0.294910 0.918076 0.557341 -0.171493
C26   C     C_R   0.744032 0.931122 0.510097 -0.145123
C27   C     C_R   0.492871 0.274431 0.047298 -0.152745
C28   C     C_R   0.499205 0.748149 0.928613 -0.153388
C29   C     C_R   0.953876 0.547426 0.292257 -0.144743
C30   C     C_R   0.093291 0.443062 0.698781 -0.157925
C31   C     C_R   0.557282 0.965269 0.565510 0.027965
C32   C     C_R   0.469728 0.931003 0.475229 0.028646
C33   C     C_R   0.067685 0.530658 0.525647 0.028376
C34   C     C_R   0.087615 0.297417 0.536248 -0.212789
C35   C     C_R   0.031853 0.443492 0.436137 0.026702
C36   C     C_R   0.544407 0.558990 0.995908 0.022636
C37   C     C_R   0.447898 0.463416 0.981563 0.023529
C38   C     C_R   0.608618 0.931457 0.489389 0.047287
C39   C     C_R   0.423921 0.944513 0.561697 0.051529
C40   C     C_R   0.077009 0.437189 0.562150 0.047639
C41   C     C_R   0.024607 0.536572 0.399651 0.048168
C42   C     C_R   0.471312 0.607199 0.955881 0.049288
C43   C     C_R   0.518329 0.415542 0.024959 0.049163
C44   C     C_R   0.563119 0.921356 0.439441 0.046982
C45   C     C_R   0.638283 0.419921 0.074115 -0.201265
C46   C     C_R   0.464417 0.972107 0.601643 0.049190
C47   C     C_R   0.421779 0.559250 0.950166 0.048427
C48   C     C_R   0.567015 0.463629 0.032210 0.046714
C49   C     C_R   0.066100 0.391929 0.512627 0.049543
C50   C     C_R   0.052733 0.577008 0.439276 0.050142
C51   C     C_R   0.547517 0.028702 0.679450 0.065350
C52   C     C_R   0.461139 0.929655 0.332584 0.054793
C53   C     C_R   0.068021 0.671078 0.536850 0.059409
C54   C     C_R   0.016926 0.308122 0.427574 0.061082
C55   C     C_R   0.671748 0.560841 0.033823 0.056753
C56   C     C_R   0.346525 0.603724 0.913963 -0.208889
C57   C     C_R   0.325876 0.461278 0.937024 0.075081
C58   C     C_R   0.328763 0.933372 0.462361 0.057720
C59   C     C_R   0.692359 0.981245 0.573784 0.061242
C60   C     C_R   0.430437 0.319706 0.995365 0.058426
C61   C     C_R   0.569630 0.701680 0.970041 0.066415
C62   C     C_R   0.968967 0.453248 0.321092 0.073322
C63   C     C_R   0.071938 0.538279 0.667611 0.063492
C64   C     C_R   0.592132 0.049259 0.722403 -0.178896
C65   C     C_R   0.403906 0.955467 0.275926 -0.201333
C66   C     C_R   0.048139 0.724373 0.594522 -0.190188
C67   C     C_R   0.339138 0.929514 0.604947 -0.229913
C68   C     C_R   0.977769 0.270595 0.393722 -0.182782
C69   C     C_R   0.729345 0.610405 0.022614 -0.191310
C70   C     C_R   0.277705 0.410966 0.933744 -0.212741
C71   C     C_R   0.274790 0.956163 0.403876 -0.192067
C72   C     C_R   0.729730 0.021246 0.606627 -0.177924
C73   C     C_R   0.394356 0.274330 0.967173 -0.184242
C74   C     C_R   0.616769 0.747613 0.981302 -0.188806
C75   C     C_R   0.949086 0.408526 0.277742 -0.202447
C76   C     C_R   0.047664 0.595234 0.723587 -0.196183
C77   C     C_R   0.676279 0.061381 0.676577 -0.096925
C78   C     C_R   0.703037 0.910095 0.466258 -0.217451
C79   C     C_R   0.310823 0.982771 0.310929 -0.121826
C80   C     C_R   0.022866 0.688138 0.687242 -0.140743
C81   C     C_R   0.937028 0.324403 0.323668 -0.102132
C82   C     C_R   0.703076 0.704861 0.989399 -0.120442
C83   C     C_R   0.322007 0.323636 0.928701 -0.083392
C84   C     C_R   0.598911 0.992448 0.605661 0.073313
C85   C     C_R   0.420185 0.930811 0.423472 0.084616
C86   C     C_R   0.069918 0.579654 0.576549 0.083057
C87   C     C_R   0.005042 0.401791 0.395657 0.076066
C88   C     C_R   0.595457 0.606912 0.999521 0.081520
C89   C     C_R   0.536288 0.320831 0.060917 -0.207786
C90   C     C_R   0.402392 0.414947 0.970123 0.079399
C91   C     C_2   0.703356 0.121986 0.698949 0.954557
C92   C     C_2   0.252739 0.055574 0.252508 0.972870
C93   C     C_2   0.951013 0.747635 0.742764 1.006943
C94   C     C_2   0.876427 0.297673 0.300635 0.941034
C95   C     C_2   0.762294 0.764031 0.958993 1.008644
C96   C     C_2   0.295139 0.289264 0.876910 0.938132
H1    H     H_    0.340617 0.027303 0.696251 0.145393
H2    H     H_    0.400409 0.743806 0.886057 0.138447
H3    H     H_    0.968901 0.660506 0.303986 0.143096
H4    H     H_    0.106182 0.321890 0.678375 0.143063
H5    H     H_    0.409055 0.081539 0.755799 0.181215
H6    H     H_    0.594420 0.892849 0.238290 0.186594
H7    H     H_    0.097575 0.767873 0.402555 0.183008
H8    H     H_    0.092121 0.183740 0.509737 0.180597
H9    H     H_    0.740564 0.429552 0.110576 0.174784
H10   H     H_    0.244115 0.593664 0.877624 0.165670
H11   H     H_    0.233326 0.900320 0.596546 0.181754
H12   H     H_    0.677959 0.892751 0.323901 0.142892
H13   H     H_    0.816713 0.906319 0.492986 0.182863
H14   H     H_    0.507793 0.202835 0.080796 0.178055
H15   H     H_    0.482605 0.820605 0.898101 0.164573
H16   H     H_    0.916218 0.591716 0.243244 0.176288
H17   H     H_    0.108175 0.404831 0.763038 0.183033
H18   H     H_    0.691765 0.250131 0.684675 0.346857
H19   H     H_    0.173167 0.088938 0.173086 0.349790
H20   H     H_    0.922118 0.833196 0.814243 0.357731
H21   H     H_    0.748346 0.311799 0.311218 0.338437
H22   H     H_    0.826014 0.819160 0.993610 0.319087
H23   H     H_    0.070568 0.694825 0.324534 0.147317
H24   H     H_    0.302346 0.288406 0.754141 0.330919
H25   H     H_    0.122947 0.253370 0.587084 0.141244
H26   H     H_    0.657999 0.348292 0.106105 0.144040
H27   H     H_    0.320921 0.676059 0.890019 0.139097
H28   H     H_    0.307099 0.924724 0.676086 0.141237
H29   H     H_    0.746933 0.874891 0.415880 0.142058
H30   H     H_    0.583839 0.279762 0.100382 0.142318
O1    O     O_R   0.982940 0.138950 0.510160 -0.642410
O2    O     O_R   0.982940 0.510160 0.138950 -0.633478
O3    O     O_R   0.861050 0.017060 0.489840 -0.643268
O4    O     O_R   0.138950 0.982940 0.510160 -0.662586
O5    O     O_R   0.867700 0.025880 0.612340 -0.579166
O6    O     O_R   0.132300 0.974120 0.387660 -0.596209
O7    O     O_R   0.025880 0.612340 0.867700 -0.598921
O8    O     O_R   0.974120 0.387660 0.132300 -0.580661
O9    O     O_R   0.612340 0.867700 0.025880 -0.601866
O10   O     O_R   0.387660 0.132300 0.974120 -0.590299
O11   O     O_R   0.387660 0.974120 0.132300 -0.581665
O12   O     O_R   0.017060 0.861050 0.489840 -0.658955
O13   O     O_R   0.612340 0.025880 0.867700 -0.578248
O14   O     O_R   0.132300 0.387660 0.974120 -0.583799
O15   O     O_R   0.867700 0.612340 0.025880 -0.595780
O16   O     O_R   0.974120 0.132300 0.387660 -0.579573
O17   O     O_R   0.025880 0.867700 0.612340 -0.602821
O18   O     O_2   0.752741 0.090572 0.748585 -0.582464
O19   O     O_R   0.669656 0.215459 0.664550 -0.789576
O20   O     O_2   0.242719 0.134706 0.241572 -0.642786
O21   O     O_R   0.210352 0.033488 0.210626 -0.752066
O22   O     O_2   0.873472 0.770917 0.739224 -0.604279
O23   O     O_R   0.138950 0.510160 0.982940 -0.628875
O24   O     O_R   0.974098 0.784367 0.789336 -0.767288
O25   O     O_2   0.907806 0.247566 0.252314 -0.592872
O26   O     O_R   0.782994 0.333307 0.332087 -0.800888
O27   O     O_2   0.769384 0.817702 0.883562 -0.614999
O28   O     O_R   0.792263 0.772392 0.021632 -0.770822
O29   O     O_2   0.245307 0.241050 0.916283 -0.601146
O30   O     O_R   0.325440 0.314856 0.782388 -0.807782
O31   O     O_R   0.861050 0.489840 0.017060 -0.632866
O32   O     O_R   0.510160 0.982940 0.138950 -0.652225
O33   O     O_R   0.489840 0.017060 0.861050 -0.670617
O34   O     O_R   0.489840 0.861050 0.017060 -0.635911
O35   O     O_R   0.510160 0.138950 0.982940 -0.642376
O36   O     O_R   0.017060 0.489840 0.861050 -0.641598
Zn1   Zn    Zn3+2 0.004880 0.004880 0.583590 1.004263
Zn2   Zn    Zn3+2 0.995120 0.995120 0.416410 1.012066
Zn3   Zn    Zn3+2 0.004880 0.583590 0.004880 1.003042
Zn4   Zn    Zn3+2 0.995120 0.416410 0.995120 1.033319
Zn5   Zn    Zn3+2 0.583590 0.004880 0.004880 1.007727
Zn6   Zn    Zn3+2 0.416410 0.995120 0.995120 1.009953

loop_
_geom_bond_atom_site_label_1
_geom_bond_atom_site_label_2
_ccdc_geom_bond_type
O4    Zn1   S    
C15   C75   S    
C37   C43   A    
C65   C79   A    
C64   C77   A    
C29   H16   S    
C36   C42   A    
C16   C72   S    
C67   H28   S    
C7    C70   S    
H20   O24   S    
C15   O8    A    
C96   O30   S    
C36   C88   A    
C1    C18   A    
C43   C89   A    
C37   C90   A    
C68   C81   A    
C52   C85   A    
C11   O9    A    
C27   C60   A    
C23   H23   S    
C54   C87   A    
C19   H6    S    
C58   C71   A    
C96   O29   D    
C54   C68   A    
C63   C76   A    
C83   C96   S    
C94   O26   S    
C40   C49   A    
H19   O21   S    
C60   C73   A    
H24   O30   S    
O33   Zn6   S    
O35   Zn5   S    
C93   O22   D    
C32   C39   A    
C55   C88   A    
C3    C29   A    
C16   O5    A    
C69   C82   A    
O36   Zn4   S    
C21   H8    S    
C9    O11   A    
C19   C52   A    
C3    C41   A    
C4    C40   A    
C27   H14   S    
C24   C57   A    
C31   C46   A    
C25   C67   A    
C35   C49   A    
O8    Zn4   S    
H22   O28   S    
C53   C86   A    
C57   C70   A    
C37   C47   A    
C43   C48   A    
C59   C72   A    
C28   C61   A    
C7    O23   A    
C30   C63   A    
C17   O6    A    
C93   O24   S    
C35   C87   A    
C74   C82   A    
C5    C68   S    
C35   C41   A    
C8    O31   A    
O17   Zn1   S    
O32   Zn5   S    
C36   C48   A    
C89   H30   S    
C28   H15   S    
O14   Zn4   S    
C33   C40   A    
C57   C90   A    
C92   O20   D    
C56   H27   S    
O23   Zn3   S    
C59   C84   A    
C1    H1    S    
C20   H7    S    
C75   C81   A    
C23   C50   A    
C21   C34   A    
O10   Zn6   S    
C33   C50   A    
C6    O17   A    
C71   C79   A    
O3    Zn2   S    
C95   O27   D    
C18   H5    S    
C14   C76   S    
C14   O36   A    
C33   C86   A    
O6    Zn2   S    
C38   C44   A    
C72   C77   A    
C70   C83   A    
C61   C88   A    
O7    Zn3   S    
C20   C23   A    
O5    Zn1   S    
C5    O1    A    
C8    C69   S    
C26   C78   A    
O13   Zn5   S    
C16   O3    A    
C26   H13   S    
C2    H2    S    
C79   C92   S    
C8    O15   A    
C6    O12   A    
C39   C46   A    
C13   C73   S    
C17   C71   S    
C34   H25   S    
C15   O2    A    
C4    H4    S    
C63   C86   A    
O2    Zn3   S    
C45   H26   S    
C13   O10   A    
C62   C75   A    
C24   H10   S    
C10   O13   A    
C58   C85   A    
C41   C50   A    
C91   O19   S    
C66   C80   A    
C25   H11   S    
C12   H12   S    
C91   O18   D    
C26   C59   A    
C45   C48   A    
C29   C62   A    
C77   C91   S    
C34   C49   A    
O1    Zn1   S    
C82   C95   S    
C17   O4    A    
C39   C67   A    
C10   C64   S    
C51   C64   A    
C76   C80   A    
H18   O19   S    
C20   C53   A    
C11   C74   S    
O31   Zn4   S    
O12   Zn2   S    
C13   O35   A    
C22   C55   A    
C14   O7    A    
C60   C90   A    
C18   C51   A    
C24   C56   A    
C22   H9    S    
C38   C78   A    
C62   C87   A    
O15   Zn3   S    
C31   C38   A    
C95   O28   S    
C55   C69   A    
C94   O25   D    
C12   C44   A    
C53   C66   A    
O16   Zn2   S    
C81   C94   S    
C5    O16   A    
C21   C54   A    
C9    O32   A    
C2    C42   A    
C32   C85   A    
C51   C84   A    
C12   C19   A    
C27   C89   A    
H21   O26   S    
C42   C47   A    
O34   Zn6   S    
C1    C46   A    
C9    C65   S    
C11   O34   A    
C31   C84   A    
C3    H3    S    
C7    O14   A    
C6    C66   S    
C22   C45   A    
C32   C44   A    
C25   C58   A    
O9    Zn5   S    
C2    C28   A    
C80   C93   S    
C78   H29   S    
C10   O33   A    
C73   C83   A    
O11   Zn6   S    
C4    C30   A    
C52   C65   A    
C61   C74   A    
C47   C56   A    
C92   O21   S    
C30   H17   S    
