data_mof_unit_31580.cif
_audit_creation_date              2012-12-10T17:32:18-0500
_audit_creation_method            fapswitch 2.2
_symmetry_space_group_name_H-M    P1
_symmetry_Int_Tables_number       1
_space_group_crystal_system       triclinic
_cell_length_a                    15.529258
_cell_length_b                    15.554749
_cell_length_c                    15.532501
_cell_angle_alpha                 92.605348
_cell_angle_beta                  71.322662
_cell_angle_gamma                 111.36324
_cell_volume                      3299.3281637

loop_
_atom_site_label
_atom_site_type_symbol
_atom_type_description
_atom_site_fract_x
_atom_site_fract_y
_atom_site_fract_z
_atom_type_partial_charge
C1    C     C_R   0.463523 0.258792 0.462970 0.827467
C2    C     C_R   0.507049 0.531870 0.120232 -0.273422
C3    C     C_R   0.677593 0.603993 0.108478 -0.269008
C4    C     C_R   0.534514 0.741012 0.536860 0.803590
C5    C     C_R   0.422713 0.434650 0.841328 -0.079594
C6    C     C_R   0.453218 0.046392 0.341653 0.225227
C7    C     C_R   0.455285 0.163766 0.449468 -0.080580
C8    C     C_R   0.520205 0.850017 0.659352 0.163660
C9    C     C_R   0.494247 0.925358 0.693329 0.176573
C10   C     C_R   0.480904 0.982231 0.635942 -0.249871
C11   C     C_R   0.500395 0.970861 0.541868 0.067302
C12   C     C_R   0.292121 0.396651 0.986268 -0.163365
C13   C     C_R   0.526158 0.894544 0.507176 0.031331
C14   C     C_R   0.488125 0.029420 0.482341 0.028639
C15   C     C_R   0.483683 0.000041 0.395153 0.085409
C16   C     C_R   0.756471 0.550594 0.463068 0.782516
C17   C     C_R   0.515759 0.928585 0.360603 -0.212191
C18   C     C_R   0.542710 0.880933 0.413822 -0.181460
C19   C     C_R   0.484018 0.117669 0.504430 0.126610
C20   C     C_R   0.437509 0.127095 0.370538 -0.315800
C21   C     C_R   0.532443 0.832074 0.566580 -0.156942
C22   C     C_R   0.018870 0.605221 0.331790 -0.203148
C23   C     C_R   0.359480 0.438918 0.031102 -0.188523
C24   C     C_R   0.859542 0.568436 0.444780 -0.006378
C25   C     C_R   0.078899 0.402802 0.650223 -0.310130
C26   C     C_R   0.992379 0.419240 0.688534 0.217493
C27   C     C_R   0.965669 0.471425 0.636907 0.176071
C28   C     C_R   0.243300 0.448985 0.535333 0.796001
C29   C     C_R   0.015934 0.491204 0.541044 -0.008828
C30   C     C_R   0.104650 0.474771 0.503810 0.047613
C31   C     C_R   0.983561 0.529815 0.481132 0.097249
C32   C     C_R   0.046511 0.562648 0.390331 0.165380
C33   C     C_R   0.133219 0.546624 0.356266 -0.247921
C34   C     C_R   0.461174 0.477606 0.982529 0.102984
C35   C     C_R   0.158851 0.498721 0.410462 -0.164834
C36   C     C_R   0.887840 0.529808 0.505328 -0.229356
C37   C     C_R   0.925862 0.608328 0.359104 -0.195839
C38   C     C_R   0.139031 0.436615 0.560897 -0.103551
C39   C     C_R   0.552949 0.551079 0.258763 0.795915
C40   C     C_R   0.450176 0.449290 0.741717 0.773471
C41   C     C_R   0.706033 0.600547 0.014125 0.225861
C42   C     C_R   0.578908 0.568618 0.161092 -0.018359
C43   C     C_R   0.323091 0.395434 0.892130 -0.193848
C44   C     C_3   0.349912 0.936687 0.267735 -0.799528
C45   C     C_R   0.492682 0.470431 0.886799 0.085788
C46   C     C_3   0.629754 0.208017 0.541395 -0.788518
C47   C     C_3   0.443382 0.712798 0.765405 -0.692135
C48   C     C_3   0.377700 0.923985 0.841060 -0.798590
C49   C     C_3   0.945921 0.611904 0.695469 -0.768918
C50   C     C_3   0.851640 0.308228 0.798010 -0.816485
C51   C     C_3   0.840850 0.727679 0.916872 -0.821643
C52   C     C_R   0.532658 0.522458 0.025637 0.035674
C53   C     C_R   0.634034 0.556321 0.972697 0.130983
C54   C     C_R   0.662318 0.540863 0.880396 -0.237792
C55   C     C_R   0.593262 0.497648 0.838590 -0.220205
H1    H     H_    0.522941 0.910760 0.291090 0.178912
H2    H     H_    0.286783 0.958541 0.299074 0.242124
H3    H     H_    0.342964 0.877924 0.310891 0.256349
H4    H     H_    0.348348 0.912483 0.199693 0.238427
H5    H     H_    0.490656 0.209496 0.607176 0.230644
H6    H     H_    0.654088 0.239133 0.599370 0.227570
H7    H     H_    0.656535 0.263291 0.485808 0.250796
H8    H     H_    0.662201 0.154874 0.516866 0.255717
H9    H     H_    0.567525 0.825591 0.763123 0.234058
H10   H     H_    0.462539 0.664922 0.800043 0.239513
H11   H     H_    0.407962 0.674004 0.716298 0.218120
H12   H     H_    0.573713 0.831173 0.381140 0.160402
H13   H     H_    0.390863 0.736537 0.817646 0.224015
H14   H     H_    0.450255 0.032115 0.668051 0.186320
H15   H     H_    0.524579 0.006814 0.795593 0.227446
H16   H     H_    0.371027 0.925437 0.914387 0.241644
H17   H     H_    0.329136 0.854766 0.829928 0.247335
H18   H     H_    0.353227 0.977635 0.823443 0.232045
H19   H     H_    0.903472 0.636711 0.311296 0.133515
H20   H     H_    0.179094 0.567000 0.285722 0.143968
H21   H     H_    0.067388 0.631769 0.263105 0.136623
H22   H     H_    0.738546 0.560550 0.839924 0.183671
H23   H     H_    0.222113 0.480701 0.377868 0.156394
H24   H     H_    0.831135 0.491869 0.566550 0.156609
H25   H     H_    0.103417 0.370756 0.693376 0.170399
H26   H     H_    0.845422 0.479076 0.742483 0.247836
H27   H     H_    0.889540 0.642761 0.723567 0.240959
H28   H     H_    0.996083 0.650739 0.629078 0.252990
H29   H     H_    0.987702 0.619390 0.743400 0.244489
H30   H     H_    0.979243 0.389990 0.821999 0.225060
H31   H     H_    0.809666 0.295084 0.872042 0.246142
H32   H     H_    0.873195 0.248182 0.774563 0.244222
H33   H     H_    0.803447 0.315139 0.761292 0.238930
H34   H     H_    0.432504 0.505340 0.165270 0.133289
H35   H     H_    0.852490 0.632689 0.997075 0.227585
H36   H     H_    0.834309 0.779202 0.968110 0.244433
H37   H     H_    0.797543 0.727833 0.872201 0.253215
H38   H     H_    0.918750 0.748189 0.873787 0.242597
H39   H     H_    0.329075 0.439316 0.103779 0.125959
H40   H     H_    0.620221 0.484050 0.768101 0.168334
H41   H     H_    0.268444 0.367241 0.858646 0.157516
H42   H     H_    0.214807 0.367288 0.024655 0.143057
H43   H     H_    0.417172 0.164665 0.328197 0.144646
H44   H     H_    0.732849 0.631851 0.141412 0.133137
H45   H     H_    0.453424 0.065216 0.210385 0.228402
N1    N     N_2   0.440768 0.013691 0.257587 -0.315627
N2    N     N_2   0.524071 0.166434 0.571370 -0.329408
N3    N     N_2   0.531319 0.790860 0.719211 -0.269509
N4    N     N_2   0.478572 0.942278 0.786851 -0.309474
N5    N     N_2   0.899241 0.514979 0.683730 -0.328721
N6    N     N_2   0.937740 0.391881 0.782366 -0.309220
N7    N     N_2   0.807456 0.636586 0.962115 -0.317525
O1    O     O_3   0.500000 0.500000 0.500000 -0.479916
O2    O     O_R   0.588830 0.499590 0.285390 -0.642740
O3    O     O_R   0.395900 0.395880 0.699370 -0.645815
O4    O     O_R   0.493280 0.582590 0.315890 -0.644907
O5    O     O_R   0.521980 0.521940 0.699340 -0.637952
O6    O     O_R   0.708210 0.582550 0.530770 -0.636819
O7    O     O_R   0.270260 0.395900 0.573760 -0.645042
O8    O     O_R   0.537060 0.322180 0.411040 -0.634470
O9    O     O_R   0.484470 0.699370 0.484430 -0.643344
O10   O     O_R   0.404710 0.279110 0.530840 -0.651640
O11   O     O_R   0.573760 0.699350 0.573690 -0.608581
O12   O     O_R   0.714470 0.499570 0.411000 -0.641740
O13   O     O_R   0.307050 0.521980 0.484470 -0.635512
Zn1   Zn    Zn3+2 0.574690 0.574670 0.574650 0.968536
Zn2   Zn    Zn3+2 0.583640 0.456100 0.403530 0.961742
Zn3   Zn    Zn3+2 0.447120 0.574690 0.447120 0.955752
Zn4   Zn    Zn3+2 0.394550 0.394550 0.574700 0.954471

loop_
_geom_bond_atom_site_label_1
_geom_bond_atom_site_label_2
_ccdc_geom_bond_type
H9    N3    S    
C37   H19   S    
C3    C42   A    
O9    Zn3   S    
C27   C29   A    
C25   H25   S    
C22   H21   S    
O1    Zn1   S    
C16   O6    A    
C26   N6    S    
C40   O5    A    
C53   C54   A    
C46   N2    S    
C12   C23   A    
C26   C27   A    
C24   C36   A    
C22   C32   A    
C13   C18   A    
C46   H7    S    
C49   H29   S    
O10   Zn4   S    
C48   H17   S    
H35   N7    S    
C12   C43   A    
C31   C36   A    
C51   H37   S    
C19   N2    S    
H15   N4    S    
O2    Zn2   S    
C27   N5    S    
C44   H4    S    
C48   N4    S    
C30   C38   A    
C6    N1    S    
O3    Zn4   S    
C6    C15   A    
C33   H20   S    
C44   H3    S    
C8    C9    A    
C9    C10   A    
C47   H11   S    
O13   Zn3   S    
C50   H33   S    
C54   H22   S    
C51   H36   S    
C39   O4    A    
C5    C43   A    
C16   C24   S    
O8    Zn2   S    
C4    O11   A    
O1    Zn4   S    
H5    N2    S    
C14   C19   A    
C43   H41   S    
C39   C42   S    
H26   N5    S    
C47   N3    S    
C46   H6    S    
O4    Zn3   S    
C1    O8    A    
C55   H40   S    
C28   O13   A    
C16   O12   A    
C11   C14   A    
C49   N5    S    
C25   C26   A    
C22   C37   A    
C5    C45   A    
O11   Zn1   S    
C49   H27   S    
C2    H34   S    
C29   C30   A    
C25   C38   A    
C31   C32   A    
C28   C38   S    
C44   H2    S    
C23   C34   A    
C17   C18   A    
C13   C21   A    
C34   C45   A    
C1    O10   A    
C17   H1    S    
C41   C53   A    
C12   H42   S    
C2    C52   A    
C50   H32   S    
C51   H38   S    
C30   C35   A    
C7    C19   A    
O1    Zn3   S    
H30   N6    S    
C47   H13   S    
C52   C53   A    
O12   Zn2   S    
C24   C37   A    
C15   C17   A    
C54   C55   A    
C3    C41   A    
C41   N7    S    
C1    C7    S    
C48   H18   S    
C4    O9    A    
O1    Zn2   S    
C36   H24   S    
C8    C21   A    
C40   O3    A    
C44   N1    S    
O6    Zn1   S    
C6    C20   A    
C35   H23   S    
C34   C52   A    
C23   H39   S    
C46   H8    S    
C32   C33   A    
C49   H28   S    
C18   H12   S    
O7    Zn4   S    
O5    Zn1   S    
C29   C31   A    
C4    C21   S    
C11   C13   A    
C2    C42   A    
C9    N4    S    
C28   O7    A    
H45   N1    S    
C33   C35   A    
C8    N3    S    
C10   C11   A    
C50   H31   S    
C10   H14   S    
C3    H44   S    
C39   O2    A    
C20   H43   S    
C45   C55   A    
C51   N7    S    
C7    C20   A    
C5    C40   S    
C50   N6    S    
C14   C15   A    
C48   H16   S    
C47   H10   S    
