data_mof_unit_67242.cif
_audit_creation_date              2013-03-05T16:01:26-0500
_audit_creation_method            fapswitch 2.2
_symmetry_space_group_name_H-M    P1
_symmetry_Int_Tables_number       1
_space_group_crystal_system       triclinic
_cell_length_a                    20.033353
_cell_length_b                    20.349105
_cell_length_c                    8.529582
_cell_angle_alpha                 90.026047
_cell_angle_beta                  91.467751
_cell_angle_gamma                 89.735781
_cell_volume                      3475.99823577

loop_
_atom_site_label
_atom_site_type_symbol
_atom_site_description
_atom_site_fract_x
_atom_site_fract_y
_atom_site_fract_z
_atom_type_partial_charge
P1    P     P_3+3 0.136530 0.426510 0.931350 0.495704
P2    P     P_3+3 0.136530 0.573490 0.431350 0.511188
P3    P     P_3+3 0.636530 0.926510 0.931350 0.497556
P4    P     P_3+3 0.636530 0.073490 0.431350 0.510313
O1    O     O_2   0.130070 0.404060 0.104920 -0.313247
O2    O     O_2   0.130070 0.595940 0.604920 -0.388509
O3    O     O_2   0.630070 0.904060 0.104920 -0.311867
O4    O     O_2   0.630070 0.095940 0.604920 -0.389805
O5    O     O_3   0.075780 0.466370 0.861070 -0.345665
O6    O     O_3   0.075780 0.533630 0.361070 -0.313960
O7    O     O_3   0.575780 0.966370 0.861070 -0.346424
O8    O     O_3   0.575780 0.033630 0.361070 -0.312937
O9    O     O_3   0.022320 0.344950 0.359800 -0.400099
O10   O     O_3   0.022320 0.655050 0.859800 -0.406056
O11   O     O_3   0.522320 0.844950 0.359800 -0.400263
O12   O     O_3   0.522320 0.155050 0.859800 -0.408759
O13   O     O_2   0.131373 0.290035 0.246937 -0.275633
O14   O     O_2   0.126890 0.714294 0.742367 -0.366329
O15   O     O_2   0.630679 0.789549 0.244874 -0.275492
O16   O     O_2   0.628655 0.213151 0.747287 -0.388867
O17   O     O_3   0.208265 0.475942 0.923277 -0.652948
O18   O     O_3   0.205671 0.519807 0.424191 -0.570628
O19   O     O_3   0.708101 0.976189 0.923405 -0.652039
O20   O     O_3   0.705868 0.020067 0.424049 -0.571359
O21   O     O_3   0.041832 0.206940 0.347749 -0.530138
O22   O     O_3   0.034714 0.793503 0.850593 -0.529236
O23   O     O_3   0.541088 0.707032 0.347834 -0.537543
O24   O     O_3   0.535377 0.293300 0.847310 -0.505615
H1    H     H_    0.956814 0.253140 0.256845 0.183065
H2    H     H_    0.953474 0.742513 0.757123 0.170178
H3    H     H_    0.456225 0.753562 0.257420 0.184352
H4    H     H_    0.451079 0.243638 0.767176 0.154743
C1    C     C_3   0.934553 0.154402 0.319684 -0.922162
C2    C     C_3   0.924419 0.840518 0.809278 -0.939645
C3    C     C_3   0.433212 0.655231 0.322388 -0.947958
C4    C     C_3   0.425380 0.342104 0.823898 -0.975416
H5    H     H_    0.881450 0.165676 0.289421 0.252077
H6    H     H_    0.946450 0.867800 0.710646 0.278296
H7    H     H_    0.380603 0.666957 0.288208 0.258250
H8    H     H_    0.371821 0.329001 0.809388 0.226596
H9    H     H_    0.956722 0.126886 0.221207 0.274639
H10   H     H_    0.921221 0.873361 0.912145 0.277862
H11   H     H_    0.455984 0.626227 0.227097 0.270937
H12   H     H_    0.441679 0.366015 0.714427 0.282049
P5    P     P_3+3 0.863410 0.426100 0.379280 0.487299
P6    P     P_3+3 0.863410 0.573900 0.879280 0.486071
P7    P     P_3+3 0.363410 0.926100 0.379280 0.486009
P8    P     P_3+3 0.363410 0.073900 0.879280 0.485194
P9    P     P_3+3 0.910905 0.289098 0.924842 0.497835
P10   P     P_3+3 0.910704 0.710777 0.425545 0.445020
P11   P     P_3+3 0.412285 0.787620 0.924484 0.502239
P12   P     P_3+3 0.410864 0.210998 0.426978 0.442670
O25   O     O_2   0.869860 0.403670 0.205810 -0.346152
O26   O     O_2   0.869860 0.596330 0.705810 -0.357090
O27   O     O_2   0.369860 0.903670 0.205810 -0.344390
O28   O     O_2   0.369860 0.096330 0.705810 -0.362459
O29   O     O_3   0.977590 0.344880 0.951200 -0.365614
O30   O     O_3   0.977590 0.655120 0.451200 -0.404818
O31   O     O_3   0.477590 0.844880 0.951200 -0.361351
O32   O     O_3   0.477590 0.155120 0.451200 -0.412745
O33   O     O_2   0.860494 0.302219 0.054559 -0.356836
O34   O     O_2   0.861179 0.699679 0.557911 -0.371353
O35   O     O_2   0.361889 0.800632 0.054415 -0.352538
O36   O     O_2   0.364219 0.204318 0.566965 -0.377165
O37   O     O_3   0.797592 0.482087 0.352587 -0.578467
O38   O     O_3   0.797699 0.518322 0.857036 -0.573578
O39   O     O_3   0.297516 0.981935 0.352331 -0.578996
O40   O     O_3   0.298426 0.017451 0.856821 -0.572972
O41   O     O_3   0.939252 0.210162 0.973797 -0.531398
O42   O     O_3   0.940527 0.789452 0.467621 -0.580679
O43   O     O_3   0.441859 0.708933 0.974560 -0.530053
O44   O     O_3   0.444044 0.289685 0.452404 -0.597468
C5    C     C_3   0.978574 0.184032 0.853715 0.214788
C6    C     C_3   0.986383 0.809211 0.354602 0.215011
C7    C     C_3   0.479572 0.681645 0.852689 0.234622
C8    C     C_3   0.496509 0.298922 0.347661 0.270927
H13   H     H_    0.964831 0.204123 0.736061 -0.005742
H14   H     H_    0.982391 0.780562 0.243421 -0.006706
H15   H     H_    0.463072 0.699825 0.735080 -0.006008
H16   H     H_    0.497572 0.261961 0.251121 -0.025760
C9    C     C_3   0.967069 0.109102 0.849042 0.039664
C10   C     C_3   0.970939 0.881785 0.313455 0.088527
C11   C     C_3   0.470417 0.606206 0.855060 0.021800
C12   C     C_3   0.487548 0.366056 0.268781 0.113615
H17   H     H_    0.999482 0.083186 0.936838 0.076007
H18   H     H_    0.994516 0.916069 0.398365 0.114334
H19   H     H_    0.507197 0.581628 0.936022 0.064537
H20   H     H_    0.493591 0.405301 0.358983 0.100512
H21   H     H_    0.915200 0.099448 0.885987 0.187091
H22   H     H_    0.916425 0.889976 0.325970 0.141185
H23   H     H_    0.420915 0.595456 0.904946 0.184387
H24   H     H_    0.435964 0.369313 0.217667 0.077082
C13   C     C_3   0.762620 0.512943 0.997206 0.465223
C14   C     C_3   0.765205 0.494472 0.493881 0.368315
C15   C     C_3   0.262212 0.012461 0.995473 0.465834
C16   C     C_3   0.266434 0.995273 0.494759 0.382705
H25   H     H_    0.794813 0.523674 0.100986 0.114758
H26   H     H_    0.799892 0.489246 0.595588 0.131067
H27   H     H_    0.291438 0.028379 0.100444 0.110775
H28   H     H_    0.302399 0.991875 0.594356 0.132719
C17   C     C_3   0.702534 0.559810 0.996413 -1.111422
C18   C     C_3   0.705994 0.448136 0.512314 -0.971158
C19   C     C_3   0.198312 0.053503 0.982721 -1.134809
C20   C     C_3   0.208482 0.948011 0.520042 -0.986042
H29   H     H_    0.677998 0.561293 0.878393 0.249462
H30   H     H_    0.675013 0.446912 0.402504 0.265437
H31   H     H_    0.170620 0.041215 0.872653 0.250130
H32   H     H_    0.176190 0.945344 0.412592 0.262138
H33   H     H_    0.665923 0.544930 0.085243 0.239905
H34   H     H_    0.674617 0.464167 0.611067 0.243546
H35   H     H_    0.166267 0.044171 0.084719 0.255268
H36   H     H_    0.178250 0.964322 0.620437 0.241445
H37   H     H_    0.717980 0.609942 0.029533 0.288388
H38   H     H_    0.723144 0.397913 0.540992 0.285932
H39   H     H_    0.209504 0.106417 0.983549 0.285397
H40   H     H_    0.226754 0.898284 0.549832 0.283128
Ba1   Ba    Ba6+2 0.999980 0.452130 0.155200 1.638585
Ba2   Ba    Ba6+2 0.999980 0.547870 0.655200 1.612609
Ba3   Ba    Ba6+2 0.499980 0.952130 0.155200 1.639602
Ba4   Ba    Ba6+2 0.499980 0.047870 0.655200 1.611125
C21   C     C_3   0.220421 0.515818 0.054650 0.479022
C22   C     C_3   0.222559 0.488520 0.566691 0.506918
C23   C     C_3   0.720081 0.016117 0.054777 0.460272
C24   C     C_3   0.722683 0.988550 0.566307 0.515246
H41   H     H_    0.179917 0.513748 0.139832 0.136505
H42   H     H_    0.181589 0.490295 0.650395 0.119561
H43   H     H_    0.679721 0.013653 0.140247 0.139277
H44   H     H_    0.681629 0.990058 0.649837 0.119089
C25   C     C_3   0.286558 0.493454 0.132853 -0.852629
C26   C     C_3   0.285773 0.520002 0.637882 -1.034784
C27   C     C_3   0.786510 0.994271 0.132465 -0.811000
C28   C     C_3   0.785714 0.020103 0.638216 -1.045280
H45   H     H_    0.282266 0.442518 0.176486 0.249027
H46   H     H_    0.273780 0.567780 0.691835 0.250503
H47   H     H_    0.782715 0.943300 0.176173 0.245012
H48   H     H_    0.773498 0.067783 0.692431 0.251674
H49   H     H_    0.300635 0.525878 0.232934 0.252053
H50   H     H_    0.308450 0.488653 0.731856 0.249055
H51   H     H_    0.800484 0.026798 0.232429 0.248333
H52   H     H_    0.808343 0.988677 0.732100 0.249650
H53   H     H_    0.327355 0.494555 0.046959 0.228722
H54   H     H_    0.323505 0.527567 0.546397 0.272548
H55   H     H_    0.827159 0.995704 0.046229 0.238545
H56   H     H_    0.823552 0.027893 0.547080 0.272625
O45   O     O_3   0.924190 0.533610 0.949240 -0.343309
O46   O     O_3   0.924190 0.466390 0.449240 -0.350320
O47   O     O_3   0.424190 0.033610 0.949240 -0.341143
O48   O     O_3   0.424190 0.966390 0.449240 -0.352589
P13   P     P_3+3 0.079270 0.719764 0.881974 0.447543
P14   P     P_3+3 0.082181 0.282209 0.382368 0.526668
P15   P     P_3+3 0.579309 0.219649 0.883130 0.458611
P16   P     P_3+3 0.582020 0.782074 0.381535 0.523497
C29   C     C_3   0.972332 0.218030 0.350435 0.509721
C30   C     C_3   0.965793 0.779380 0.848935 0.523145
C31   C     C_3   0.471672 0.718621 0.351390 0.513046
C32   C     C_3   0.466492 0.280293 0.856929 0.546346
H57   H     H_    0.957525 0.237851 0.466072 -0.031611
H58   H     H_    0.950739 0.760543 0.965073 0.001238
H59   H     H_    0.457340 0.738939 0.466910 -0.032545
H60   H     H_    0.454351 0.261868 0.975566 0.001024
H61   H     H_    0.935715 0.123379 0.425981 0.266095
H62   H     H_    0.872734 0.825921 0.774688 0.228142
H63   H     H_    0.432581 0.625511 0.430782 0.262768
H64   H     H_    0.430308 0.377085 0.923013 0.250029
C33   C     C_R   0.240897 0.304867 0.000720 -0.135207
C34   C     C_R   0.240930 0.695446 0.498559 -0.142037
C35   C     C_R   0.742016 0.805672 0.998132 -0.130346
C36   C     C_R   0.740647 0.195805 0.498571 -0.138340
C37   C     C_R   0.150375 0.347710 0.819724 0.162442
C38   C     C_R   0.151194 0.652008 0.317172 0.133597
C39   C     C_R   0.650747 0.847933 0.818678 0.166228
C40   C     C_R   0.650670 0.152335 0.317970 0.130885
C41   C     C_R   0.113030 0.338204 0.679344 -0.491613
C42   C     C_R   0.112641 0.662635 0.178553 -0.517565
C43   C     C_R   0.613382 0.838415 0.678279 -0.486944
C44   C     C_R   0.611735 0.163114 0.180101 -0.535281
C45   C     C_R   0.127707 0.287211 0.575029 0.200403
C46   C     C_R   0.126176 0.714194 0.074538 0.167203
C47   C     C_R   0.627940 0.787351 0.573873 0.201122
C48   C     C_R   0.624756 0.215070 0.077014 0.194184
C49   C     C_R   0.177769 0.241868 0.615267 -0.279913
C50   C     C_R   0.176076 0.759394 0.115120 -0.254211
C51   C     C_R   0.677892 0.741912 0.614262 -0.278821
C52   C     C_R   0.673971 0.260848 0.118030 -0.164842
C53   C     C_R   0.213604 0.246927 0.758990 0.084211
C54   C     C_R   0.212810 0.753653 0.257805 0.124222
C55   C     C_R   0.713854 0.747056 0.757812 0.082480
C56   C     C_R   0.711471 0.254673 0.259366 0.103685
C57   C     C_R   0.201674 0.300784 0.860980 0.025996
C58   C     C_R   0.201946 0.699229 0.358529 0.036207
C59   C     C_R   0.702279 0.801180 0.859316 0.029184
C60   C     C_R   0.701301 0.199754 0.359203 0.020869
C61   C     C_R   0.799036 0.701347 0.941141 -0.032700
C62   C     C_R   0.797652 0.299602 0.441266 -0.035405
C63   C     C_R   0.297988 0.200624 0.943604 -0.022965
C64   C     C_R   0.298380 0.798962 0.441028 -0.032594
C65   C     C_R   0.788547 0.756049 0.041221 0.080965
C66   C     C_R   0.787218 0.245075 0.541504 0.088387
C67   C     C_R   0.286980 0.254930 0.044509 0.083898
C68   C     C_R   0.287744 0.744532 0.541422 0.088223
C69   C     C_R   0.844732 0.650422 0.990777 0.151303
C70   C     C_R   0.844196 0.349703 0.490011 0.152556
C71   C     C_R   0.343660 0.149681 0.993065 0.146879
C72   C     C_R   0.344778 0.849225 0.489894 0.150899
C73   C     C_R   0.874194 0.653727 0.140108 -0.414117
C74   C     C_R   0.874546 0.345686 0.638355 -0.421144
C75   C     C_R   0.372730 0.152631 0.143132 -0.411678
C76   C     C_R   0.375313 0.844946 0.638229 -0.418630
C77   C     C_R   0.865298 0.707916 0.235893 0.292759
C78   C     C_R   0.865206 0.291993 0.734923 0.269334
C79   C     C_R   0.363349 0.206520 0.239901 0.304438
C80   C     C_R   0.366213 0.790992 0.734574 0.267313
C81   C     C_R   0.823097 0.759366 0.186819 -0.262202
C82   C     C_R   0.822044 0.241423 0.686947 -0.263188
C83   C     C_R   0.321053 0.257910 0.190808 -0.280831
C84   C     C_R   0.322705 0.740687 0.686705 -0.263277
C85   C     C_R   0.760943 0.698037 0.800370 -0.140654
C86   C     C_R   0.758851 0.303370 0.301345 -0.101843
C87   C     C_R   0.260930 0.198091 0.801181 -0.155910
C88   C     C_R   0.260109 0.802322 0.300333 -0.121023
H65   H     H_    0.188138 0.202226 0.534768 0.178294
H66   H     H_    0.185715 0.799475 0.035570 0.175568
H67   H     H_    0.688036 0.702095 0.534091 0.178230
H68   H     H_    0.682964 0.301297 0.039119 0.170720
H69   H     H_    0.816128 0.801082 0.263790 0.167913
H70   H     H_    0.814834 0.199956 0.764276 0.173384
H71   H     H_    0.314112 0.299649 0.267728 0.172939
H72   H     H_    0.315447 0.699182 0.763890 0.174794
H73   H     H_    0.902753 0.612371 0.184797 0.163534
H74   H     H_    0.904038 0.386286 0.682055 0.159180
H75   H     H_    0.401864 0.111505 0.187013 0.161980
H76   H     H_    0.404712 0.885558 0.682105 0.159954
H77   H     H_    0.234771 0.345603 0.079657 0.180782
H78   H     H_    0.233587 0.655787 0.578801 0.156430
H79   H     H_    0.735935 0.846502 0.076874 0.178579
H80   H     H_    0.733706 0.155894 0.578360 0.157520
H81   H     H_    0.765800 0.656144 0.724916 0.172328
H82   H     H_    0.763805 0.345129 0.225769 0.165457
H83   H     H_    0.266555 0.156755 0.724350 0.171695
H84   H     H_    0.265709 0.843565 0.224085 0.172563
C89   C     C_2   0.225391 0.585505 0.996579 0.403083
H85   H     H_    0.186579 0.604461 0.917905 0.084956
O49   O     O_2   0.272272 0.620966 0.033697 -0.602411
C90   C     C_2   0.237256 0.417203 0.535082 0.478500
H86   H     H_    0.260112 0.386924 0.626535 -0.017788
O50   O     O_2   0.223345 0.392319 0.408298 -0.565623
C91   C     C_2   0.724364 0.085882 0.996865 0.397845
H87   H     H_    0.685303 0.104539 0.918501 0.088750
O51   O     O_2   0.770950 0.121739 0.033824 -0.605463
C92   C     C_2   0.737631 0.917332 0.533999 0.469634
H88   H     H_    0.760691 0.886998 0.625066 -0.019815
O52   O     O_2   0.723667 0.892576 0.407093 -0.566298
O53   O     O_3   0.972221 0.081776 0.697105 -0.620054
C93   C     C_3   0.038981 0.081065 0.647642 0.272161
H89   H     H_    0.075471 0.070989 0.744877 0.076533
H90   H     H_    0.050519 0.128909 0.592521 0.125640
C94   C     C_3   0.047544 0.027879 0.525320 -0.868741
H91   H     H_    0.006570 0.030304 0.435549 0.261963
H92   H     H_    0.095453 0.034845 0.465484 0.214442
H93   H     H_    0.047789 0.979101 0.583568 0.261456
O54   O     O_3   0.984893 0.897898 0.156500 -0.640884
C95   C     C_3   0.054061 0.904657 0.134348 0.344583
H94   H     H_    0.077433 0.855287 0.127932 0.105853
H95   H     H_    0.079067 0.933663 0.229505 0.099368
C96   C     C_3   0.064903 0.940062 0.979868 -0.841865
H96   H     H_    0.061038 0.993718 0.998122 0.218086
H97   H     H_    0.114779 0.928098 0.934745 0.220857
H98   H     H_    0.027442 0.925448 0.889136 0.297270
O55   O     O_3   0.469740 0.577668 0.703470 -0.617034
C97   C     C_3   0.534084 0.576847 0.639038 0.291462
H99   H     H_    0.574701 0.568111 0.727596 0.063825
H100  H     H_    0.543203 0.624439 0.580306 0.125632
C98   C     C_3   0.537792 0.522653 0.516872 -0.881410
H101  H     H_    0.494969 0.526034 0.432151 0.246997
H102  H     H_    0.584627 0.527517 0.451372 0.212030
H103  H     H_    0.537146 0.473909 0.575134 0.265358
O56   O     O_3   0.533728 0.371711 0.147315 -0.602128
C99   C     C_3   0.540720 0.438107 0.103668 0.275495
H104  H     H_    0.576227 0.462510 0.187169 0.104412
H105  H     H_    0.492282 0.465493 0.101817 0.066195
C100  C     C_3   0.568900 0.440992 0.940011 -0.785449
H106  H     H_    0.587479 0.490826 0.917334 0.179845
H107  H     H_    0.610333 0.405161 0.928096 0.282934
H108  H     H_    0.529732 0.430030 0.850224 0.266785
C101  C     C_2   0.061183 0.385161 0.634228 0.755939
H109  H     H_    0.011655 0.379843 0.677576 -0.056917
O57   O     O_2   0.074421 0.430952 0.549007 -0.515580
C102  C     C_2   0.058698 0.617818 0.137798 0.756745
H110  H     H_    0.009181 0.628068 0.176182 -0.058951
O58   O     O_2   0.069586 0.569599 0.057796 -0.543464
C103  C     C_2   0.561532 0.885383 0.633540 0.752255
H111  H     H_    0.512152 0.880258 0.677822 -0.054710
O59   O     O_2   0.574647 0.931081 0.547966 -0.515335
C104  C     C_2   0.558033 0.118059 0.138621 0.762506
H112  H     H_    0.508224 0.128463 0.174896 -0.058936
O60   O     O_2   0.569358 0.069743 0.059277 -0.545295
C105  C     C_2   0.051033 0.198713 0.889136 0.513486
H113  H     H_    0.088989 0.184587 0.808190 -0.100035
O61   O     O_2   0.068155 0.226677 0.009690 -0.478226
C106  C     C_2   0.055577 0.798509 0.424229 0.486086
H114  H     H_    0.072328 0.748778 0.447462 0.073786
O62   O     O_2   0.092436 0.844025 0.459569 -0.627057
C107  C     C_2   0.552175 0.698002 0.878959 0.499231
H115  H     H_    0.588689 0.681765 0.796381 -0.097153
O63   O     O_2   0.571006 0.728909 0.994049 -0.482147
C108  C     C_2   0.561523 0.293171 0.438915 0.578933
H116  H     H_    0.575566 0.245970 0.487885 0.065707
O64   O     O_2   0.598385 0.340099 0.459989 -0.604712
C109  C     C_2   0.738277 0.443685 0.012276 0.574434
H117  H     H_    0.707427 0.430763 0.110139 -0.044035
O65   O     O_2   0.752124 0.401770 0.915653 -0.585888
C110  C     C_2   0.739056 0.563822 0.491303 0.614239
H118  H     H_    0.706355 0.580234 0.582980 -0.097829
O66   O     O_2   0.753071 0.601778 0.386385 -0.589688
C111  C     C_2   0.243042 0.942117 0.018212 0.615688
H119  H     H_    0.212205 0.929291 0.116145 -0.083940
O67   O     O_2   0.260269 0.899429 0.926789 -0.583902
C112  C     C_2   0.239063 0.064146 0.489895 0.585515
H120  H     H_    0.207550 0.081046 0.583361 -0.078350
O68   O     O_2   0.250763 0.101137 0.381382 -0.589479

loop_
_geom_bond_atom_site_label_1
_geom_bond_atom_site_label_2
_geom_bond_distance
_ccdc_geom_bond_type
C28   H56   1.111498 S    
C33   H77   1.076261 S    
C17   H37   1.101992 S    
C103  H111  1.073448 S    
C2    H10   1.105702 S    
P8    Ba4   3.416537 S    
O27   Ba3   2.834714 S    
C100  H108  1.105730 S    
C35   H79   1.076571 S    
P8    C71   1.867940 S    
C30   H58   1.111713 S    
C15   H27   1.106351 S    
C63   C71   1.435845 A    
C92   O52   1.220255 D    
C9    O53   1.415991 S    
C98   H103  1.109915 S    
C61   C69   1.436307 A    
C90   H86   1.085043 S    
C87   H83   1.073352 S    
C93   H90   1.109235 S    
C20   H40   1.102061 S    
C72   C76   1.393760 A    
P10   C77   1.836473 S    
P2    O18   1.762369 S    
P4    O8    1.571526 S    
C52   H68   1.082160 S    
C17   H33   1.111054 S    
P9    O41   1.748434 S    
C26   H46   1.103573 S    
P11   O43   1.753918 S    
C5    C9    1.543474 S    
O18   C22   1.405286 S    
C8    C108  1.504216 S    
O40   C15   1.407144 S    
C49   H65   1.081936 S    
O3    Ba3   2.822426 S    
C19   H39   1.100852 S    
C107  O63   1.218278 D    
C16   C112  1.502813 S    
Ba3   O48   2.978278 S    
C54   C88   1.414578 A    
C77   C81   1.400066 A    
Ba1   O46   2.978278 S    
C54   C58   1.422906 A    
C1    H61   1.104725 S    
C18   H38   1.102281 S    
H3    C31   1.108848 S    
C107  H115  1.079032 S    
Ba2   O46   2.832761 S    
C76   C80   1.387206 A    
C42   C102  1.452577 S    
C10   O54   1.413630 S    
C108  H116  1.080752 S    
C46   C50   1.398433 A    
C76   H76   1.078343 S    
C25   H45   1.105918 S    
Ba4   O48   2.832761 S    
C16   C20   1.530565 S    
C97   H100  1.108611 S    
C4    H12   1.110286 S    
C86   H82   1.073334 S    
C7    C107  1.504744 S    
C66   C82   1.409449 A    
C27   H55   1.111745 S    
C106  H114  1.081496 S    
C38   C42   1.411791 A    
O22   P13   1.759482 S    
C12   H20   1.113518 S    
C43   C47   1.402689 A    
C11   H23   1.111770 S    
C36   C60   1.411519 A    
O16   P15   1.547470 D    
P10   O42   1.745311 S    
C101  O57   1.216445 D    
C39   C43   1.409673 A    
O10   P13   1.753317 S    
P7    C72   1.871219 S    
O12   P15   1.752992 S    
P3    O7    1.566008 S    
H2    C30   1.108274 S    
C25   H49   1.110160 S    
C14   C18   1.529976 S    
C5    H13   1.111409 S    
C88   H84   1.070045 S    
C19   H31   1.107293 S    
C94   H92   1.108230 S    
C7    H15   1.111155 S    
C48   C52   1.397397 A    
O23   P16   1.756693 S    
C6    C106  1.508913 S    
C37   C57   1.436856 A    
C63   C87   1.408434 A    
C40   C60   1.440151 A    
C61   C85   1.407867 A    
C84   H72   1.083715 S    
C67   C83   1.408353 A    
Ba1   O45   2.825488 S    
C103  O59   1.216236 D    
C3    C31   1.522450 S    
O12   Ba4   2.822804 S    
O53   C93   1.412655 S    
C1    C29   1.522025 S    
P9    O29   1.766938 S    
C110  H118  1.084518 S    
C24   C28   1.533082 S    
C89   H85   1.083706 S    
C24   C92   1.505229 S    
P12   O32   1.759123 S    
H4    C32   1.107827 S    
C23   H43   1.103786 S    
P6    C69   1.865657 S    
P9    C78   1.841032 S    
C41   C45   1.401640 A    
C3    H11   1.110470 S    
P5    O25   1.556585 D    
O56   C99   1.410163 S    
C75   C79   1.387213 A    
O5    Ba2   2.825366 S    
C105  O61   1.217374 D    
O7    Ba4   2.825366 S    
C15   C19   1.526802 S    
O15   P16   1.546561 D    
C63   C67   1.420283 A    
C109  O65   1.221704 D    
O43   C7    1.412637 S    
C31   H59   1.112336 S    
P1    O5    1.566008 S    
C32   H60   1.112442 S    
C20   H36   1.111178 S    
O19   C23   1.400197 S    
C93   C94   1.515199 S    
C102  O58   1.216981 D    
C21   H41   1.103917 S    
O8    Ba3   2.832642 S    
C74   C78   1.384858 A    
C33   C57   1.413354 A    
C35   C59   1.412919 A    
C28   H48   1.103759 S    
P1    Ba1   3.413823 S    
C96   H97   1.105941 S    
P3    Ba3   3.413823 S    
P14   C45   1.861876 S    
O38   C13   1.406822 S    
P5    O37   1.749106 S    
C64   C72   1.439560 A    
C13   H25   1.104110 S    
P5    Ba1   3.420716 S    
P4    C40   1.899825 S    
Ba2   O45   2.979864 S    
C8    H16   1.115532 S    
C2    H62   1.111070 S    
C53   C57   1.422091 A    
C95   H94   1.108355 S    
C56   C86   1.414943 A    
C100  H107  1.108869 S    
C56   C60   1.423895 A    
C94   H93   1.110120 S    
C43   C103  1.452206 S    
O6    Ba1   2.832642 S    
Ba1   Ba2   4.687905 S    
C62   C66   1.420560 A    
C45   C49   1.396116 A    
C16   H28   1.101735 S    
P13   C46   1.874501 S    
C98   H102  1.109064 S    
O11   Ba3   2.820840 S    
C83   H71   1.083634 S    
C5    C105  1.506354 S    
C26   H54   1.111480 S    
C27   H51   1.110158 S    
C44   C48   1.405042 A    
O24   P15   1.757434 S    
C51   H67   1.081897 S    
C69   C73   1.391771 A    
C99   H104  1.112136 S    
C12   H24   1.112974 S    
C9    H17   1.110337 S    
C40   C44   1.411057 A    
C34   H78   1.071500 S    
C11   H19   1.113912 S    
C85   H81   1.073470 S    
O13   P14   1.546258 D    
C8    C12   1.530863 S    
C95   C96   1.522957 S    
P2    Ba2   3.417935 S    
C36   C66   1.414410 A    
P1    O1    1.558281 D    
H1    C29   1.109110 S    
O9    P14   1.754834 S    
P6    O38   1.746066 S    
P3    O3    1.558281 D    
C104  H112  1.072408 S    
P4    O20   1.762287 S    
C25   H53   1.111797 S    
C14   H26   1.102411 S    
Ba3   O47   2.825488 S    
C62   C70   1.438822 A    
P8    O47   1.569999 S    
P6    Ba2   3.416537 S    
C19   H35   1.111292 S    
C50   C54   1.410616 A    
C73   H73   1.079609 S    
P11   C80   1.844842 S    
P5    C70   1.866153 S    
C99   C100  1.520366 S    
C108  O64   1.220287 D    
O41   C5    1.410441 S    
C42   C46   1.406142 A    
C44   C104  1.453439 S    
C64   C68   1.420509 A    
C24   H44   1.102156 S    
C9    H21   1.111918 S    
C2    C30   1.525031 S    
C111  H119  1.084270 S    
O55   C97   1.414203 S    
C97   C98   1.519762 S    
C6    C10   1.546155 S    
O11   P16   1.754014 S    
C106  O62   1.220095 D    
C91   O51   1.222212 D    
O23   C31   1.410500 S    
C50   H66   1.082392 S    
P9    O33   1.539437 D    
O21   C29   1.410222 S    
P10   O30   1.759913 S    
P11   O35   1.540214 D    
P12   O36   1.541386 D    
C34   C58   1.412167 A    
C22   C90   1.505062 S    
C92   H88   1.084996 S    
C10   H18   1.104256 S    
C13   C109  1.500086 S    
C1    H5    1.111184 S    
C3    H7    1.111185 S    
C101  H109  1.073655 S    
C51   C55   1.408755 A    
P6    O26   1.557328 D    
C35   C65   1.413434 A    
C39   C59   1.436633 A    
P8    O40   1.746931 S    
P2    C38   1.899486 S    
C18   H34   1.111768 S    
C13   C17   1.532186 S    
C20   H32   1.109659 S    
C65   C81   1.407922 A    
C4    C32   1.522721 S    
O29   Ba1   2.820916 S    
C21   C89   1.506872 S    
O31   Ba3   2.820916 S    
C23   C27   1.535374 S    
C21   C25   1.535251 S    
O9    Ba1   2.820840 S    
Ba3   Ba4   4.687905 S    
C28   H52   1.111269 S    
C10   H22   1.111797 S    
C1    H9    1.110276 S    
P16   C47   1.863516 S    
C15   C111  1.497753 S    
C7    C11   1.547086 S    
P15   C48   1.869420 S    
O54   C95   1.410630 S    
C110  O66   1.221376 D    
O32   Ba4   2.818939 S    
C29   H57   1.112224 S    
C3    H63   1.105390 S    
Ba4   O47   2.979864 S    
C6    H14   1.114289 S    
C4    H64   1.107699 S    
C97   H99   1.109768 S    
C79   C83   1.400335 A    
P1    O17   1.760758 S    
C74   H74   1.078673 S    
C105  H113  1.078067 S    
P3    O19   1.760911 S    
O20   C24   1.405325 S    
P4    O4    1.557536 D    
P3    C39   1.889400 S    
C62   C86   1.409423 A    
C109  H117  1.084437 S    
C93   H89   1.109963 S    
C14   C110  1.503002 S    
P12   O44   1.747817 S    
C94   H91   1.109042 S    
C27   H47   1.105947 S    
C33   C67   1.413653 A    
O25   Ba1   2.834714 S    
P6    O45   1.569999 S    
O30   Ba2   2.818939 S    
C11   O55   1.416949 S    
O42   C6    1.408550 S    
C68   C84   1.409756 A    
C80   C84   1.401394 A    
C90   O50   1.220207 D    
O10   Ba2   2.822804 S    
P12   C79   1.839415 S    
C112  O68   1.221310 D    
O14   P13   1.548402 D    
C96   H96   1.105465 S    
C55   C59   1.422479 A    
C36   H80   1.071671 S    
P7    Ba3   3.420716 S    
O28   Ba4   2.826205 S    
P2    O2    1.557536 D    
P7    O39   1.748496 S    
C64   C88   1.408950 A    
C47   C51   1.396118 A    
C17   H29   1.109244 S    
C111  O67   1.221554 D    
P5    O46   1.575570 S    
C4    H8    1.110607 S    
C81   H69   1.083612 S    
C49   C53   1.408641 A    
C95   H95   1.113364 S    
C100  H106  1.100757 S    
C78   C82   1.401363 A    
C71   C75   1.393998 A    
C52   C56   1.409379 A    
O1    Ba1   2.822426 S    
O21   P14   1.756511 S    
C89   O49   1.222218 D    
C22   H42   1.102014 S    
C112  H120  1.084394 S    
C73   C77   1.385650 A    
C12   O56   1.411652 S    
C98   H101  1.109342 S    
O44   C8    1.410073 S    
O37   C14   1.405419 S    
O26   Ba2   2.826205 S    
O39   C16   1.405038 S    
P10   O34   1.539404 D    
C99   H105  1.116535 S    
O22   C30   1.411307 S    
P11   O31   1.766276 S    
P2    O6    1.571526 S    
O4    Ba4   2.830879 S    
P7    O27   1.556585 D    
C55   C85   1.410965 A    
P8    O28   1.557328 D    
P7    O48   1.575570 S    
C37   C41   1.409279 A    
C53   C87   1.410726 A    
C2    H6    1.110177 S    
C91   H87   1.083495 S    
C23   C91   1.506885 S    
C38   C58   1.439389 A    
C102  H110  1.072097 S    
C104  O60   1.217109 D    
C75   H75   1.079679 S    
C61   C65   1.420587 A    
P1    C37   1.887531 S    
C22   C26   1.533169 S    
C18   H30   1.110619 S    
O17   C21   1.400138 S    
C82   H70   1.083722 S    
C96   H98   1.105743 S    
C34   C68   1.414799 A    
C41   C101  1.452819 S    
C70   C74   1.391976 A    
O24   C32   1.410803 S    
P4    Ba4   3.417935 S    
O2    Ba2   2.830879 S    
C26   H50   1.111289 S    
