data_mof_unit_19477.cif
_audit_creation_date              2013-03-05T16:35:53-0500
_audit_creation_method            fapswitch 2.2
_symmetry_space_group_name_H-M    P1
_symmetry_Int_Tables_number       1
_space_group_crystal_system       monoclinic
_cell_length_a                    23.528001
_cell_length_b                    9.088082
_cell_length_c                    7.780594
_cell_angle_alpha                 90.038106
_cell_angle_beta                  90.0
_cell_angle_gamma                 90.0
_cell_volume                      1663.6804943

loop_
_atom_site_label
_atom_site_type_symbol
_atom_site_description
_atom_site_fract_x
_atom_site_fract_y
_atom_site_fract_z
_atom_type_partial_charge
O1    O     O_R   0.500000 0.288390 0.642760 -0.574902
O2    O     O_R   0.500000 0.711610 0.357240 -0.574902
O3    O     O_R   0.500000 0.711610 0.642760 -0.574518
O4    O     O_R   0.500000 0.288390 0.357240 -0.574518
C1    C     C_R   0.500000 0.220008 0.499965 0.852627
C2    C     C_R   0.500000 0.779992 0.500035 0.852627
O5    O     O_R   0.417880 0.500000 0.642820 -0.585078
O6    O     O_R   0.582120 0.500000 0.357180 -0.585100
O7    O     O_R   0.582120 0.500000 0.642820 -0.585100
O8    O     O_R   0.417880 0.500000 0.357180 -0.585078
C3    C     C_R   0.208793 0.500001 0.500000 0.358797
C4    C     C_R   0.791202 0.500001 0.500000 0.360466
C5    C     C_R   0.390586 0.500000 0.500000 0.796577
C6    C     C_R   0.609418 0.500000 0.500000 0.796589
Cu1   Cu    Cu3+1 0.500000 0.500000 0.669080 1.007472
Cu2   Cu    Cu3+1 0.500000 0.500000 0.330920 1.007472
H1    H     H_    0.215683 0.519462 0.224383 0.137998
H2    H     H_    0.784349 0.510461 0.223600 0.136970
H3    H     H_    0.215683 0.480540 0.775617 0.137997
H4    H     H_    0.784349 0.489542 0.776400 0.136970
C7    C     C_R   0.297819 0.510765 0.344540 -0.206481
C8    C     C_R   0.702197 0.505757 0.344091 -0.205846
C9    C     C_R   0.297819 0.489236 0.655460 -0.206481
C10   C     C_R   0.702197 0.494244 0.655909 -0.205846
C11   C     C_R   0.327999 0.500000 0.500000 -0.038652
C12   C     C_R   0.672011 0.500000 0.500000 -0.038685
C13   C     C_R   0.880454 0.628906 0.469572 0.536052
C14   C     C_R   0.119502 0.371074 0.530304 0.535844
C15   C     C_R   0.880454 0.371096 0.530428 0.536052
C16   C     C_R   0.119502 0.628928 0.469696 0.535845
N1    N     N_R   0.852074 0.500001 0.500000 -0.474420
N2    N     N_R   0.147900 0.500001 0.500000 -0.474106
C17   C     C_R   0.940069 0.368320 0.530879 -0.013593
C18   C     C_R   0.059886 0.631682 0.469164 -0.013438
C19   C     C_R   0.940069 0.631682 0.469121 -0.013593
C20   C     C_R   0.059886 0.368320 0.530836 -0.013438
C21   C     C_R   0.969989 0.500001 0.500000 -0.017324
C22   C     C_R   0.029967 0.500001 0.500000 -0.017343
C23   C     C_R   0.970327 0.237556 0.561056 -0.164958
C24   C     C_R   0.029627 0.762449 0.438980 -0.164897
C25   C     C_R   0.970327 0.762447 0.438944 -0.164958
C26   C     C_R   0.029626 0.237553 0.561020 -0.164897
C27   C     C_1   0.500000 0.065378 0.499952 -0.166527
C28   C     C_1   0.500000 0.934622 0.500048 -0.166527
C29   C     C_R   0.238553 0.511083 0.344770 -0.098347
C30   C     C_R   0.761464 0.506031 0.344311 -0.098930
C31   C     C_R   0.238553 0.488918 0.655230 -0.098347
C32   C     C_R   0.761464 0.493971 0.655689 -0.098930
N3    N     N_1   0.500000 0.500000 0.076820 -0.049445
N4    N     N_1   0.500000 0.500000 0.923180 -0.049445
O9    O     O_2   0.851020 0.753933 0.440781 -0.514770
O10   O     O_2   0.148916 0.245962 0.558783 -0.515162
O11   O     O_2   0.851020 0.246069 0.559218 -0.514770
O12   O     O_2   0.148916 0.754040 0.441216 -0.515162
H5    H     H_    0.948325 0.134864 0.584805 0.188875
H6    H     H_    0.051628 0.865146 0.415256 0.188918
H7    H     H_    0.948325 0.865138 0.415194 0.188875
H8    H     H_    0.051628 0.134856 0.584744 0.188918
H9    H     H_    0.319942 0.519310 0.222890 0.160731
H10   H     H_    0.680083 0.510237 0.222066 0.160553
H11   H     H_    0.319942 0.480691 0.777110 0.160731
H12   H     H_    0.680083 0.489764 0.777934 0.160553

loop_
_geom_bond_atom_site_label_1
_geom_bond_atom_site_label_2
_geom_bond_distance
_ccdc_geom_bond_type
O4    Cu2   1.934138 S    
O6    C6    1.283478 A    
O7    C6    1.283478 A    
O8    C5    1.283437 A    
C21   C22   1.411160 A    
O1    Cu1   1.933867 S    
O2    Cu2   1.933866 S    
C14   O10   1.349516 S    
C3    C31   1.399742 A    
O5    C5    1.283437 A    
C17   C21   1.409191 A    
C4    C32   1.400000 A    
O3    C2    1.272915 A    
C13   C19   1.402865 A    
C26   H8    1.083211 S    
O5    Cu1   1.942895 S    
O7    Cu1   1.942893 S    
Cu1   N4    1.977048 S    
C25   H7    1.083212 S    
O6    Cu2   1.942893 S    
C2    C28   1.405293 S    
C6    C12   1.472693 S    
C16   N2    1.369403 A    
C16   O12   1.349516 S    
C10   C12   1.406684 A    
C5    C11   1.472533 S    
H4    C32   1.083364 S    
C15   O11   1.349503 S    
C27   C28   1.188317 T    
O1    C1    1.272665 A    
H2    C30   1.083364 S    
C20   C22   1.409128 A    
C24   C25   1.395189 A    
C8    C30   1.394444 A    
C13   O9    1.349504 S    
C3    N2    1.432695 S    
C7    H9    1.083015 S    
C23   C26   1.395187 A    
C7    C29   1.394436 A    
C9    C11   1.406059 A    
C4    N1    1.432182 S    
C8    H10   1.083433 S    
C19   C25   1.405211 A    
C18   C24   1.405253 A    
C3    C29   1.399741 A    
C9    C31   1.394436 A    
C16   C18   1.402879 A    
C13   N1    1.369190 A    
Cu1   Cu2   2.631086 S    
C10   C32   1.394447 A    
C15   C17   1.402865 A    
C14   N2    1.369402 A    
O3    Cu1   1.934137 S    
Cu2   N3    1.977048 S    
C14   C20   1.402879 A    
C15   N1    1.369191 A    
N3    N4    1.195411 T    
C8    C12   1.406683 A    
H3    C31   1.082959 S    
O8    Cu2   1.942895 S    
C7    C11   1.406060 A    
C1    C27   1.405293 S    
C10   H12   1.083434 S    
C19   C21   1.409191 A    
C18   C22   1.409128 A    
C20   C26   1.405254 A    
C17   C23   1.405211 A    
C23   H5    1.083211 S    
O2    C2    1.272665 A    
C9    H11   1.083016 S    
H1    C29   1.082959 S    
O4    C1    1.272915 A    
C24   H6    1.083211 S    
C4    C30   1.400002 A    
