data_mof_unit_66714.cif
_audit_creation_date              2013-03-05T15:39:23-0500
_audit_creation_method            fapswitch 2.2
_symmetry_space_group_name_H-M    P1
_symmetry_Int_Tables_number       1
_space_group_crystal_system       triclinic
_cell_length_a                    20.596617
_cell_length_b                    22.947981
_cell_length_c                    8.486582
_cell_angle_alpha                 89.713185
_cell_angle_beta                  103.426771
_cell_angle_gamma                 90.460882
_cell_volume                      3901.40715526

loop_
_atom_site_label
_atom_site_type_symbol
_atom_site_description
_atom_site_fract_x
_atom_site_fract_y
_atom_site_fract_z
_atom_type_partial_charge
P1    P     P_3+3 0.859590 0.433890 0.993820 0.563043
P2    P     P_3+3 0.859590 0.566110 0.493820 0.537279
P3    P     P_3+3 0.359590 0.933890 0.993820 0.580059
P4    P     P_3+3 0.359590 0.066110 0.493820 0.562417
O1    O     O_2   0.866180 0.413660 0.823810 -0.330130
O2    O     O_2   0.866180 0.586340 0.323810 -0.289521
O3    O     O_2   0.366180 0.913660 0.823810 -0.297636
O4    O     O_2   0.366180 0.086340 0.323810 -0.289739
O5    O     O_3   0.922050 0.469730 0.097400 -0.312747
O6    O     O_3   0.922050 0.530270 0.597400 -0.381470
O7    O     O_3   0.422050 0.969730 0.097400 -0.324327
O8    O     O_3   0.422050 0.030270 0.597400 -0.377905
O9    O     O_3   0.976760 0.360270 0.628090 -0.423578
O10   O     O_3   0.976760 0.639730 0.128090 -0.400344
O11   O     O_3   0.476760 0.860270 0.628090 -0.431685
O12   O     O_3   0.476760 0.139730 0.128090 -0.362996
O13   O     O_2   0.868955 0.311359 0.711058 -0.339813
O14   O     O_2   0.868399 0.688183 0.191752 -0.303012
O15   O     O_2   0.370358 0.811714 0.715954 -0.347313
O16   O     O_2   0.367470 0.185735 0.194647 -0.356314
O17   O     O_3   0.797501 0.486721 0.933479 -0.541859
O18   O     O_3   0.797470 0.512512 0.437925 -0.574367
O19   O     O_3   0.300023 0.987420 0.920277 -0.523198
O20   O     O_3   0.300894 0.010450 0.428251 -0.544590
O21   O     O_3   0.942703 0.239372 0.595966 -0.568529
O22   O     O_3   0.952945 0.762581 0.120642 -0.517983
O23   O     O_3   0.444015 0.740115 0.599606 -0.510247
O24   O     O_3   0.450986 0.260514 0.126061 -0.480106
C1    C     C_3   0.032377 0.179746 0.733781 -0.686650
C2    C     C_3   0.055940 0.815197 0.189316 -0.705164
C3    C     C_3   0.545741 0.686492 0.633119 -0.869479
C4    C     C_3   0.566041 0.286868 0.180227 -0.769440
P5    P     P_3+3 0.140130 0.433190 0.695710 0.496983
P6    P     P_3+3 0.140130 0.566810 0.195710 0.504639
P7    P     P_3+3 0.640130 0.933190 0.695710 0.511613
P8    P     P_3+3 0.640130 0.066810 0.195710 0.512719
P9    P     P_3+3 0.082000 0.306593 0.126194 0.519128
P10   P     P_3+3 0.082513 0.694552 0.621438 0.513188
P11   P     P_3+3 0.584290 0.808532 0.120634 0.522288
P12   P     P_3+3 0.585066 0.192386 0.614884 0.525999
O25   O     O_2   0.133470 0.412980 0.865660 -0.364180
O26   O     O_2   0.133470 0.587020 0.365660 -0.326130
O27   O     O_2   0.633470 0.912980 0.865660 -0.337652
O28   O     O_2   0.633470 0.087020 0.365660 -0.351875
O29   O     O_3   0.022720 0.360150 0.061220 -0.350523
O30   O     O_3   0.022720 0.639850 0.561220 -0.358696
O31   O     O_3   0.522720 0.860150 0.061220 -0.356408
O32   O     O_3   0.522720 0.139850 0.561220 -0.359415
O33   O     O_2   0.119929 0.300428 0.990669 -0.332392
O34   O     O_2   0.129954 0.691817 0.504566 -0.314131
O35   O     O_2   0.629256 0.815842 0.001231 -0.317201
O36   O     O_2   0.633895 0.183880 0.504014 -0.294585
O37   O     O_3   0.213274 0.475366 0.739266 -0.523877
O38   O     O_3   0.214412 0.527067 0.235917 -0.558904
O39   O     O_3   0.711178 0.975713 0.776506 -0.462788
O40   O     O_3   0.715087 0.028409 0.238050 -0.565282
O41   O     O_3   0.035405 0.242098 0.112507 -0.525801
O42   O     O_3   0.039829 0.759839 0.568778 -0.527404
O43   O     O_3   0.546868 0.740601 0.067417 -0.524526
O44   O     O_3   0.548631 0.259730 0.552213 -0.526821
C5    C     C_3   0.992671 0.247187 0.219118 0.244205
C6    C     C_3   0.981257 0.758824 0.627649 0.300104
C7    C     C_3   0.485390 0.738653 0.112616 0.282436
C8    C     C_3   0.486251 0.262938 0.592618 0.319940
H1    H     H_    0.020017 0.260581 0.342597 0.095915
H2    H     H_    0.987099 0.734488 0.743948 0.031904
H3    H     H_    0.487842 0.760023 0.231351 0.065178
H4    H     H_    0.485098 0.239406 0.706845 0.003204
C9    C     C_3   0.959013 0.189014 0.236957 -0.798123
C10   C     C_3   0.961698 0.821049 0.658673 -0.735176
C11   C     C_3   0.464918 0.675325 0.129539 -0.684909
C12   C     C_3   0.470193 0.326710 0.616464 -0.737058
C13   C     C_3   0.207489 0.471187 0.295874 0.238807
C14   C     C_3   0.203630 0.532938 0.781114 0.225255
C15   C     C_3   0.707912 0.969187 0.266702 0.228107
C16   C     C_3   0.717150 0.028054 0.696485 0.256187
H5    H     H_    0.184347 0.442331 0.193026 0.128520
H6    H     H_    0.176856 0.557334 0.672360 0.139233
H7    H     H_    0.691159 0.946142 0.149655 0.174455
H8    H     H_    0.713490 0.021102 0.566412 0.071148
C17   C     C_3   0.277707 0.449159 0.383608 -0.576409
C18   C     C_3   0.273597 0.559810 0.849949 -0.592469
C19   C     C_3   0.777105 0.947485 0.358482 -0.588765
C20   C     C_3   0.786679 0.053855 0.779445 -0.686106
Ba1   Ba    Ba6+2 0.999900 0.456810 0.844860 1.654603
Ba2   Ba    Ba6+2 0.999900 0.543190 0.344860 1.646072
Ba3   Ba    Ba6+2 0.499900 0.956810 0.844860 1.663822
Ba4   Ba    Ba6+2 0.499900 0.043190 0.344860 1.639763
C21   C     C_3   0.754584 0.489477 0.040466 0.128097
C22   C     C_3   0.753580 0.512371 0.542875 0.096212
C23   C     C_3   0.256480 0.000054 0.019725 0.132280
C24   C     C_3   0.255944 0.002541 0.527919 0.075346
C25   C     C_3   0.693191 0.450752 0.974139 -0.648075
C26   C     C_3   0.692540 0.549379 0.466183 -0.683763
C27   C     C_3   0.191244 0.965186 0.959882 -0.707460
C28   C     C_3   0.192357 0.037120 0.456901 -0.733721
H9    H     H_    0.709561 0.411472 0.920461 0.224456
H10   H     H_    0.709425 0.588553 0.411006 0.197280
H11   H     H_    0.202701 0.918919 0.988808 0.233558
H12   H     H_    0.205136 0.083635 0.478510 0.240697
O45   O     O_3   0.077880 0.530130 0.092320 -0.423515
O46   O     O_3   0.077880 0.469870 0.592320 -0.444124
O47   O     O_3   0.577880 0.030130 0.092320 -0.417089
O48   O     O_3   0.577880 0.969870 0.592320 -0.450587
P13   P     P_3+3 0.915131 0.694250 0.073525 0.526108
P14   P     P_3+3 0.908894 0.309515 0.577528 0.457151
P15   P     P_3+3 0.413385 0.192617 0.075060 0.511708
P16   P     P_3+3 0.408747 0.809850 0.579462 0.501852
C29   C     C_3   0.006538 0.241415 0.699330 0.407136
C30   C     C_3   0.022385 0.756512 0.144431 0.348716
C31   C     C_3   0.513618 0.746045 0.621163 0.420146
C32   C     C_3   0.505023 0.268265 0.052286 0.331202
C33   C     C_R   0.124737 0.643203 0.927392 -0.423338
C34   C     C_R   0.129520 0.361203 0.423533 -0.447139
C35   C     C_R   0.625381 0.140901 0.920554 -0.374849
C36   C     C_R   0.627586 0.859879 0.426165 -0.434693
C37   C     C_R   0.128588 0.693766 0.839890 0.217276
C38   C     C_R   0.136448 0.312062 0.334583 0.220033
C39   C     C_R   0.630547 0.191033 0.831917 0.217652
C40   C     C_R   0.634289 0.811444 0.334394 0.218273
C41   C     C_R   0.165369 0.742088 0.918541 -0.250594
C42   C     C_R   0.174886 0.264410 0.411714 -0.247401
C43   C     C_R   0.670736 0.238183 0.905367 -0.158711
C44   C     C_R   0.676835 0.765395 0.403553 -0.220020
C45   C     C_R   0.210424 0.735287 0.074986 -0.010064
C46   C     C_R   0.218253 0.270348 0.569694 0.018604
C47   C     C_R   0.714980 0.231897 0.062902 -0.045583
C48   C     C_R   0.719371 0.769810 0.563895 -0.003788
C49   C     C_R   0.205504 0.680296 0.158759 -0.223517
C50   C     C_R   0.204304 0.320689 0.661465 -0.198249
C51   C     C_R   0.707126 0.177783 0.147060 -0.186813
C52   C     C_R   0.703970 0.818492 0.660085 -0.207490
C53   C     C_R   0.155479 0.637620 0.090676 0.192493
C54   C     C_R   0.157541 0.364623 0.588409 0.205128
C55   C     C_R   0.655537 0.136348 0.083911 0.224693
C56   C     C_R   0.658371 0.863859 0.589495 0.179377
C57   C     C_R   0.799188 0.281346 0.304752 -0.158583
C58   C     C_R   0.825190 0.733585 0.780007 -0.178263
C59   C     C_R   0.294570 0.785916 0.312721 -0.108693
C60   C     C_R   0.322473 0.232170 0.785628 -0.181242
C61   C     C_R   0.854434 0.317802 0.367353 0.196737
C62   C     C_R   0.865953 0.688676 0.857738 0.196777
C63   C     C_R   0.352409 0.819572 0.371098 0.193844
C64   C     C_R   0.364007 0.187457 0.859817 0.121782
C65   C     C_R   0.839684 0.366210 0.105444 0.145911
C66   C     C_R   0.840578 0.633354 0.606694 0.127358
C67   C     C_R   0.337247 0.867067 0.106505 0.117715
C68   C     C_R   0.338301 0.132858 0.606941 0.149225
C69   C     C_R   0.791680 0.323250 0.037563 -0.253981
C70   C     C_R   0.793956 0.676697 0.536645 -0.255897
C71   C     C_R   0.287247 0.825155 0.041659 -0.240460
C72   C     C_R   0.290875 0.176425 0.538901 -0.240751
C73   C     C_R   0.768651 0.279359 0.135095 0.088733
C74   C     C_R   0.778735 0.725902 0.627340 0.155879
C75   C     C_R   0.263839 0.782980 0.143452 0.111597
C76   C     C_R   0.276464 0.225479 0.632432 0.152190
C77   C     C_R   0.873200 0.359081 0.265791 -0.427255
C78   C     C_R   0.872159 0.639293 0.769505 -0.391170
C79   C     C_R   0.371866 0.859277 0.266336 -0.418455
C80   C     C_R   0.370916 0.138850 0.769409 -0.385614
H13   H     H_    0.101160 0.606021 0.863066 0.150726
H14   H     H_    0.100414 0.397133 0.363591 0.189563
H15   H     H_    0.602325 0.103105 0.857632 0.154719
H16   H     H_    0.597612 0.895597 0.368594 0.194525
H17   H     H_    0.004409 0.262049 0.815589 0.177325
H18   H     H_    0.042132 0.725971 0.245726 0.169916
H19   H     H_    0.535553 0.769547 0.735663 0.160612
H20   H     H_    0.518475 0.229133 0.989966 0.050655
H21   H     H_    0.286111 0.462742 0.511894 0.183817
H22   H     H_    0.291233 0.542386 0.974354 0.200667
H23   H     H_    0.785345 0.963975 0.483343 0.139906
H24   H     H_    0.790037 0.053275 0.912207 0.192730
C81   C     C_2   0.283321 0.384211 0.382604 0.965584
O49   O     O_2   0.309122 0.358882 0.507879 -0.658890
O50   O     O_R   0.263765 0.353250 0.238044 -0.751562
H25   H     H_    0.273865 0.310141 0.253129 0.363939
C82   C     C_2   0.274386 0.624965 0.860581 0.982171
O51   O     O_2   0.304935 0.648397 0.984105 -0.630964
O52   O     O_R   0.246797 0.658834 0.725719 -0.702587
H26   H     H_    0.257136 0.701890 0.743999 0.351331
C83   C     C_2   0.781948 0.882653 0.369482 0.977453
O53   O     O_2   0.807120 0.860090 0.499548 -0.658360
O54   O     O_R   0.761509 0.848382 0.231626 -0.763067
H27   H     H_    0.773794 0.805920 0.252848 0.367778
C84   C     C_2   0.793053 0.117247 0.736244 1.200632
O55   O     O_2   0.752699 0.151935 0.764242 -0.615617
O56   O     O_R   0.845719 0.137584 0.671740 -0.705582
H28   H     H_    0.843829 0.181166 0.651690 0.382665
C85   C     C_2   0.333601 0.474232 0.315716 1.178633
O57   O     O_2   0.377051 0.504301 0.400913 -0.598910
O58   O     O_R   0.336880 0.461587 0.157328 -0.787382
H29   H     H_    0.378425 0.478499 0.129340 0.353407
C86   C     C_2   0.323352 0.542536 0.754020 1.154381
O59   O     O_2   0.318815 0.562191 0.617913 -0.595237
O60   O     O_R   0.375098 0.504538 0.821864 -0.756906
H30   H     H_    0.405494 0.496396 0.746301 0.352233
C87   C     C_2   0.832981 0.971121 0.288471 1.144367
O61   O     O_2   0.878668 0.998695 0.374480 -0.590237
O62   O     O_R   0.832615 0.961859 0.126144 -0.751235
H31   H     H_    0.873651 0.979087 0.096376 0.334118
C88   C     C_2   0.843667 0.015738 0.752771 1.129640
O63   O     O_2   0.890515 0.036120 0.704274 -0.544132
O64   O     O_R   0.843394 0.956291 0.788057 -0.712406
H32   H     H_    0.883650 0.935310 0.766820 0.329354
C89   C     C_2   0.733337 0.552149 0.047200 1.070097
O65   O     O_2   0.772586 0.591585 0.038157 -0.537069
O66   O     O_R   0.668155 0.565419 0.056353 -0.806397
H33   H     H_    0.658413 0.608525 0.042110 0.368076
C90   C     C_2   0.731763 0.450246 0.566190 1.049595
O67   O     O_2   0.679346 0.441159 0.605954 -0.625000
O68   O     O_R   0.769773 0.402378 0.542571 -0.729128
H34   H     H_    0.813183 0.413495 0.514315 0.342978
C91   C     C_2   0.243551 0.064510 0.001753 1.120527
O69   O     O_2   0.231794 0.087131 0.867378 -0.614394
O70   O     O_R   0.245374 0.098569 0.137826 -0.778922
H35   H     H_    0.244193 0.141526 0.110111 0.369536
C92   C     C_2   0.241147 0.937793 0.532683 1.132925
O71   O     O_2   0.240609 0.914401 0.661289 -0.614451
O72   O     O_R   0.226659 0.903818 0.392735 -0.753016
H36   H     H_    0.230379 0.926135 0.292632 0.293757
H37   H     H_    0.780139 0.475674 0.164706 0.104784
H38   H     H_    0.777819 0.529641 0.664420 0.113603
H39   H     H_    0.279020 0.989777 0.147645 0.094843
H40   H     H_    0.277063 0.018353 0.652014 0.148778
H41   H     H_    0.657504 0.473467 0.874787 0.245368
H42   H     H_    0.658892 0.524984 0.366452 0.232574
H43   H     H_    0.174155 0.969030 0.826707 0.234660
H44   H     H_    0.177030 0.030989 0.324276 0.213156
C93   C     C_2   0.658305 0.432102 0.102952 1.132446
O73   O     O_2   0.601842 0.449143 0.098866 -0.554582
O74   O     O_R   0.689769 0.393532 0.223640 -0.807963
H45   H     H_    0.660621 0.382699 0.300533 0.341203
C94   C     C_2   0.654679 0.567497 0.589114 1.159341
O75   O     O_2   0.680386 0.601029 0.697541 -0.644091
O76   O     O_R   0.590205 0.545855 0.578645 -0.709718
H46   H     H_    0.570685 0.559444 0.671226 0.342131
C95   C     C_2   0.134335 0.982974 0.032698 1.067215
O77   O     O_2   0.108699 0.030849 0.002290 -0.598103
O78   O     O_R   0.108854 0.943559 0.129161 -0.756533
H47   H     H_    0.069488 0.959791 0.167164 0.348910
C96   C     C_2   0.134300 0.022310 0.530089 1.085845
O79   O     O_2   0.104895 0.975815 0.498725 -0.594183
O80   O     O_R   0.112728 0.062530 0.629468 -0.724746
H48   H     H_    0.072506 0.048012 0.668363 0.363443
H49   H     H_    0.041740 0.265821 0.641357 0.075401
H50   H     H_    0.035347 0.740926 0.031857 0.036009
H51   H     H_    0.526046 0.769485 0.516820 0.053474
H52   H     H_    0.492205 0.303736 0.961694 0.094429
H53   H     H_    0.083466 0.180846 0.813381 0.263811
H54   H     H_    0.110672 0.811235 0.203271 0.250125
H55   H     H_    0.599693 0.691910 0.637468 0.269195
H56   H     H_    0.607042 0.299258 0.122465 0.224148
H57   H     H_    0.999053 0.154503 0.794853 0.285467
H58   H     H_    0.046828 0.830507 0.305892 0.268107
H59   H     H_    0.540720 0.664050 0.745583 0.266936
H60   H     H_    0.582993 0.250180 0.264450 0.280692
H61   H     H_    0.919986 0.196578 0.304655 0.205182
H62   H     H_    0.911993 0.820312 0.687715 0.183962
H63   H     H_    0.415093 0.674610 0.156038 0.240722
H64   H     H_    0.421620 0.329081 0.650775 0.194329
H65   H     H_    0.781489 0.255070 0.391142 0.167749
H66   H     H_    0.834797 0.774808 0.839220 0.126419
H67   H     H_    0.275610 0.761347 0.400978 0.141797
H68   H     H_    0.332445 0.272619 0.847801 0.138718
C97   C     C_2   0.150585 0.799512 0.840523 1.010419
O81   O     O_2   0.126411 0.837385 0.908948 -0.664338
O82   O     O_R   0.161835 0.809774 0.686571 -0.723408
H69   H     H_    0.142019 0.848003 0.638648 0.377259
C98   C     C_2   0.155622 0.206535 0.342466 1.032016
O83   O     O_2   0.161445 0.194836 0.206250 -0.582279
O84   O     O_R   0.125944 0.166810 0.429166 -0.800966
H70   H     H_    0.107374 0.131666 0.361286 0.335436
C99   C     C_2   0.662778 0.292690 0.812110 1.014164
O85   O     O_2   0.630735 0.332383 0.850731 -0.683541
O86   O     O_R   0.686880 0.296488 0.671284 -0.714662
H71   H     H_    0.671128 0.332699 0.605727 0.376707
C100  C     C_2   0.667189 0.711278 0.309716 1.015319
O87   O     O_2   0.689874 0.706771 0.189291 -0.569827
O88   O     O_R   0.625574 0.668151 0.348717 -0.839850
H72   H     H_    0.615401 0.636174 0.264672 0.342759
H73   H     H_    0.775871 0.324346 0.908425 0.182339
H74   H     H_    0.774106 0.671354 0.410285 0.162583
H75   H     H_    0.268936 0.825729 0.912419 0.189242
H76   H     H_    0.268764 0.171945 0.412277 0.162543
C101  C     C_2   0.257968 0.662066 0.301197 1.114057
O89   O     O_2   0.242606 0.645261 0.423498 -0.517021
O90   O     O_R   0.325330 0.665027 0.298061 -0.782833
H77   H     H_    0.355929 0.651786 0.403479 0.359513
C102  C     C_2   0.238507 0.329850 0.831281 1.098245
O91   O     O_2   0.233598 0.293445 0.933354 -0.591681
O92   O     O_R   0.282157 0.377094 0.872128 -0.718754
H78   H     H_    0.310415 0.373806 0.986342 0.375771
C103  C     C_2   0.758729 0.156513 0.282168 1.033080
O93   O     O_2   0.747220 0.153980 0.416013 -0.610675
O94   O     O_R   0.817750 0.134189 0.254238 -0.814051
H79   H     H_    0.847766 0.117467 0.355926 0.368073
C104  C     C_2   0.734333 0.822521 0.833504 1.109658
O95   O     O_2   0.731225 0.780937 0.922226 -0.565485
O96   O     O_R   0.773792 0.870745 0.892179 -0.682635
H80   H     H_    0.806550 0.862294 0.998236 0.369023
C105  C     C_2   0.929553 0.395372 0.331338 1.070357
O97   O     O_2   0.984878 0.381607 0.318727 -0.681093
O98   O     O_R   0.920515 0.442396 0.422867 -0.738424
H81   H     H_    0.964915 0.454511 0.491519 0.391787
C106  C     C_2   0.919536 0.596757 0.843135 1.110651
O99   O     O_2   0.902671 0.556854 0.918795 -0.532499
O100  O     O_R   0.984143 0.602591 0.825369 -0.821709
H82   H     H_    0.009424 0.565762 0.856560 0.342562
C107  C     C_2   0.428869 0.894633 0.330232 1.074808
O101  O     O_2   0.483656 0.879416 0.317558 -0.687624
O102  O     O_R   0.420931 0.942094 0.421744 -0.722445
H83   H     H_    0.465518 0.954083 0.489549 0.388224
C108  C     C_2   0.419338 0.096850 0.842252 1.092647
O103  O     O_2   0.403753 0.057345 0.921212 -0.558490
O104  O     O_R   0.483699 0.103236 0.822992 -0.817401
H84   H     H_    0.509491 0.066749 0.856268 0.343394
H85   H     H_    0.033917 0.157885 0.618468 0.266020
H86   H     H_    0.035690 0.847533 0.093172 0.268754
H87   H     H_    0.522046 0.659586 0.526755 0.270222
H88   H     H_    0.554108 0.324777 0.248842 0.265446
H89   H     H_    0.953778 0.279920 0.171321 0.093615
H90   H     H_    0.940265 0.738020 0.536076 0.142499
H91   H     H_    0.446620 0.760697 0.018523 0.149516
H92   H     H_    0.447116 0.243697 0.493378 0.158076
C109  C     C_2   0.927521 0.162979 0.075275 1.290276
O105  O     O_2   0.943602 0.114351 0.041566 -0.584844
O106  O     O_R   0.879868 0.193622 0.962635 -0.769425
H93   H     H_    0.868813 0.232713 0.002972 0.293243
C110  C     C_2   0.959433 0.859729 0.514297 1.233093
O107  O     O_2   0.990653 0.905659 0.530371 -0.581327
O108  O     O_R   0.921984 0.842878 0.362009 -0.766042
H94   H     H_    0.925038 0.872117 0.274054 0.320457
C111  C     C_2   0.462788 0.641044 0.978396 1.199625
O109  O     O_2   0.498093 0.598181 0.983285 -0.601900
O110  O     O_R   0.420196 0.658213 0.832796 -0.756103
H95   H     H_    0.423724 0.632193 0.739074 0.335914
C112  C     C_2   0.467902 0.362217 0.466271 1.230883
O111  O     O_2   0.506796 0.402978 0.469497 -0.566608
O112  O     O_R   0.421413 0.348445 0.323324 -0.767488
H96   H     H_    0.426158 0.374222 0.229286 0.333553
H97   H     H_    0.995619 0.158286 0.308756 0.236996
H98   H     H_    0.997802 0.838892 0.765947 0.219159
H99   H     H_    0.499607 0.654754 0.234056 0.217627
H100  H     H_    0.508387 0.345252 0.718286 0.237568
H101  H     H_    0.175629 0.472158 0.384736 0.079252
H102  H     H_    0.174939 0.533574 0.876543 0.074166
H103  H     H_    0.671679 0.962219 0.342717 0.033282
H104  H     H_    0.676833 0.057921 0.711064 0.096873

loop_
_geom_bond_atom_site_label_1
_geom_bond_atom_site_label_2
_geom_bond_distance
_ccdc_geom_bond_type
O6    Ba1   2.875312 S    
C104  O96   1.391499 S    
O92   H78   1.010906 S    
P6    O26   1.553615 D    
C10   C110  1.501521 S    
C112  O111  1.222866 D    
C111  O109  1.222744 D    
C9    C109  1.499682 S    
C1    C29   1.518934 S    
C27   H11   1.103517 S    
C68   C72   1.426574 A    
P11   C40   1.867731 S    
P4    C68   1.918620 S    
C11   C111  1.499822 S    
C51   C103  1.455816 S    
C68   C80   1.393387 A    
C87   O62   1.393229 S    
C69   C73   1.445976 A    
C66   C70   1.417439 A    
C21   C89   1.511881 S    
C72   C76   1.452264 A    
C19   H23   1.101955 S    
P2    O18   1.753131 S    
O26   Ba2   2.888433 S    
C71   C75   1.446719 A    
C64   C80   1.383816 A    
C48   C74   1.583917 S    
O15   P16   1.547629 D    
C58   C74   1.431466 A    
C81   O50   1.395262 S    
O62   H31   1.013551 S    
C33   C53   1.389110 A    
P1    Ba1   3.448456 S    
C20   C84   1.510560 S    
C50   C54   1.435475 A    
C62   C78   1.384408 A    
O22   P13   1.751382 S    
C13   C17   1.552248 S    
C83   O54   1.392708 S    
P5    O46   1.615486 S    
C24   H40   1.103863 S    
P7    O48   1.615486 S    
C41   C97   1.473660 S    
C91   O69   1.223287 D    
P7    O39   1.755423 S    
O11   P16   1.783713 S    
O54   H27   1.013411 S    
C93   O73   1.222718 D    
C65   C77   1.385057 A    
O50   H25   1.013911 S    
C3    H55   1.109243 S    
C17   C85   1.510771 S    
C80   C108  1.424398 S    
C60   C76   1.428065 A    
Ba3   O47   2.871660 S    
C61   C77   1.389335 A    
C7    C11   1.525298 S    
P6    O38   1.750966 S    
C98   O84   1.392574 S    
P8    O28   1.553615 D    
C31   H19   1.112051 S    
P9    O29   1.734946 S    
P8    C55   1.914121 S    
P11   O31   1.728226 S    
P12   O32   1.737471 S    
C89   O65   1.222570 D    
C57   C73   1.431908 A    
C12   C112  1.501049 S    
O9    P14   1.787413 S    
O41   C5    1.406940 S    
C39   C43   1.413225 A    
O43   C7    1.406062 S    
C17   H21   1.107889 S    
O44   C8    1.407174 S    
C49   C101  1.483068 S    
C23   C91   1.505742 S    
O23   P16   1.753869 S    
C95   O77   1.222950 D    
C35   H15   1.069199 S    
C24   C92   1.516597 S    
C47   C51   1.455991 A    
P3    O7    1.602865 S    
C33   H13   1.066188 S    
O60   H30   1.013707 S    
C45   C49   1.459671 A    
O106  H93   1.008118 S    
P12   C39   1.862673 S    
C101  O90   1.394948 S    
C86   O59   1.221359 D    
O9    Ba1   2.852372 S    
C46   C50   1.463524 A    
C15   H7    1.108412 S    
P9    O41   1.747016 S    
O84   H70   1.012872 S    
C17   C81   1.496037 S    
P11   O35   1.531124 D    
P3    C67   1.912096 S    
P12   O44   1.749125 S    
C59   H67   1.076767 S    
P1    C65   1.906054 S    
C84   O55   1.218696 D    
Ba1   Ba2   4.674464 S    
P8    Ba4   3.450188 S    
Ba2   O45   2.979184 S    
C6    C10   1.527393 S    
C16   H104  1.110100 S    
C11   H99   1.107692 S    
C28   H44   1.105510 S    
C2    H86   1.109593 S    
C21   H37   1.109363 S    
C108  O104  1.379390 S    
C11   H63   1.100389 S    
C10   H98   1.110797 S    
C24   C28   1.534127 S    
C19   C83   1.492889 S    
C96   O79   1.222157 D    
C27   C95   1.506317 S    
C109  O106  1.392923 S    
P5    Ba1   3.459466 S    
C18   C86   1.505761 S    
C42   C98   1.468911 S    
P10   C37   1.876378 S    
P7    Ba3   3.459466 S    
O10   P13   1.771374 S    
C106  O100  1.378938 S    
C25   H41   1.112147 S    
P7    O27   1.548638 D    
C94   O75   1.222069 D    
O21   C29   1.401491 S    
O1    Ba1   2.885711 S    
C29   H49   1.112548 S    
O40   C15   1.392160 S    
C100  O87   1.223554 D    
O110  H95   1.013288 S    
C88   O64   1.395433 S    
C85   O57   1.222437 D    
O20   C24   1.401764 S    
Ba4   O48   2.874480 S    
C90   O67   1.219753 D    
C27   H43   1.106246 S    
C107  O102  1.373469 S    
C6    H2    1.113953 S    
C72   H76   1.070434 S    
O10   Ba2   2.844010 S    
P13   C62   1.880106 S    
C92   O71   1.216188 D    
C36   C40   1.386396 A    
O4    Ba4   2.900265 S    
O31   Ba3   2.843904 S    
C67   C71   1.419377 A    
C41   C45   1.440947 A    
C103  O93   1.214065 D    
C5    H1    1.111824 S    
C43   C47   1.439797 A    
C59   C75   1.430654 A    
C52   C56   1.439796 A    
C2    H58   1.108243 S    
C102  O91   1.220907 D    
C34   C54   1.386523 A    
C97   O82   1.397431 S    
C33   C37   1.386118 A    
C106  O99   1.209977 D    
C35   C39   1.388241 A    
C19   C87   1.508640 S    
Ba2   O46   2.874480 S    
C25   H9    1.101831 S    
C9    H61   1.106376 S    
O58   H29   1.013596 S    
C90   O68   1.395940 S    
C69   H73   1.068589 S    
C16   H8    1.101183 S    
C20   H24   1.112693 S    
C22   C90   1.517120 S    
O82   H69   1.013255 S    
C66   C78   1.390631 A    
O2    Ba2   2.900265 S    
C88   O63   1.222470 D    
C3    H59   1.107667 S    
C100  O88   1.392302 S    
C91   O70   1.390770 S    
O13   P14   1.548103 D    
C35   C55   1.385045 A    
C28   H12   1.103305 S    
C50   C102  1.465115 S    
C12   H100  1.108707 S    
O19   C23   1.399571 S    
C21   C25   1.536833 S    
C87   O61   1.222604 D    
C7    H91   1.112441 S    
C28   C96   1.505801 S    
P10   O30   1.744390 S    
C23   C27   1.540573 S    
C31   H51   1.112323 S    
C60   H68   1.064740 S    
C3    C31   1.515815 S    
Ba1   O46   2.974423 S    
C43   C99   1.466608 S    
C57   H65   1.072440 S    
C20   C88   1.528391 S    
O42   C6    1.408842 S    
Ba3   Ba4   4.674464 S    
O78   H47   1.013744 S    
O102  H83   1.001133 S    
C16   C20   1.555432 S    
O17   C21   1.408529 S    
C83   O53   1.219889 D    
O24   C32   1.407722 S    
C2    C30   1.517981 S    
P8    O47   1.609303 S    
P1    O1    1.553799 D    
P3    O3    1.553799 D    
P4    O20   1.752852 S    
C34   H14   1.077077 S    
C26   H10   1.102139 S    
C25   C93   1.499886 S    
O80   H48   1.013768 S    
C110  O107  1.221803 D    
C13   H5    1.111309 S    
O12   P15   1.768198 S    
P10   O42   1.746205 S    
P5    C54   1.899657 S    
C13   H101  1.109071 S    
O3    Ba3   2.885711 S    
C58   H66   1.068708 S    
O76   H46   1.013602 S    
O32   Ba4   2.852332 S    
P4    O8    1.608957 S    
C44   C48   1.440753 A    
C111  O110  1.396030 S    
O104  H84   0.999074 S    
C98   O83   1.221000 D    
C14   C18   1.548089 S    
C112  O112  1.395682 S    
O21   P14   1.750780 S    
C22   C26   1.535277 S    
C105  O98   1.371584 S    
P6    O45   1.609303 S    
O66   H33   1.011993 S    
C5    H89   1.107329 S    
P1    O5    1.602865 S    
C58   C62   1.397152 A    
O94   H79   1.013380 S    
C81   O49   1.219417 D    
O100  H82   0.998168 S    
O96   H80   1.010588 S    
C101  O89   1.213523 D    
P8    O40   1.746501 S    
O38   C13   1.395646 S    
P9    O33   1.540704 D    
O112  H96   1.013375 S    
P11   O43   1.747636 S    
C4    H60   1.106534 S    
O18   C22   1.408675 S    
C29   H17   1.106661 S    
P4    Ba4   3.457462 S    
P2    C66   1.910726 S    
C23   H39   1.102195 S    
C8    H4    1.112262 S    
O72   H36   1.007518 S    
P14   C61   1.883277 S    
C57   C61   1.409015 A    
C4    C32   1.517532 S    
C105  O97   1.213447 D    
C60   C64   1.392337 A    
C44   C100  1.465737 S    
C26   C94   1.502258 S    
C63   C79   1.390230 A    
C36   C56   1.387031 A    
O52   H26   1.014141 S    
C15   H103  1.104202 S    
P5    O25   1.548638 D    
O88   H72   1.012167 S    
O56   H28   1.013189 S    
C93   O74   1.394397 S    
O108  H94   1.013638 S    
C15   C19   1.541995 S    
C108  O103  1.209565 D    
C38   C42   1.420249 A    
C18   C82   1.498077 S    
O70   H35   1.011471 S    
C109  O105  1.220648 D    
C84   O56   1.399717 S    
C26   H42   1.111818 S    
Ba3   O48   2.974423 S    
C10   H62   1.107227 S    
C82   O51   1.215661 D    
C14   H6    1.110319 S    
O12   Ba4   2.844010 S    
P15   C64   1.876850 S    
P16   C63   1.889557 S    
C65   C69   1.416636 A    
O64   H32   1.014140 S    
C18   H22   1.107476 S    
P1    O17   1.755563 S    
C104  O95   1.223060 D    
P3    O19   1.750635 S    
P4    O4    1.548821 D    
C67   C79   1.389497 A    
C47   C73   1.567291 S    
C107  O101  1.212409 D    
C22   H38   1.109992 S    
C51   C55   1.429944 A    
P6    Ba2   3.450188 S    
O24   P15   1.745403 S    
C32   H20   1.113428 S    
C9    H97   1.108096 S    
C85   O58   1.393538 S    
C70   H74   1.062575 S    
C37   C41   1.417099 A    
C99   O86   1.398629 S    
C40   C44   1.413818 A    
P9    C38   1.865459 S    
O68   H34   1.008597 S    
C86   O60   1.397401 S    
C97   O81   1.219317 D    
O22   C30   1.405189 S    
O16   P15   1.546270 D    
C14   H102  1.108070 S    
O98   H81   1.001563 S    
P2    O2    1.548821 D    
C59   C63   1.405721 A    
C48   C52   1.466325 A    
P5    O37   1.750558 S    
C7    H3    1.113243 S    
C52   C104  1.462407 S    
P3    Ba3   3.448456 S    
P6    C53   1.908674 S    
C82   O52   1.390343 S    
P12   O36   1.542504 D    
C2    H54   1.110233 S    
C96   O80   1.396065 S    
C1    H53   1.110786 S    
C42   C46   1.434452 A    
O29   Ba1   2.843904 S    
C71   H75   1.073882 S    
O5    Ba2   2.872514 S    
O7    Ba4   2.872514 S    
C99   O85   1.218929 D    
C110  O108  1.397156 S    
C94   O76   1.397501 S    
C34   C38   1.386746 A    
O39   C16   1.395432 S    
C8    H92   1.112078 S    
O86   H71   1.010539 S    
C12   H64   1.106773 S    
C95   O78   1.395795 S    
O90   H77   1.014100 S    
C49   C53   1.437871 A    
P2    O6    1.608957 S    
Ba4   O47   2.979184 S    
Ba1   O45   2.871660 S    
O11   Ba3   2.852372 S    
C5    C9    1.522310 S    
C32   H52   1.107383 S    
O8    Ba3   2.875312 S    
C36   H16   1.075053 S    
C77   C105  1.428089 S    
P7    C56   1.914739 S    
P10   O34   1.547301 D    
C92   O72   1.395869 S    
O25   Ba1   2.903192 S    
C4    H56   1.105112 S    
O27   Ba3   2.903192 S    
O14   P13   1.548372 D    
C103  O94   1.393345 S    
C79   C107  1.422731 S    
C30   H18   1.109857 S    
C30   H50   1.111455 S    
C102  O92   1.395422 S    
C78   C106  1.421786 S    
P2    Ba2   3.457462 S    
C8    C12   1.527686 S    
C1    H57   1.109555 S    
C1    H85   1.109028 S    
C6    H90   1.112297 S    
O23   C31   1.407999 S    
C3    H87   1.109213 S    
C4    H88   1.109627 S    
C70   C74   1.446432 A    
O74   H45   1.012910 S    
O28   Ba4   2.888433 S    
C89   O66   1.398719 S    
C45   C75   1.560744 S    
O30   Ba2   2.852332 S    
O37   C14   1.397396 S    
C46   C76   1.580842 S    
