data_mof_unit_22241.cif
_audit_creation_date              2012-10-26T19:21:06-0400
_audit_creation_method            fapswitch 2.2
_symmetry_space_group_name_H-M    P1
_symmetry_Int_Tables_number       1
_space_group_crystal_system       triclinic
_cell_length_a                    9.818264
_cell_length_b                    11.005949
_cell_length_c                    13.410885
_cell_angle_alpha                 94.109428
_cell_angle_beta                  81.651403
_cell_angle_gamma                 111.005006
_cell_volume                      1338.23401927

loop_
_atom_site_label
_atom_site_type_symbol
_atom_type_description
_atom_site_fract_x
_atom_site_fract_y
_atom_site_fract_z
_atom_type_partial_charge
C1    C     C_R   0.557104 0.745651 0.504881 0.572492
C2    C     C_R   0.375506 0.484147 0.799912 0.012887
C3    C     C_2   0.591999 0.885128 0.498888 -0.119938
C4    C     C_R   0.423295 0.492821 0.690668 0.593762
C5    C     C_2   0.497821 0.930706 0.465687 -0.165578
C6    C     C_2   0.418935 0.115459 0.480818 -0.050244
C7    C     C_2   0.530722 0.070868 0.459280 0.213909
C8    C     C_2   0.920809 0.489450 0.490484 0.046482
C9    C     C_2   0.074940 0.508765 0.507546 0.114040
C10   C     C_R   0.445569 0.254651 0.489615 0.579308
C11   C     C_R   0.579269 0.519377 0.310098 0.526705
C12   C     C_R   0.439733 0.500123 0.971465 -0.003363
C13   C     C_R   0.793708 0.692199 0.071105 -0.062170
C14   C     C_R   0.628878 0.554313 0.203750 0.003473
C15   C     C_R   0.233687 0.398649 0.833197 -0.145305
C16   C     C_R   0.193120 0.366296 0.933958 -0.129261
C17   C     C_R   0.295136 0.413474 0.002122 -0.102066
C18   C     C_R   0.475074 0.544970 0.870829 0.034208
C19   C     C_R   0.549203 0.546051 0.037975 0.002928
C20   C     C_R   0.686177 0.643393 0.005863 -0.061184
C21   C     C_R   0.712199 0.696309 0.910686 -0.095615
C22   C     C_R   0.607426 0.650504 0.844722 0.375791
C23   C     C_R   0.526667 0.498647 0.135740 -0.140506
C24   C     C_R   0.764591 0.653025 0.170933 0.239512
Cu1   Cu    Cu3+1 0.362000 0.479240 0.482530 0.983273
Cu2   Cu    Cu3+1 0.638000 0.520760 0.517470 1.034378
F1    F     F_    0.631904 0.717736 0.758931 -0.630279
H1    H     H_    0.390977 0.864847 0.448145 0.137706
H2    H     H_    0.155412 0.352755 0.780484 0.138104
H3    H     H_    0.255865 0.382626 0.078702 0.123749
H4    H     H_    0.083180 0.300263 0.958843 0.133759
H5    H     H_    0.816348 0.729711 0.300764 0.338716
H6    H     H_    0.170070 0.327792 0.354218 0.365146
H7    H     H_    0.735195 0.105059 0.403886 0.333441
H8    H     H_    0.306116 0.048156 0.495068 0.056002
H9    H     H_    0.696655 0.950612 0.520085 0.137757
H10   H     H_    0.122590 0.577460 0.566222 0.086683
H11   H     H_    0.870311 0.421602 0.432300 0.234152
H12   H     H_    0.895111 0.616652 0.598399 0.214644
H13   H     H_    0.813311 0.776067 0.887812 0.134981
H14   H     H_    0.897653 0.767843 0.046465 0.141291
H15   H     H_    0.428186 0.419569 0.162313 0.124403
N1    N     N_2   0.845330 0.551960 0.543750 -0.376382
N2    N     N_2   0.154690 0.448120 0.456210 -0.071818
O1    O     O_R   0.426290 0.668220 0.490680 -0.513284
O2    O     O_3   0.093819 0.363766 0.383865 -0.626703
O3    O     O_3   0.673114 0.155899 0.433021 -0.668382
O4    O     O_R   0.659360 0.703290 0.520190 -0.461170
O5    O     O_R   0.326580 0.473880 0.629020 -0.524084
O6    O     O_R   0.559660 0.508940 0.658530 -0.437394
O7    O     O_R   0.340640 0.296710 0.479810 -0.517753
O8    O     O_R   0.573710 0.331780 0.509320 -0.437820
O9    O     O_R   0.440340 0.491060 0.341470 -0.512214
O10   O     O_R   0.673420 0.526120 0.370980 -0.494427
O11   O     O_3   0.868188 0.718131 0.233869 -0.686740

loop_
_geom_bond_atom_site_label_1
_geom_bond_atom_site_label_2
_ccdc_geom_bond_type
C12   C17   A    
C6    C10   S    
C2    C4    S    
Cu1   O7    S    
C1    O4    A    
C6    C7    D    
C17   H3    S    
Cu2   O8    S    
C2    C18   A    
C5    H1    S    
C4    O6    A    
H5    O11   S    
C19   C23   A    
C19   C20   A    
C11   O9    A    
C8    N1    D    
Cu2   O4    S    
C4    O5    A    
C3    C5    D    
C10   O8    A    
C13   H14   S    
C21   C22   A    
C20   C21   A    
C24   O11   S    
C2    C15   A    
C21   H13   S    
C1    O1    A    
C11   O10   A    
C8    H11   S    
C3    H9    S    
C10   O7    A    
Cu2   O10   S    
Cu1   N2    S    
C9    H10   S    
C14   C23   A    
N2    O2    S    
Cu2   N1    S    
C15   H2    S    
C22   F1    S    
Cu2   O6    S    
C11   C14   S    
Cu1   O5    S    
C14   C24   A    
C15   C16   A    
Cu1   O1    S    
C6    H8    S    
C12   C19   A    
C12   C18   A    
C5    C7    S    
C16   C17   A    
C9    N2    D    
H12   N1    S    
H7    O3    S    
C13   C20   A    
C1    C3    S    
Cu1   Cu2   S    
C18   C22   A    
Cu1   O9    S    
C23   H15   S    
C13   C24   A    
H6    O2    S    
C8    C9    S    
C16   H4    S    
C7    O3    S    
