data_mof_unit_61801.cif
_audit_creation_date              2012-12-10T19:20:40-0500
_audit_creation_method            fapswitch 2.2
_symmetry_space_group_name_H-M    P1
_symmetry_Int_Tables_number       1
_space_group_crystal_system       triclinic
_cell_length_a                    38.725916
_cell_length_b                    38.72618
_cell_length_c                    18.255441
_cell_angle_alpha                 89.960808
_cell_angle_beta                  90.038637
_cell_angle_gamma                 87.862751
_cell_volume                      27358.7506769

loop_
_atom_site_label
_atom_site_type_symbol
_atom_type_description
_atom_site_fract_x
_atom_site_fract_y
_atom_site_fract_z
_atom_type_partial_charge
C1    C     C_R   0.567193 0.999351 0.499701 0.842868
C2    C     C_R   0.985247 0.714475 0.501294 0.077366
C3    C     C_R   0.986037 0.124907 0.447494 -0.356410
C4    C     C_R   0.124907 0.986032 0.552495 -0.356422
C5    C     C_R   0.973387 0.880650 0.548458 -0.293705
C6    C     C_R   0.875094 0.013989 0.552225 -0.356419
C7    C     C_R   0.026623 0.119343 0.548342 -0.293551
C8    C     C_R   0.381278 0.472709 0.949122 -0.292104
C9    C     C_R   0.511201 0.374639 0.946767 -0.301745
C10   C     C_R   0.619338 0.526642 0.951683 -0.292726
C11   C     C_R   0.485970 0.624913 0.947604 -0.357222
C12   C     C_R   0.624916 0.485992 0.052411 -0.357207
C13   C     C_R   0.285523 0.014723 0.498977 0.077460
C14   C     C_R   0.472701 0.381273 0.050819 -0.292097
C15   C     C_R   0.374635 0.511144 0.053280 -0.301913
C16   C     C_R   0.526642 0.619340 0.048294 -0.292785
C17   C     C_R   0.845450 0.967720 0.454566 0.451533
C18   C     C_R   0.009823 0.839049 0.445295 0.492425
C19   C     C_R   0.154540 0.032306 0.454788 0.451537
C20   C     C_R   0.990232 0.160948 0.444893 0.492306
C21   C     C_R   0.160949 0.990227 0.555096 0.492320
C22   C     C_R   0.967716 0.845450 0.545418 0.451543
C23   C     C_R   0.839050 0.009804 0.554730 0.492407
C24   C     C_R   0.014721 0.285523 0.501026 0.077456
C25   C     C_R   0.032300 0.154541 0.545223 0.451532
C26   C     C_R   0.346234 0.465910 0.951543 0.471562
C27   C     C_R   0.506580 0.339097 0.946638 0.463857
C28   C     C_R   0.654540 0.532305 0.954771 0.451470
C29   C     C_R   0.490135 0.660960 0.945049 0.492490
C30   C     C_R   0.660962 0.490165 0.054965 0.492479
C31   C     C_R   0.465917 0.346227 0.048385 0.471627
C32   C     C_R   0.339095 0.506507 0.053403 0.463809
C33   C     C_R   0.532299 0.654543 0.045199 0.451430
C34   C     C_R   0.824499 0.986694 0.504479 -0.063726
C35   C     C_R   0.214545 0.483906 0.997280 0.080770
C36   C     C_R   0.986701 0.824499 0.495524 -0.063725
C37   C     C_R   0.175496 0.013329 0.504802 -0.063789
C38   C     C_R   0.013329 0.175497 0.495200 -0.063781
C39   C     C_R   0.324676 0.483640 0.002416 -0.092711
C40   C     C_R   0.483683 0.324673 0.997558 -0.092743
C41   C     C_R   0.675503 0.513293 0.004712 -0.063748
C42   C     C_R   0.513274 0.675504 0.995275 -0.063747
C43   C     C_R   0.895445 0.996131 0.500519 -0.148510
C44   C     C_R   0.996133 0.895445 0.499483 -0.148500
C45   C     C_R   0.104553 0.003882 0.500671 -0.148546
C46   C     C_R   0.483925 0.214544 0.002670 0.080743
C47   C     C_R   0.003881 0.104553 0.499328 -0.148547
C48   C     C_R   0.395523 0.495050 0.000056 -0.173724
C49   C     C_R   0.495065 0.395524 0.999941 -0.173760
C50   C     C_R   0.604553 0.503878 0.000657 -0.147721
C51   C     C_R   0.503872 0.604553 0.999340 -0.147677
C52   C     C_R   0.768303 0.972299 0.563256 0.237705
C53   C     C_R   0.995037 0.768796 0.562125 0.225883
C54   C     C_R   0.231744 0.027699 0.563516 0.237634
C55   C     C_R   0.004890 0.231147 0.561737 0.225882
C56   C     C_R   0.231147 0.004900 0.438260 0.225879
C57   C     C_R   0.785525 0.514714 0.998906 0.077317
C58   C     C_R   0.972318 0.768305 0.436732 0.237697
C59   C     C_R   0.768797 0.995046 0.437885 0.225887
C60   C     C_R   0.027704 0.231745 0.436492 0.237637
C61   C     C_R   0.268280 0.470281 0.061657 0.231122
C62   C     C_R   0.490908 0.268987 0.065399 0.212990
C63   C     C_R   0.731746 0.527632 0.063473 0.237676
C64   C     C_R   0.504929 0.731159 0.061853 0.225682
C65   C     C_R   0.731157 0.504930 0.938135 0.225649
C66   C     C_R   0.470353 0.268284 0.938265 0.231048
C67   C     C_R   0.268992 0.490905 0.934572 0.212996
C68   C     C_R   0.514702 0.785525 0.001066 0.077323
C69   C     C_R   0.527593 0.731746 0.936482 0.237667
C70   C     C_R   0.732190 0.973610 0.561334 -0.283955
C71   C     C_R   0.995065 0.732815 0.563299 -0.284571
C72   C     C_R   0.267857 0.026388 0.561566 -0.283882
C73   C     C_R   0.004845 0.267127 0.562937 -0.284469
C74   C     C_R   0.267127 0.004854 0.437061 -0.284468
C75   C     C_R   0.973628 0.732191 0.438653 -0.283954
C76   C     C_R   0.732815 0.995074 0.436708 -0.284573
C77   C     C_R   0.026392 0.267858 0.438443 -0.283882
C78   C     C_R   0.232173 0.472687 0.060304 -0.295642
C79   C     C_R   0.786765 0.983803 0.501488 0.116278
C80   C     C_R   0.492034 0.232966 0.065728 -0.290989
C81   C     C_R   0.767859 0.526318 0.061537 -0.283969
C82   C     C_R   0.504905 0.767138 0.063046 -0.284555
C83   C     C_R   0.767137 0.504901 0.936939 -0.284526
C84   C     C_R   0.472745 0.232176 0.939621 -0.295499
C85   C     C_R   0.232970 0.492041 0.934242 -0.290955
C86   C     C_R   0.526285 0.767858 0.938419 -0.283975
C87   C     C_3   0.834770 0.911177 0.433074 0.044063
C88   C     C_3   0.832361 0.885539 0.369920 -0.293589
C89   C     C_3   0.835979 0.848300 0.397156 -0.995566
C90   C     C_R   0.983809 0.786766 0.498512 0.116259
C91   C     C_3   0.042997 0.831058 0.336266 0.103152
C92   C     C_3   0.014881 0.842616 0.280997 -0.358517
C93   C     C_3   0.030766 0.857972 0.212423 -0.966157
C94   C     C_3   0.165249 0.088848 0.433241 0.044036
C95   C     C_3   0.167585 0.114511 0.370049 -0.293687
C96   C     C_3   0.164000 0.151739 0.397249 -0.995220
C97   C     C_3   0.957176 0.168944 0.335599 0.103224
C98   C     C_3   0.985372 0.157405 0.280607 -0.358608
C99   C     C_3   0.969585 0.142066 0.211908 -0.966110
C100  C     C_3   0.168946 0.957155 0.664369 0.103219
C101  C     C_R   0.213231 0.016183 0.501812 0.116375
C102  C     C_3   0.157406 0.985341 0.719381 -0.358602
C103  C     C_3   0.142067 0.969542 0.788068 -0.966112
C104  C     C_3   0.911169 0.834761 0.566846 0.044080
C105  C     C_3   0.885515 0.832383 0.629979 -0.293593
C106  C     C_3   0.848282 0.835988 0.602698 -0.995588
C107  C     C_3   0.831062 0.042942 0.663807 0.103165
C108  C     C_3   0.842621 0.014806 0.719029 -0.358531
C109  C     C_3   0.857979 0.030666 0.787629 -0.966158
C110  C     C_3   0.088840 0.165243 0.566810 0.044033
C111  C     C_3   0.114493 0.167592 0.630019 -0.293682
C112  C     C_R   0.999351 0.567193 0.500299 0.842876
C113  C     C_R   0.016181 0.213231 0.498191 0.116393
C114  C     C_3   0.151726 0.163996 0.602850 -0.995215
C115  C     C_3   0.334827 0.409543 0.930864 0.047156
C116  C     C_3   0.332541 0.383344 0.868728 -0.293725
C117  C     C_3   0.334330 0.346361 0.897843 -0.996329
C118  C     C_3   0.555147 0.306488 0.921290 0.055553
C119  C     C_3   0.573261 0.284372 0.862579 -0.301207
C120  C     C_3   0.607863 0.269253 0.889960 -0.975851
C121  C     C_3   0.665201 0.588861 0.933225 0.044017
C122  C     C_3   0.667515 0.614516 0.870012 -0.293302
C123  C     C_3   0.663885 0.651747 0.897173 -0.995614
C124  C     C_R   0.286939 0.480456 0.998971 0.074198
C125  C     C_3   0.456917 0.668975 0.835974 0.102579
C126  C     C_3   0.485023 0.657456 0.780763 -0.358334
C127  C     C_3   0.469125 0.642124 0.712175 -0.964847
C128  C     C_3   0.668981 0.456986 0.164091 0.102569
C129  C     C_3   0.657460 0.485112 0.219253 -0.358351
C130  C     C_3   0.642133 0.469241 0.287874 -0.964832
C131  C     C_3   0.409544 0.334792 0.068909 0.047165
C132  C     C_3   0.383306 0.332485 0.130970 -0.293726
C133  C     C_3   0.346342 0.334246 0.101750 -0.996356
C134  C     C_3   0.306517 0.555065 0.078982 0.055646
C135  C     C_R   0.480497 0.286937 0.000981 0.073995
C136  C     C_3   0.284206 0.573017 0.137585 -0.301204
C137  C     C_3   0.269169 0.607689 0.110413 -0.975847
C138  C     C_3   0.588856 0.665202 0.066719 0.043976
C139  C     C_3   0.614520 0.667655 0.129882 -0.293273
C140  C     C_3   0.651748 0.664015 0.102703 -0.995589
C141  C     C_3   0.804128 0.928757 0.626363 -0.852584
C142  C     C_3   0.043704 0.794671 0.619989 -0.773591
C143  C     C_3   0.195981 0.071260 0.626489 -0.852582
C144  C     C_3   0.956193 0.205205 0.619275 -0.773579
C145  C     C_3   0.205205 0.956210 0.380696 -0.773579
C146  C     C_R   0.713237 0.516157 0.001726 0.116375
C147  C     C_3   0.928787 0.804126 0.373587 -0.852584
C148  C     C_3   0.794673 0.043725 0.380072 -0.773594
C149  C     C_3   0.071273 0.195981 0.373544 -0.852568
C150  C     C_3   0.303171 0.426164 0.125070 -0.803689
C151  C     C_3   0.536283 0.297364 0.130708 -0.807558
C152  C     C_3   0.695993 0.571169 0.126527 -0.852366
C153  C     C_3   0.456285 0.705234 0.119628 -0.772428
C154  C     C_3   0.705230 0.456272 0.880421 -0.772415
C155  C     C_3   0.426283 0.303181 0.874727 -0.803739
C156  C     C_3   0.297395 0.536289 0.869342 -0.807467
C157  C     C_R   0.516136 0.713238 0.998248 0.116389
C158  C     C_3   0.571099 0.695981 0.873354 -0.852309
C159  C     C_3   0.618901 0.951879 0.315775 -0.789435
C160  C     C_3   0.042471 0.624862 0.323398 -0.787172
C161  C     C_3   0.380781 0.047032 0.314641 -0.789980
C162  C     C_3   0.958107 0.375396 0.322429 -0.786826
C163  C     C_3   0.375396 0.958088 0.677549 -0.786825
C164  C     C_3   0.951838 0.618900 0.684180 -0.789420
C165  C     C_3   0.624861 0.042436 0.676640 -0.787173
C166  C     C_3   0.047033 0.380781 0.685357 -0.789971
C167  C     C_3   0.118163 0.450333 0.816579 -0.789430
C168  C     C_R   0.657759 0.975718 0.440962 -0.199129
C169  C     C_3   0.544516 0.125902 0.827102 -0.788206
C170  C     C_3   0.880908 0.548248 0.815866 -0.789383
C171  C     C_3   0.457411 0.875340 0.823283 -0.786809
C172  C     C_3   0.875330 0.457473 0.176778 -0.786815
C173  C     C_3   0.450275 0.118179 0.183335 -0.789437
C174  C     C_3   0.125919 0.544456 0.172946 -0.788219
C175  C     C_3   0.548308 0.880899 0.184056 -0.789374
C176  C     C_R   0.006726 0.659858 0.443883 -0.193723
C177  C     C_R   0.342168 0.024120 0.440930 -0.198639
C178  C     C_R   0.993422 0.340226 0.443448 -0.193641
C179  C     C_R   0.340226 0.993420 0.556551 -0.193649
C180  C     C_R   0.432809 0.000648 0.499709 0.842559
C181  C     C_R   0.975710 0.657760 0.559024 -0.199136
C182  C     C_R   0.659858 0.006713 0.556127 -0.193720
C183  C     C_R   0.024116 0.342168 0.559075 -0.198641
C184  C     C_R   0.157520 0.474687 0.940529 -0.198001
C185  C     C_R   0.506896 0.160242 0.945903 -0.197799
C186  C     C_R   0.842180 0.524301 0.941097 -0.199062
C187  C     C_R   0.493217 0.840206 0.943719 -0.193777
C188  C     C_R   0.840203 0.493238 0.056280 -0.193760
C189  C     C_R   0.474672 0.157524 0.059409 -0.198002
C190  C     C_R   0.160248 0.506871 0.054084 -0.197766
C191  C     C_R   0.000648 0.432809 0.500290 0.842559
C192  C     C_R   0.524313 0.842176 0.058863 -0.199070
C193  C     C_R   0.621661 0.980039 0.438899 0.198793
C194  C     C_R   0.010989 0.623710 0.443025 0.191986
C195  C     C_R   0.378261 0.019769 0.438752 0.198921
C196  C     C_R   0.989176 0.376377 0.442645 0.192133
C197  C     C_R   0.376376 0.989173 0.557351 0.192129
C198  C     C_R   0.980029 0.621661 0.561087 0.198793
C199  C     C_R   0.623709 0.010978 0.556986 0.191983
C200  C     C_R   0.019767 0.378261 0.561249 0.198921
C201  C     C_R   0.121447 0.479353 0.938715 0.198984
C202  C     C_R   0.067220 0.499350 0.999711 0.842262
C203  C     C_R   0.511469 0.124099 0.944718 0.193731
C204  C     C_R   0.878277 0.519995 0.938985 0.198737
C205  C     C_R   0.488966 0.876356 0.942920 0.191999
C206  C     C_R   0.876353 0.488984 0.057088 0.191999
C207  C     C_R   0.479335 0.121451 0.061239 0.198980
C208  C     C_R   0.124105 0.511449 0.055281 0.193730
C209  C     C_R   0.520010 0.878273 0.060983 0.198732
C210  C     C_R   0.604823 0.997354 0.497984 -0.175199
C211  C     C_R   0.997354 0.604823 0.502015 -0.175214
C212  C     C_R   0.395180 0.002636 0.498067 -0.174969
C213  C     C_R   0.499350 0.067219 0.000288 0.842268
C214  C     C_R   0.002636 0.395180 0.501932 -0.174970
C215  C     C_R   0.104890 0.497313 0.997323 -0.176701
C216  C     C_R   0.497313 0.104890 0.002661 -0.176716
C217  C     C_R   0.895176 0.502645 0.998047 -0.175159
C218  C     C_R   0.502645 0.895176 0.001945 -0.175176
C219  C     C_R   0.676672 0.988914 0.499022 0.045831
C220  C     C_R   0.988917 0.676672 0.500975 0.045834
C221  C     C_R   0.323331 0.011072 0.499248 0.045741
C222  C     C_R   0.011070 0.323332 0.500754 0.045736
C223  C     C_R   0.176751 0.488268 0.997690 0.046487
C224  C     C_R   0.932808 0.500649 0.999702 0.842941
C225  C     C_R   0.488277 0.176750 0.002266 0.046492
C226  C     C_R   0.823328 0.511063 0.999187 0.045815
C227  C     C_R   0.511056 0.823328 0.000788 0.045829
C228  C     C_R   0.999757 0.932637 0.499966 0.923716
C229  C     C_R   0.067363 0.000244 0.500081 0.923726
C230  C     C_R   0.000245 0.067363 0.499919 0.923726
C231  C     C_R   0.932637 0.999757 0.500034 0.923722
C232  C     C_R   0.499620 0.432616 0.000001 0.924273
C233  C     C_R   0.567363 0.500246 0.000080 0.922091
C234  C     C_R   0.500246 0.567362 0.999920 0.922094
C235  C     C_R   0.500649 0.932807 0.000297 0.842955
C236  C     C_R   0.432615 0.499618 0.999999 0.924260
C237  C     C_R   0.499994 0.999990 0.641111 0.908769
C238  C     C_R   0.000009 0.500006 0.641113 0.904829
C239  C     C_R   0.500006 0.000010 0.358887 0.904822
C240  C     C_R   0.999990 0.499994 0.358888 0.908773
C241  C     C_R   0.999995 0.499990 0.141112 0.909377
C242  C     C_R   0.500009 0.000003 0.141113 0.904814
C243  C     C_R   0.000003 0.500010 0.858887 0.904802
C244  C     C_R   0.499990 0.999995 0.858888 0.909379
C245  C     C_1   0.499978 0.999973 0.717598 -0.194531
C246  C     C_R   0.714475 0.985243 0.498702 0.077363
C247  C     C_1   0.000025 0.500021 0.717599 -0.193853
C248  C     C_1   0.500020 0.000026 0.282401 -0.193843
C249  C     C_1   0.999973 0.499978 0.282402 -0.194533
C250  C     C_1   0.999978 0.499973 0.217598 -0.194628
C251  C     C_1   0.500025 0.000020 0.217599 -0.194190
C252  C     C_1   0.000019 0.500026 0.782401 -0.194183
C253  C     C_1   0.499974 0.999978 0.782402 -0.194633
C254  C     C_R   0.880649 0.973394 0.451525 -0.293720
C255  C     C_R   0.014003 0.875093 0.447796 -0.356434
C256  C     C_R   0.119342 0.026628 0.451667 -0.293533
H1    H     H_    0.896555 0.959251 0.412034 0.173870
H2    H     H_    0.528047 0.385750 0.906419 0.176737
H3    H     H_    0.110559 0.192886 0.658135 0.227081
H4    H     H_    0.109847 0.146675 0.670166 0.224017
H5    H     H_    0.156317 0.138695 0.575242 0.264265
H6    H     H_    0.169721 0.165509 0.650012 0.270303
H7    H     H_    0.157194 0.185115 0.563814 0.271489
H8    H     H_    0.312593 0.406292 0.968417 0.152630
H9    H     H_    0.359478 0.403932 0.961229 0.121648
H10   H     H_    0.307833 0.387875 0.838580 0.227496
H11   H     H_    0.354265 0.386789 0.829944 0.225902
H12   H     H_    0.359032 0.341165 0.927484 0.264563
H13   H     H_    0.603421 0.540809 0.912159 0.173908
H14   H     H_    0.332892 0.327956 0.851434 0.270811
H15   H     H_    0.312397 0.342087 0.935556 0.271894
H16   H     H_    0.551466 0.289989 0.970388 0.146703
H17   H     H_    0.571846 0.328323 0.935702 0.135456
H18   H     H_    0.556481 0.262884 0.846928 0.224747
H19   H     H_    0.577664 0.300428 0.813198 0.226621
H20   H     H_    0.625248 0.290287 0.905095 0.265958
H21   H     H_    0.620382 0.253439 0.846010 0.267177
H22   H     H_    0.603940 0.252475 0.938410 0.266537
H23   H     H_    0.686692 0.593272 0.972103 0.153818
H24   H     H_    0.468513 0.612123 0.911389 0.159141
H25   H     H_    0.640002 0.594011 0.961744 0.121253
H26   H     H_    0.692809 0.610607 0.841880 0.227045
H27   H     H_    0.646599 0.609846 0.829879 0.224151
H28   H     H_    0.638582 0.656314 0.924793 0.264266
H29   H     H_    0.665373 0.669742 0.850006 0.270276
H30   H     H_    0.685003 0.657238 0.936195 0.271415
H31   H     H_    0.440616 0.689552 0.809191 0.164032
H32   H     H_    0.438693 0.648387 0.848850 0.122472
H33   H     H_    0.500114 0.680099 0.764782 0.234407
H34   H     H_    0.503108 0.637788 0.805367 0.227634
H35   H     H_    0.612129 0.468539 0.088642 0.159154
H36   H     H_    0.454401 0.619005 0.726611 0.266712
H37   H     H_    0.489937 0.634247 0.673146 0.269350
H38   H     H_    0.451557 0.661529 0.685030 0.263925
H39   H     H_    0.689561 0.440698 0.190900 0.164037
H40   H     H_    0.648394 0.438756 0.151252 0.122479
H41   H     H_    0.680101 0.500213 0.235200 0.234408
H42   H     H_    0.637789 0.503184 0.194620 0.227635
H43   H     H_    0.619015 0.454507 0.273471 0.266712
H44   H     H_    0.634254 0.490067 0.326866 0.269350
H45   H     H_    0.661541 0.451687 0.315047 0.263923
H46   H     H_    0.459519 0.397546 0.091075 0.179672
H47   H     H_    0.406331 0.312557 0.031342 0.152655
H48   H     H_    0.403936 0.359442 0.038537 0.121643
H49   H     H_    0.387837 0.307780 0.161128 0.227502
H50   H     H_    0.386710 0.354212 0.169766 0.225900
H51   H     H_    0.341145 0.358947 0.072105 0.264562
H52   H     H_    0.327909 0.332791 0.148106 0.270809
H53   H     H_    0.342109 0.312313 0.064015 0.271898
H54   H     H_    0.290164 0.551484 0.029621 0.146399
H55   H     H_    0.328379 0.571816 0.065049 0.135677
H56   H     H_    0.262672 0.556190 0.152691 0.224634
H57   H     H_    0.385741 0.527967 0.093676 0.176723
H58   H     H_    0.300097 0.577290 0.187266 0.226709
H59   H     H_    0.290248 0.625132 0.095901 0.265966
H60   H     H_    0.253177 0.620069 0.154250 0.267166
H61   H     H_    0.252582 0.603899 0.061608 0.266527
H62   H     H_    0.593239 0.686631 0.027668 0.153693
H63   H     H_    0.594023 0.639956 0.038400 0.121373
H64   H     H_    0.610590 0.692996 0.157811 0.227014
H65   H     H_    0.609880 0.646805 0.170190 0.224193
H66   H     H_    0.656336 0.638667 0.075283 0.264306
H67   H     H_    0.669751 0.665608 0.149835 0.270270
H68   H     H_    0.540819 0.603426 0.087807 0.173886
H69   H     H_    0.657208 0.685069 0.063503 0.271415
H70   H     H_    0.770358 0.964285 0.675533 0.222542
H71   H     H_    0.814393 0.922098 0.681617 0.246381
H72   H     H_    0.826509 0.929866 0.588862 0.232618
H73   H     H_    0.786710 0.908181 0.608577 0.243715
H74   H     H_    0.001571 0.775320 0.673449 0.229754
H75   H     H_    0.050846 0.810029 0.668671 0.237970
H76   H     H_    0.048902 0.810143 0.570259 0.255223
H77   H     H_    0.060007 0.770437 0.618908 0.233334
H78   H     H_    0.229781 0.035731 0.675763 0.222600
H79   H     H_    0.717815 0.965708 0.609033 0.142609
H80   H     H_    0.185766 0.077932 0.681730 0.246401
H81   H     H_    0.173564 0.070148 0.589022 0.232587
H82   H     H_    0.213387 0.091828 0.608600 0.243778
H83   H     H_    0.998278 0.224534 0.673015 0.229813
H84   H     H_    0.949023 0.189805 0.667899 0.237999
H85   H     H_    0.951039 0.189771 0.569500 0.255258
H86   H     H_    0.939880 0.229433 0.618111 0.233396
H87   H     H_    0.224533 0.998301 0.326979 0.229813
H88   H     H_    0.189805 0.949045 0.332069 0.237999
H89   H     H_    0.189771 0.951049 0.430469 0.255256
H90   H     H_    0.004538 0.719094 0.611483 0.146334
H91   H     H_    0.229434 0.939898 0.381852 0.233394
H92   H     H_    0.964329 0.770362 0.324447 0.222547
H93   H     H_    0.922141 0.814396 0.318330 0.246385
H94   H     H_    0.929885 0.826505 0.411100 0.232603
H95   H     H_    0.908209 0.786706 0.391345 0.243705
H96   H     H_    0.775322 0.001605 0.326568 0.229755
H97   H     H_    0.810032 0.050878 0.331398 0.237972
H98   H     H_    0.810144 0.048911 0.429808 0.255226
H99   H     H_    0.770439 0.060028 0.381167 0.233334
H100  H     H_    0.035752 0.229783 0.324250 0.222597
H101  H     H_    0.282269 0.034319 0.609208 0.142619
H102  H     H_    0.077954 0.185769 0.318306 0.246396
H103  H     H_    0.070155 0.173563 0.411006 0.232594
H104  H     H_    0.091839 0.213386 0.391450 0.243780
H105  H     H_    0.270454 0.462740 0.174167 0.227682
H106  H     H_    0.313372 0.419371 0.180306 0.246391
H107  H     H_    0.325512 0.426620 0.087313 0.230378
H108  H     H_    0.285189 0.406013 0.107650 0.231336
H109  H     H_    0.494401 0.274377 0.177670 0.231917
H110  H     H_    0.541786 0.310084 0.183725 0.245943
H111  H     H_    0.540787 0.316308 0.086511 0.231529
H112  H     H_    0.031444 0.887888 0.411565 0.159795
H113  H     H_    0.995322 0.280802 0.611069 0.146286
H114  H     H_    0.554279 0.274533 0.124231 0.230473
H115  H     H_    0.729769 0.535598 0.175739 0.222602
H116  H     H_    0.685757 0.577807 0.181767 0.246444
H117  H     H_    0.673593 0.570095 0.089005 0.232564
H118  H     H_    0.713417 0.591740 0.108740 0.243689
H119  H     H_    0.498431 0.724553 0.173165 0.229969
H120  H     H_    0.449159 0.689841 0.168294 0.238948
H121  H     H_    0.451075 0.689797 0.069885 0.254862
H122  H     H_    0.439978 0.729467 0.118526 0.233098
H123  H     H_    0.724548 0.498404 0.826832 0.229972
H124  H     H_    0.280802 0.995336 0.388924 0.146284
H125  H     H_    0.689835 0.449134 0.831766 0.238950
H126  H     H_    0.689794 0.451075 0.930172 0.254865
H127  H     H_    0.729463 0.439965 0.881538 0.233103
H128  H     H_    0.462892 0.270464 0.825734 0.227698
H129  H     H_    0.419532 0.313389 0.819476 0.246404
H130  H     H_    0.426714 0.325517 0.912501 0.230370
H131  H     H_    0.406119 0.285199 0.892069 0.231345
H132  H     H_    0.274377 0.494444 0.822306 0.231896
H133  H     H_    0.310097 0.541813 0.816314 0.245906
H134  H     H_    0.316364 0.540756 0.913510 0.231562
H135  H     H_    0.965736 0.717817 0.390945 0.142609
H136  H     H_    0.274579 0.554298 0.875904 0.230453
H137  H     H_    0.535521 0.729771 0.824203 0.222597
H138  H     H_    0.577720 0.685755 0.818096 0.246424
H139  H     H_    0.570027 0.673572 0.910854 0.232598
H140  H     H_    0.591681 0.713394 0.891134 0.243694
H141  H     H_    0.579975 0.982296 0.365364 0.221224
H142  H     H_    0.599254 0.943681 0.275681 0.241328
H143  H     H_    0.634406 0.928500 0.332570 0.244819
H144  H     H_    0.635538 0.970839 0.288660 0.235527
H145  H     H_    0.017491 0.582864 0.368157 0.223038
H146  H     H_    0.719094 0.004558 0.388533 0.146336
H147  H     H_    0.056002 0.606600 0.285229 0.241421
H148  H     H_    0.061718 0.643080 0.343969 0.246684
H149  H     H_    0.021543 0.638996 0.292804 0.233600
H150  H     H_    0.420020 0.017490 0.365497 0.221313
H151  H     H_    0.400335 0.054943 0.274098 0.241121
H152  H     H_    0.365171 0.070494 0.330373 0.244871
H153  H     H_    0.364227 0.027716 0.288481 0.235847
H154  H     H_    0.982840 0.417361 0.367914 0.222919
H155  H     H_    0.944706 0.393712 0.284083 0.241703
H156  H     H_    0.938797 0.357130 0.342514 0.246657
H157  H     H_    0.034329 0.282270 0.390805 0.142620
H158  H     H_    0.979161 0.361330 0.292186 0.233735
H159  H     H_    0.417357 0.982839 0.632091 0.222917
H160  H     H_    0.393711 0.944683 0.715888 0.241690
H161  H     H_    0.357132 0.938780 0.657445 0.246660
H162  H     H_    0.361325 0.979135 0.707805 0.233731
H163  H     H_    0.982275 0.579978 0.634631 0.221226
H164  H     H_    0.943630 0.599253 0.724263 0.241334
H165  H     H_    0.928462 0.634403 0.667355 0.244820
H166  H     H_    0.970788 0.635539 0.711319 0.235521
H167  H     H_    0.582861 0.017472 0.631853 0.223033
H168  H     H_    0.217733 0.465807 0.108668 0.143365
H169  H     H_    0.606599 0.055961 0.714819 0.241417
H170  H     H_    0.643081 0.061685 0.656089 0.246684
H171  H     H_    0.638992 0.021500 0.707217 0.233603
H172  H     H_    0.017486 0.420018 0.634507 0.221309
H173  H     H_    0.054947 0.400336 0.725896 0.241135
H174  H     H_    0.070494 0.365172 0.669620 0.244872
H175  H     H_    0.027719 0.364227 0.711524 0.235845
H176  H     H_    0.079603 0.481390 0.865631 0.221672
H177  H     H_    0.098356 0.442084 0.776907 0.241368
H178  H     H_    0.133476 0.426915 0.833881 0.244857
H179  H     H_    0.500874 0.219306 0.114493 0.146787
H180  H     H_    0.134934 0.468953 0.788768 0.235528
H181  H     H_    0.518919 0.083670 0.869186 0.223330
H182  H     H_    0.558674 0.107861 0.789453 0.241596
H183  H     H_    0.563370 0.144104 0.849376 0.246103
H184  H     H_    0.523999 0.140100 0.795433 0.233546
H185  H     H_    0.919893 0.517804 0.865390 0.221240
H186  H     H_    0.900513 0.556487 0.775752 0.241304
H187  H     H_    0.865412 0.571609 0.832696 0.244825
H188  H     H_    0.864253 0.529305 0.788763 0.235598
H189  H     H_    0.482434 0.917281 0.868117 0.222991
H190  H     H_    0.782270 0.534204 0.109216 0.142662
H191  H     H_    0.443864 0.893647 0.785141 0.241691
H192  H     H_    0.438169 0.857108 0.843816 0.246665
H193  H     H_    0.478316 0.861231 0.792672 0.233682
H194  H     H_    0.917281 0.482459 0.131887 0.222985
H195  H     H_    0.893635 0.443937 0.214942 0.241704
H196  H     H_    0.857092 0.438229 0.156285 0.246663
H197  H     H_    0.861228 0.478395 0.207352 0.233689
H198  H     H_    0.481349 0.079614 0.134343 0.221682
H199  H     H_    0.442013 0.098375 0.223002 0.241354
H200  H     H_    0.426863 0.133490 0.165993 0.244861
H201  H     H_    0.495455 0.780823 0.111228 0.146422
H202  H     H_    0.468886 0.134952 0.211168 0.235523
H203  H     H_    0.083677 0.518887 0.130823 0.223316
H204  H     H_    0.107881 0.558605 0.210618 0.241601
H205  H     H_    0.144125 0.563312 0.150700 0.246104
H206  H     H_    0.140112 0.523924 0.204583 0.233544
H207  H     H_    0.517838 0.919882 0.134595 0.221244
H208  H     H_    0.556562 0.900502 0.224158 0.241301
H209  H     H_    0.571663 0.865405 0.167179 0.244826
H210  H     H_    0.529377 0.864241 0.211191 0.235588
H211  H     H_    0.780821 0.495436 0.888769 0.146423
H212  H     H_    0.103432 0.040773 0.412097 0.173883
H213  H     H_    0.465887 0.217740 0.891237 0.143356
H214  H     H_    0.219312 0.500907 0.885494 0.146779
H215  H     H_    0.534156 0.782269 0.890728 0.142658
H216  H     H_    0.671653 0.962230 0.397605 0.151761
H217  H     H_    0.017013 0.675367 0.400329 0.154406
H218  H     H_    0.328218 0.037520 0.397456 0.151739
H219  H     H_    0.983244 0.324779 0.399687 0.154329
H220  H     H_    0.324779 0.983241 0.600309 0.154328
H221  H     H_    0.962214 0.671653 0.602371 0.151759
H222  H     H_    0.675367 0.016991 0.599691 0.154408
H223  H     H_    0.968600 0.112118 0.411234 0.159812
H224  H     H_    0.037513 0.328217 0.602551 0.151741
H225  H     H_    0.171140 0.460552 0.897699 0.151821
H226  H     H_    0.517487 0.175972 0.903064 0.151510
H227  H     H_    0.828239 0.537810 0.897754 0.151798
H228  H     H_    0.482896 0.824745 0.900140 0.154394
H229  H     H_    0.824740 0.482931 0.099871 0.154396
H230  H     H_    0.460524 0.171148 0.102215 0.151821
H231  H     H_    0.175982 0.517444 0.096937 0.151486
H232  H     H_    0.537833 0.828233 0.102188 0.151795
H233  H     H_    0.813315 0.906778 0.471999 0.153775
H234  H     H_    0.112119 0.968590 0.588747 0.159805
H235  H     H_    0.859996 0.905998 0.461551 0.121395
H236  H     H_    0.807041 0.889481 0.341827 0.226994
H237  H     H_    0.853241 0.890193 0.329737 0.224018
H238  H     H_    0.861306 0.843700 0.424745 0.264326
H239  H     H_    0.834423 0.830317 0.350031 0.270231
H240  H     H_    0.814894 0.842823 0.436225 0.271432
H241  H     H_    0.059278 0.810483 0.309532 0.164117
H242  H     H_    0.061237 0.851630 0.349148 0.123574
H243  H     H_    0.999775 0.819987 0.265011 0.234353
H244  H     H_    0.996811 0.862279 0.305554 0.227574
H245  H     H_    0.959235 0.896557 0.587934 0.173859
H246  H     H_    0.045505 0.881078 0.226863 0.266849
H247  H     H_    0.009947 0.865876 0.173351 0.269037
H248  H     H_    0.048319 0.838573 0.185325 0.263915
H249  H     H_    0.186752 0.093227 0.472107 0.153907
H250  H     H_    0.140058 0.094022 0.461776 0.121344
H251  H     H_    0.192872 0.110580 0.341903 0.227087
H252  H     H_    0.146658 0.109874 0.329921 0.224011
H253  H     H_    0.138703 0.156330 0.424878 0.264260
H254  H     H_    0.165509 0.169743 0.350101 0.270303
H255  H     H_    0.185126 0.157196 0.436276 0.271488
H256  H     H_    0.887888 0.031423 0.588469 0.159808
H257  H     H_    0.940926 0.189520 0.308678 0.164147
H258  H     H_    0.938927 0.148363 0.348348 0.123558
H259  H     H_    0.000498 0.180039 0.264726 0.234486
H260  H     H_    0.003408 0.137735 0.305359 0.227530
H261  H     H_    0.954828 0.118955 0.226245 0.266827
H262  H     H_    0.990460 0.134173 0.173042 0.269055
H263  H     H_    0.952070 0.161471 0.184618 0.263934
H264  H     H_    0.189522 0.940901 0.691278 0.164147
H265  H     H_    0.148365 0.938907 0.651607 0.123557
H266  H     H_    0.180040 0.000465 0.735272 0.234482
H267  H     H_    0.040762 0.103434 0.587921 0.173886
H268  H     H_    0.137736 0.003380 0.694642 0.227530
H269  H     H_    0.118957 0.954787 0.773721 0.266827
H270  H     H_    0.134175 0.990411 0.826949 0.269055
H271  H     H_    0.161474 0.952024 0.815345 0.263935
H272  H     H_    0.906779 0.813289 0.527958 0.153808
H273  H     H_    0.905997 0.859975 0.538312 0.121365
H274  H     H_    0.889450 0.807076 0.658130 0.227003
H275  H     H_    0.890159 0.853281 0.670122 0.224004
H276  H     H_    0.843689 0.861302 0.575055 0.264316
H277  H     H_    0.830287 0.834453 0.649808 0.270235
H278  H     H_    0.397553 0.459557 0.908829 0.179707
H279  H     H_    0.842815 0.814886 0.563665 0.271434
H280  H     H_    0.810486 0.059213 0.690569 0.164115
H281  H     H_    0.851633 0.061187 0.650955 0.123576
H282  H     H_    0.819993 0.999695 0.734993 0.234365
H283  H     H_    0.862284 0.996746 0.694442 0.227573
H284  H     H_    0.881084 0.045410 0.773212 0.266849
H285  H     H_    0.865885 0.009833 0.826665 0.269036
H286  H     H_    0.838580 0.048208 0.814758 0.263915
H287  H     H_    0.093229 0.186737 0.527926 0.153887
H288  H     H_    0.094018 0.140045 0.538305 0.121356
N1    N     N_2   0.785509 0.961808 0.629219 -0.283720
N2    N     N_2   0.500830 0.286849 0.129888 -0.255875
N3    N     N_2   0.714588 0.538103 0.129423 -0.283722
N4    N     N_2   0.492438 0.713164 0.123913 -0.272438
N5    N     N_2   0.713160 0.492424 0.876092 -0.272465
N6    N     N_2   0.459781 0.285397 0.872225 -0.254334
N7    N     N_2   0.286856 0.500845 0.870099 -0.255863
N8    N     N_2   0.538038 0.714588 0.870514 -0.283707
N9    N     N_2   0.601754 0.967474 0.378689 -0.284217
N10   N     N_2   0.028105 0.605773 0.383650 -0.285894
N11   N     N_2   0.398071 0.032152 0.378226 -0.284436
N12   N     N_2   0.007550 0.786743 0.624212 -0.272481
N13   N     N_2   0.972227 0.394397 0.383068 -0.286202
N14   N     N_2   0.394397 0.972221 0.616924 -0.286196
N15   N     N_2   0.967452 0.601754 0.621286 -0.284213
N16   N     N_2   0.605772 0.028085 0.616372 -0.285901
N17   N     N_2   0.032149 0.398070 0.621776 -0.284443
N18   N     N_2   0.101284 0.466475 0.879213 -0.283557
N19   N     N_2   0.529342 0.106484 0.885913 -0.285773
N20   N     N_2   0.898121 0.532608 0.878749 -0.284305
N21   N     N_2   0.471820 0.894361 0.883571 -0.286106
N22   N     N_2   0.894354 0.471851 0.116458 -0.286124
N23   N     N_2   0.214593 0.038205 0.629452 -0.283726
N24   N     N_2   0.466437 0.101294 0.120730 -0.283543
N25   N     N_2   0.106495 0.529307 0.114113 -0.285789
N26   N     N_2   0.532642 0.898115 0.121205 -0.284293
N27   N     N_2   0.992340 0.213146 0.623732 -0.272603
N28   N     N_2   0.213145 0.992357 0.376259 -0.272603
N29   N     N_2   0.961841 0.785512 0.370761 -0.283710
N30   N     N_2   0.786745 0.007573 0.375812 -0.272482
N31   N     N_2   0.038218 0.214594 0.370563 -0.283733
N32   N     N_2   0.285389 0.459661 0.127670 -0.254306
O1    O     O_R   0.550910 0.028770 0.500030 -0.607101
O2    O     O_R   0.471230 0.050910 0.000030 -0.606990
O3    O     O_R   0.949090 0.471230 0.000030 -0.607193
O4    O     O_R   0.528770 0.949090 0.000030 -0.607602
O5    O     O_R   0.949090 0.528770 0.999970 -0.607605
O6    O     O_R   0.528770 0.050910 0.999970 -0.607180
O7    O     O_R   0.050910 0.471230 0.999970 -0.606988
O8    O     O_R   0.471230 0.949090 0.999970 -0.607181
O9    O     O_R   0.499990 0.028770 0.607330 -0.617936
O10   O     O_R   0.971230 0.499990 0.607330 -0.616784
O11   O     O_R   0.500010 0.971230 0.607330 -0.618091
O12   O     O_R   0.971230 0.550910 0.500030 -0.607606
O13   O     O_R   0.028770 0.500010 0.607330 -0.616776
O14   O     O_R   0.500010 0.028770 0.392670 -0.616776
O15   O     O_R   0.028770 0.499990 0.392670 -0.617941
O16   O     O_R   0.499990 0.971230 0.392670 -0.616778
O17   O     O_R   0.971230 0.500010 0.392670 -0.618093
O18   O     O_R   0.999990 0.528770 0.107330 -0.618384
O19   O     O_R   0.471230 0.999990 0.107330 -0.616929
O20   O     O_R   0.000010 0.471230 0.107330 -0.618015
O21   O     O_R   0.528770 0.000010 0.107330 -0.616673
O22   O     O_R   0.000010 0.528770 0.892670 -0.616668
O23   O     O_R   0.449090 0.971230 0.500030 -0.607132
O24   O     O_R   0.528770 0.999990 0.892670 -0.618390
O25   O     O_R   0.999990 0.471230 0.892670 -0.616922
O26   O     O_R   0.471230 0.000010 0.892670 -0.618014
O27   O     O_R   1.000000 0.949040 0.560460 -0.621611
O28   O     O_R   0.050960 0.000000 0.560460 -0.624203
O29   O     O_R   0.000000 0.050960 0.560460 -0.621592
O30   O     O_R   0.949040 0.000000 0.560460 -0.624178
O31   O     O_R   1.000000 0.949040 0.439540 -0.624174
O32   O     O_R   0.949040 0.000000 0.439540 -0.621616
O33   O     O_R   0.000000 0.050960 0.439540 -0.624204
O34   O     O_R   0.028770 0.449090 0.500030 -0.607826
O35   O     O_R   0.050960 0.000000 0.439540 -0.621590
O36   O     O_R   0.500000 0.449040 0.060460 -0.622207
O37   O     O_R   0.550960 0.500000 0.060460 -0.624802
O38   O     O_R   0.500000 0.550960 0.060460 -0.620755
O39   O     O_R   0.449040 0.500000 0.060460 -0.619822
O40   O     O_R   0.500000 0.449040 0.939540 -0.619822
O41   O     O_R   0.449040 0.500000 0.939540 -0.622231
O42   O     O_R   0.500000 0.550960 0.939540 -0.624802
O43   O     O_R   0.550960 0.500000 0.939540 -0.620763
O44   O     O_3   0.831301 0.945180 0.405117 -0.627977
O45   O     O_R   0.449090 0.028770 0.499970 -0.607829
O46   O     O_3   0.028955 0.816264 0.400094 -0.645582
O47   O     O_3   0.168681 0.054855 0.405322 -0.627999
O48   O     O_3   0.971120 0.183731 0.399533 -0.645532
O49   O     O_3   0.183733 0.971110 0.600445 -0.645533
O50   O     O_3   0.945165 0.831303 0.594846 -0.627984
O51   O     O_3   0.816267 0.028925 0.599955 -0.645576
O52   O     O_3   0.054842 0.168683 0.594701 -0.627995
O53   O     O_3   0.333043 0.443255 0.901124 -0.622836
O54   O     O_3   0.523004 0.318951 0.893706 -0.622197
O55   O     O_3   0.668679 0.554866 0.905330 -0.627819
O56   O     O_R   0.028770 0.550910 0.499970 -0.607099
O57   O     O_3   0.470968 0.683752 0.899807 -0.645687
O58   O     O_3   0.683756 0.471012 0.100228 -0.645691
O59   O     O_3   0.443237 0.333029 0.098746 -0.622853
O60   O     O_3   0.318942 0.522877 0.106394 -0.622198
O61   O     O_3   0.554864 0.668688 0.094625 -0.627792
O62   O     O_R   0.550910 0.971230 0.499970 -0.607611
O63   O     O_R   0.971230 0.449090 0.499970 -0.607141
O64   O     O_R   0.050910 0.528770 0.000030 -0.607185
Zn1   Zn    Zn3+2 0.500000 0.038410 0.500000 0.972420
Zn2   Zn    Zn3+2 0.000000 0.000000 0.419090 0.949299
Zn3   Zn    Zn3+2 0.500000 0.500000 0.080910 0.954439
Zn4   Zn    Zn3+2 0.500000 0.500000 0.919090 0.954426
Zn5   Zn    Zn3+2 0.961590 0.500000 0.500000 0.972066
Zn6   Zn    Zn3+2 0.500000 0.961590 0.500000 0.972071
Zn7   Zn    Zn3+2 0.038410 0.500000 0.500000 0.972415
Zn8   Zn    Zn3+2 0.000000 0.538410 0.000000 0.971681
Zn9   Zn    Zn3+2 0.461590 0.000000 0.000000 0.972193
Zn10  Zn    Zn3+2 0.000000 0.461590 0.000000 0.972186
Zn11  Zn    Zn3+2 0.538410 0.000000 0.000000 0.971681
Zn12  Zn    Zn3+2 0.000000 0.000000 0.580910 0.949298

loop_
_geom_bond_atom_site_label_1
_geom_bond_atom_site_label_2
_ccdc_geom_bond_type
C169  H184  S    
C126  C127  S    
C141  H72   S    
C29   C42   A    
C8    C26   A    
C111  H4    S    
C152  H118  S    
O19   Zn9   S    
C132  H49   S    
C116  H11   S    
C73   H113  S    
C15   C32   A    
C247  C252  T    
C12   H35   S    
O42   Zn4   S    
C148  H99   S    
C179  C221  A    
C61   C124  A    
C242  C251  S    
O14   Zn1   S    
C56   C101  A    
C213  C216  S    
C152  N3    S    
C158  H140  S    
C10   C28   A    
C161  N11   S    
O16   Zn6   S    
C108  C109  S    
C128  H40   S    
C98   H260  S    
C165  H170  S    
O3    Zn10  S    
C110  C111  S    
C133  H51   S    
C166  H173  S    
C19   C37   A    
C241  O20   A    
C204  N20   S    
C238  C247  S    
C58   C75   A    
H185  N20   S    
C57   C83   A    
C122  H27   S    
C63   C146  A    
H189  N21   S    
C4    C45   A    
C151  N2    S    
H163  N15   S    
C153  N4    S    
C136  H56   S    
H141  N9    S    
C158  N8    S    
O6    Zn11  S    
C9    H2    S    
C165  N16   S    
C2    C220  S    
C229  O28   A    
H203  N25   S    
C71   H90   S    
C104  C105  S    
O41   Zn4   S    
C55   C113  A    
C175  H209  S    
C174  N25   S    
C169  H182  S    
C40   C135  S    
O9    Zn1   S    
C67   C85   A    
C93   H246  S    
C112  O12   A    
H70   N1    S    
C121  H23   S    
C144  H84   S    
O38   Zn3   S    
C21   O49   S    
C154  H126  S    
C25   O52   S    
C170  H188  S    
C60   C77   A    
H145  N10   S    
C172  H195  S    
C106  H279  S    
C156  H136  S    
C245  C253  T    
C154  H125  S    
C39   C124  S    
C130  H44   S    
C239  C248  S    
C50   C233  S    
C74   H124  S    
C118  O54   S    
C126  H33   S    
O12   Zn5   S    
C181  C220  A    
C125  O57   S    
C237  C245  S    
C14   H46   S    
C256  H212  S    
C175  N26   S    
H105  N32   S    
C134  H54   S    
C104  O50   S    
C105  H274  S    
C179  H220  S    
C60   N31   S    
C130  H45   S    
C42   C157  S    
C100  H265  S    
C2    C71   A    
C53   C71   A    
C11   H24   S    
C145  H89   S    
O32   Zn2   S    
C164  H164  S    
C86   H215  S    
C177  C195  A    
C182  C199  A    
O63   Zn5   S    
C137  H59   S    
C28   O55   S    
C142  H76   S    
C174  H205  S    
C208  N25   S    
C158  H138  S    
C13   C72   A    
C22   C36   A    
C35   C78   A    
C254  H1    S    
C154  H127  S    
C109  H285  S    
C199  C210  A    
C114  H6    S    
C31   O59   S    
C166  N17   S    
C102  H268  S    
C242  O21   A    
O11   Zn6   S    
C184  H225  S    
C183  C222  A    
C149  H102  S    
H181  N19   S    
C129  H41   S    
C207  C216  A    
C144  H85   S    
C24   C73   A    
C117  H12   S    
C155  N6    S    
C213  O6    A    
H150  N11   S    
C147  H95   S    
C88   C89   S    
O62   Zn6   S    
C98   C99   S    
O29   Zn12  S    
C151  H110  S    
O4    Zn11  S    
C17   C254  A    
C228  O31   A    
C195  N11   S    
C171  N21   S    
C2    C75   A    
C156  H133  S    
C230  O29   A    
C103  H271  S    
C62   C135  A    
C104  H272  S    
H87   N28   S    
H207  N26   S    
C138  O61   S    
C54   C101  A    
H74   N12   S    
C91   H242  S    
C14   C31   A    
C128  C129  S    
C170  H186  S    
C97   C98   S    
O36   Zn3   S    
C6    H256  S    
C172  H197  S    
O24   Zn11  S    
C106  H277  S    
C162  H156  S    
H83   N27   S    
C249  C250  T    
C108  H283  S    
C33   C42   A    
C175  H208  S    
C91   O46   S    
C131  H47   S    
C167  H177  S    
C131  O59   S    
C218  C235  S    
C116  H10   S    
C191  C214  S    
C25   C38   A    
C163  H162  S    
C155  H131  S    
C94   H249  S    
C94   O47   S    
C148  H98   S    
C192  H232  S    
C234  O42   A    
C153  H121  S    
C41   C146  S    
C5    H245  S    
C10   H13   S    
C82   H201  S    
C69   C157  A    
C196  N13   S    
C30   C41   A    
C111  C114  S    
C52   C79   A    
C198  N15   S    
C27   C40   A    
C145  H91   S    
C171  H193  S    
C127  H37   S    
C58   N29   S    
C164  H166  S    
O20   Zn10  S    
C182  C219  A    
C92   H244  S    
C224  O5    A    
C121  H25   S    
C15   C48   A    
C137  H61   S    
C162  H158  S    
C117  H15   S    
C120  H20   S    
C118  H16   S    
H109  N2    S    
C206  C217  A    
C155  H129  S    
C139  C140  S    
C81   H190  S    
C150  H107  S    
C112  C211  S    
C9    C49   A    
C142  N12   S    
C102  H266  S    
C91   C92   S    
C97   O48   S    
C53   N12   S    
C149  H104  S    
C178  C196  A    
C104  H273  S    
O27   Zn12  S    
C77   H157  S    
C206  N22   S    
C161  H152  S    
H119  N4    S    
C64   C157  A    
C61   N32   S    
C160  H148  S    
C123  H30   S    
C34   C79   S    
C196  C214  A    
C89   H239  S    
C1    O1    A    
C147  H93   S    
C237  O11   A    
C177  H218  S    
C23   C34   A    
C185  C225  A    
C187  C205  A    
C33   O61   S    
C219  C246  S    
C97   H257  S    
C202  O7    A    
C138  H62   S    
C180  O45   A    
C147  N29   S    
C103  H269  S    
O22   Zn8   S    
C96   H253  S    
H78   N23   S    
C208  C215  A    
C168  C193  A    
C148  N30   S    
C66   N6    S    
C110  O52   S    
C129  C130  S    
C27   O54   S    
C36   C90   S    
C109  H284  S    
C160  N10   S    
C169  H183  S    
C184  C201  A    
C141  H71   S    
C194  N10   S    
C110  H287  S    
C18   O46   S    
C99   H262  S    
C13   C221  S    
C136  C137  S    
C12   C50   A    
O17   Zn5   S    
C127  H36   S    
C19   O47   S    
C143  H82   S    
C183  C200  A    
H132  N7    S    
C238  O10   A    
C68   C82   A    
C49   C232  S    
C187  C227  A    
C76   H146  S    
C195  C212  A    
C162  H155  S    
C173  H200  S    
C37   C101  S    
C15   H57   S    
C168  H216  S    
C120  H21   S    
O2    Zn9   S    
C107  H280  S    
C3    C47   A    
C46   C225  S    
C152  H116  S    
C57   C81   A    
C165  H169  S    
C102  C103  S    
C88   H236  S    
C166  H174  S    
C115  H8    S    
C181  H221  S    
C55   C73   A    
C115  H9    S    
C240  C249  S    
H92   N29   S    
C24   C77   A    
C16   H68   S    
O13   Zn7   S    
C177  C221  A    
C65   C146  A    
O39   Zn3   S    
C239  O16   A    
C160  H149  S    
C20   C38   A    
C184  C223  A    
C87   C88   S    
C151  H111  S    
C197  N14   S    
C32   O60   S    
C244  O24   A    
C125  H31   S    
C47   C230  S    
C7    H267  S    
C188  C206  A    
C201  N18   S    
C93   H248  S    
O33   Zn2   S    
C123  H28   S    
O64   Zn8   S    
C235  O8    A    
C43   C231  S    
C213  O2    A    
C172  H196  S    
C185  H226  S    
C188  H229  S    
C28   C41   A    
C108  H282  S    
C31   C40   A    
C32   C39   A    
C111  H3    S    
C70   H79   S    
C126  H34   S    
C192  C227  A    
C87   O44   S    
C96   H255  S    
C144  N27   S    
C143  N23   S    
C95   H252  S    
C205  N21   S    
C26   O53   S    
C202  C215  S    
O7    Zn10  S    
C134  H55   S    
C229  O35   A    
C240  O17   A    
C237  O9    A    
C189  H230  S    
C162  N13   S    
C67   C124  A    
C187  H228  S    
C152  H117  S    
C88   H237  S    
C133  H53   S    
C189  C225  A    
C69   N8    S    
C56   C74   A    
C171  H191  S    
C100  H264  S    
C203  C216  A    
C1    O62   A    
C142  H77   S    
C170  N20   S    
C174  H206  S    
C38   C113  S    
C183  H224  S    
C158  H139  S    
C159  N9    S    
C136  H58   S    
C230  O33   A    
C83   H211  S    
C193  N9    S    
C7    C47   A    
C98   H259  S    
C165  H171  S    
C114  H7    S    
C8    C48   A    
C133  H52   S    
C65   N5    S    
C231  O32   A    
C26   C39   A    
C52   N1    S    
C159  H142  S    
C3    C20   A    
C144  H86   S    
C122  H26   S    
C239  O14   A    
C107  O51   S    
C121  C122  S    
C62   N2    S    
C70   C246  A    
O37   Zn3   S    
C43   C254  A    
C5    C44   A    
O5    Zn8   S    
C6    C43   A    
H115  N3    S    
C125  C126  S    
C140  H67   S    
C232  O40   A    
C72   H101  S    
C209  C218  A    
C145  N28   S    
C59   C79   A    
C131  C132  S    
O28   Zn12  S    
C172  N22   S    
C121  O55   S    
C167  N18   S    
C87   H235  S    
C199  N16   S    
C9    C27   A    
C139  H64   S    
C175  H210  S    
C62   C80   A    
C54   N23   S    
C16   C51   A    
C93   H247  S    
O35   Zn2   S    
C12   C30   A    
C44   C228  S    
C224  O3    A    
C128  O58   S    
C241  C250  S    
C91   H241  S    
C106  H276  S    
C170  H187  S    
O1    Zn1   S    
C119  C120  S    
C44   C255  A    
C24   C222  S    
C18   C255  A    
O15   Zn7   S    
C105  C106  S    
C188  C226  A    
C7    C25   A    
C130  H43   S    
O56   Zn7   S    
C185  C203  A    
C167  H180  S    
C99   H263  S    
C255  H112  S    
C197  C212  A    
C190  C223  A    
C163  H161  S    
C200  N17   S    
C189  C207  A    
C94   H250  S    
C92   C93   S    
C46   C84   A    
C191  O34   A    
C180  O23   A    
C168  C219  A    
H96   N30   S    
C94   C95   S    
C161  H153  S    
C192  C209  A    
H100  N31   S    
C138  C139  S    
C45   C256  A    
C119  H19   S    
C66   C135  A    
C105  H275  S    
C153  H120  S    
C178  H219  S    
C22   O50   S    
C21   C37   A    
C13   C74   A    
C164  N15   S    
O25   Zn10  S    
C176  C220  A    
C53   C90   A    
C23   O51   S    
C176  C194  A    
C18   C36   A    
O40   Zn4   S    
C115  C116  S    
C173  N24   S    
C119  H18   S    
C242  O19   A    
C128  H39   S    
C63   N3    S    
C67   N7    S    
C55   N27   S    
C233  O43   A    
C132  H50   S    
C209  N26   S    
C243  O25   A    
C95   C96   S    
C137  H60   S    
C142  H75   S    
C174  H204  S    
C117  H14   S    
C193  C210  A    
C68   C227  S    
C116  C117  S    
C151  H114  S    
H128  N6    S    
C63   C81   A    
C51   C234  S    
C150  H108  S    
C109  H286  S    
H198  N24   S    
C114  H5    S    
C176  H217  S    
C231  O30   A    
C65   C83   A    
C14   C49   A    
C149  H103  S    
O10   Zn5   S    
C129  H42   S    
C84   H213  S    
C180  C212  S    
C161  H151  S    
C118  C119  S    
C201  C215  A    
C3    H223  S    
C123  H29   S    
C156  N7    S    
C194  C211  A    
C20   O48   S    
C4    H234  S    
C89   H238  S    
C5    C22   A    
C30   O58   S    
C240  O15   A    
C132  C133  S    
C115  O53   S    
C29   O57   S    
H172  N17   S    
O31   Zn2   S    
C140  H69   S    
C141  N1    S    
C145  H88   S    
O21   Zn11  S    
C78   H168  S    
C138  H63   S    
C87   H233  S    
C248  C251  T    
C217  C224  S    
C125  H32   S    
C96   H254  S    
C143  H81   S    
C85   H214  S    
O18   Zn8   S    
O23   Zn6   S    
C60   C113  A    
C45   C229  S    
C181  C198  A    
C11   C51   A    
H176  N18   S    
C235  O4    A    
C68   C86   A    
C171  H192  S    
C238  O13   A    
C8    H278  S    
C205  C218  A    
C139  H65   S    
C131  H48   S    
C167  H178  S    
C110  H288  S    
C120  H22   S    
C99   H261  S    
C17   O44   S    
C112  O56   A    
H167  N16   S    
C134  C136  S    
C179  C197  A    
H154  N13   S    
O34   Zn7   S    
C148  H97   S    
C56   N28   S    
C243  O22   A    
H159  N14   S    
C64   N4    S    
C19   C256  A    
C103  H270  S    
C154  N5    S    
C35   C223  S    
C16   C33   A    
C173  H199  S    
C58   C90   A    
C153  H122  S    
C200  C214  A    
C186  C226  A    
C61   C78   A    
C107  C108  S    
O30   Zn12  S    
C59   N30   S    
C100  C102  S    
C191  O63   A    
C186  C204  A    
C198  C211  A    
C64   C82   A    
C166  H175  S    
C48   C236  S    
C127  H38   S    
C57   C226  S    
C190  C208  A    
O8    Zn9   S    
C241  O18   A    
C100  O49   S    
H137  N8    S    
O45   Zn1   S    
C92   H243  S    
C75   H135  S    
C149  N31   S    
C159  H143  S    
C150  N32   S    
H123  N5    S    
C159  H144  S    
O26   Zn9   S    
C207  N24   S    
C190  H231  S    
C155  H130  S    
C236  O41   A    
C35   C85   A    
C243  C252  S    
C1    C210  S    
C150  H106  S    
C163  N14   S    
C140  H66   S    
C169  N19   S    
C76   C246  A    
C186  H227  S    
C228  O27   A    
O43   Zn4   S    
C203  N19   S    
C143  H80   S    
C134  O60   S    
C204  C217  A    
C244  C253  S    
H194  N22   S    
C160  H147  S    
C4    C21   A    
C89   H240  S    
C107  H281  S    
C147  H94   S    
C156  H134  S    
C6    C23   A    
C59   C76   A    
C141  H73   S    
C97   H258  S    
C232  O36   A    
C164  H165  S    
C182  H222  S    
C52   C70   A    
C66   C84   A    
C80   H179  S    
C54   C72   A    
C11   C29   A    
C17   C34   A    
C95   H251  S    
C163  H160  S    
C178  C222  A    
C46   C80   A    
C122  C123  S    
C244  O26   A    
C118  H17   S    
C202  O64   A    
C69   C86   A    
C234  O38   A    
C233  O37   A    
C173  H202  S    
C236  O39   A    
C10   C50   A    
