data_mof_unit_29994.cif
_audit_creation_date              2012-12-11T16:38:21-0500
_audit_creation_method            fapswitch 2.2
_symmetry_space_group_name_H-M    P1
_symmetry_Int_Tables_number       1
_space_group_crystal_system       triclinic
_cell_length_a                    22.928079
_cell_length_b                    7.241063
_cell_length_c                    20.912067
_cell_angle_alpha                 89.999879
_cell_angle_beta                  93.419119
_cell_angle_gamma                 89.999934
_cell_volume                      3465.71795634

loop_
_atom_site_label
_atom_site_type_symbol
_atom_type_description
_atom_site_fract_x
_atom_site_fract_y
_atom_site_fract_z
_atom_type_partial_charge
O1    O     O_R   0.188620 0.380490 0.689890 -0.537354
O2    O     O_R   0.811380 0.619510 0.310110 -0.533138
O3    O     O_R   0.311380 0.880490 0.810110 -0.537348
O4    O     O_R   0.688620 0.119510 0.189890 -0.533138
O5    O     O_R   0.306510 0.709050 0.686440 -0.535961
O6    O     O_R   0.693490 0.290950 0.313560 -0.536815
O7    O     O_R   0.193490 0.209050 0.813560 -0.535960
O8    O     O_R   0.806510 0.790950 0.186440 -0.536815
C1    C     C_R   0.325312 0.541704 0.671645 0.718330
C2    C     C_R   0.674701 0.458300 0.328373 0.716244
C3    C     C_R   0.174688 0.041704 0.828355 0.718337
C4    C     C_R   0.825299 0.958300 0.171627 0.716244
O9    O     O_R   0.188770 0.710120 0.682280 -0.540591
O10   O     O_R   0.811230 0.289880 0.317720 -0.535274
O11   O     O_R   0.311230 0.210120 0.817720 -0.540590
O12   O     O_R   0.688770 0.789880 0.182280 -0.535274
O13   O     O_R   0.192790 0.881680 0.805920 -0.530694
O14   O     O_R   0.807210 0.118320 0.194080 -0.532787
O15   O     O_R   0.307210 0.381680 0.694080 -0.530696
O16   O     O_R   0.692790 0.618320 0.305920 -0.532788
C5    C     C_R   0.168899 0.541573 0.666360 0.701686
C6    C     C_R   0.830765 0.458377 0.333375 0.695797
C7    C     C_R   0.331101 0.041573 0.833639 0.701683
C8    C     C_R   0.669234 0.958377 0.166626 0.695802
O17   O     O_3   0.251460 0.547440 0.790570 -0.375262
O18   O     O_3   0.748540 0.452560 0.209430 -0.374619
O19   O     O_3   0.248540 0.047440 0.709430 -0.375270
O20   O     O_3   0.751460 0.952560 0.290570 -0.374621
V1    V     V_3+5 0.249730 0.821800 0.742470 1.405044
V2    V     V_3+5 0.750270 0.178200 0.257530 1.422057
V3    V     V_3+5 0.250270 0.321800 0.757530 1.405041
V4    V     V_3+5 0.749730 0.678200 0.242470 1.422057
C9    C     C_R   0.463498 0.864703 0.933753 -0.174587
C10   C     C_R   0.516391 0.011573 0.090444 -0.166904
C11   C     C_R   0.036515 0.364664 0.566230 -0.174606
C12   C     C_R   0.983605 0.511576 0.409564 -0.167037
H1    H     H_    0.490418 0.741637 0.936181 0.159272
H2    H     H_    0.472628 0.031246 0.106061 0.125277
H3    H     H_    0.009609 0.241569 0.563786 0.159284
H4    H     H_    0.027369 0.531240 0.393950 0.125209
C13   C     C_R   0.416260 0.873573 0.888330 -0.187036
C14   C     C_R   0.563166 0.999372 0.136461 -0.172490
C15   C     C_R   0.083757 0.373532 0.611649 -0.186999
C16   C     C_R   0.936831 0.499374 0.363545 -0.172454
H5    H     H_    0.408241 0.757124 0.856520 0.138177
H6    H     H_    0.554889 0.012352 0.186723 0.111599
H7    H     H_    0.091792 0.257050 0.643440 0.138208
H8    H     H_    0.945111 0.512354 0.313284 0.111596
C17   C     C_R   0.380602 0.031559 0.883187 -0.093579
C18   C     C_R   0.620071 0.968343 0.117882 -0.069507
C19   C     C_R   0.119397 0.531558 0.616813 -0.093646
C20   C     C_R   0.879926 0.468342 0.382121 -0.069504
C21   C     C_R   0.393233 0.179996 0.925218 -0.255821
C22   C     C_R   0.629843 0.952423 0.052566 -0.253481
C23   C     C_R   0.106744 0.680037 0.574805 -0.255728
C24   C     C_R   0.870152 0.452419 0.447437 -0.253489
H9    H     H_    0.367308 0.304826 0.921071 0.134810
H10   H     H_    0.673698 0.928037 0.037848 0.109409
H11   H     H_    0.132652 0.804902 0.578962 0.134836
H12   H     H_    0.826296 0.428027 0.462152 0.109404
C25   C     C_R   0.439246 0.168785 0.973211 0.406739
C26   C     C_R   0.583361 0.972755 0.005744 0.449537
C27   C     C_R   0.060726 0.668835 0.526822 0.406701
C28   C     C_R   0.916632 0.472755 0.494261 0.449575
C29   C     C_R   0.475462 0.011081 0.976530 0.028969
C30   C     C_R   0.525793 0.997380 0.024828 0.031408
C31   C     C_R   0.024529 0.511087 0.523478 0.028974
C32   C     C_R   0.974200 0.497386 0.475179 0.031399
H13   H     H_    0.956754 0.286922 0.041698 0.112745
H14   H     H_    0.043188 0.713083 0.958228 0.113519
H15   H     H_    0.543244 0.786922 0.458299 0.112745
H16   H     H_    0.456816 0.213083 0.541777 0.113519
C33   C     C_R   0.019995 0.172612 0.980615 -0.155486
C34   C     C_R   0.979943 0.827393 0.019308 -0.156410
C35   C     C_R   0.480004 0.672612 0.519384 -0.155487
C36   C     C_R   0.520059 0.327393 0.480695 -0.156410
H17   H     H_    0.035006 0.307237 0.966063 0.112634
H18   H     H_    0.964935 0.692768 0.033862 0.112084
H19   H     H_    0.464991 0.807237 0.533934 0.112634
H20   H     H_    0.535069 0.192768 0.466142 0.112084
C37   C     C_R   0.044960 0.011671 0.956562 0.135791
C38   C     C_R   0.954981 0.988334 0.043363 0.135848
C39   C     C_R   0.455041 0.511672 0.543439 0.135790
C40   C     C_R   0.545020 0.488334 0.456637 0.135849
C41   C     C_R   0.024584 0.838985 0.976220 -0.154448
C42   C     C_R   0.975354 0.161020 0.023703 -0.155832
C43   C     C_R   0.475418 0.338985 0.523783 -0.154451
C44   C     C_R   0.524644 0.661020 0.476296 -0.155833
C45   C     C_1   0.091064 0.023494 0.911667 -0.058972
C46   C     C_1   0.908888 0.976512 0.088273 -0.061452
C47   C     C_1   0.408936 0.523494 0.588333 -0.058974
C48   C     C_1   0.591112 0.476511 0.411727 -0.061452
C49   C     C_1   0.870617 0.967496 0.126027 -0.182839
C50   C     C_1   0.129350 0.032510 0.873932 -0.179691
C51   C     C_1   0.629383 0.467496 0.373974 -0.182839
C52   C     C_1   0.370650 0.532510 0.626068 -0.179694
O21   O     O_3   0.453833 0.319025 0.012096 -0.581263
C53   C     C_3   0.406638 0.373281 0.048651 0.056137
H21   H     H_    0.420660 0.356328 0.100099 0.138837
H22   H     H_    0.366008 0.289483 0.040165 0.099904
C54   C     C_3   0.393041 0.577108 0.035936 -0.284282
H23   H     H_    0.433018 0.660416 0.047390 0.206564
H24   H     H_    0.379543 0.596408 0.984480 0.195753
C55   C     C_3   0.344347 0.646343 0.076371 -0.849964
H25   H     H_    0.303477 0.567642 0.064856 0.233108
H26   H     H_    0.335999 0.794731 0.065957 0.229867
H27   H     H_    0.357209 0.631091 0.128157 0.230921
O22   O     O_3   0.593500 0.962200 0.941199 -0.579460
C56   C     C_3   0.622611 0.123575 0.921748 0.058371
H28   H     H_    0.642248 0.091529 0.875737 0.151329
H29   H     H_    0.659518 0.164586 0.955900 0.108302
C57   C     C_3   0.579728 0.285014 0.910576 -0.323963
H30   H     H_    0.542980 0.241398 0.876865 0.210605
H31   H     H_    0.561715 0.325618 0.956653 0.218913
C58   C     C_3   0.609630 0.453108 0.883138 -0.797296
H32   H     H_    0.645851 0.500994 0.916745 0.237627
H33   H     H_    0.577495 0.567088 0.875946 0.249219
H34   H     H_    0.627213 0.418688 0.836239 0.224837
O23   O     O_3   0.046116 0.819139 0.487978 -0.581277
C59   C     C_3   0.093262 0.873256 0.451328 0.056127
H35   H     H_    0.079186 0.856058 0.399905 0.138870
H36   H     H_    0.133912 0.789546 0.459816 0.099855
C60   C     C_3   0.106855 0.077142 0.463918 -0.284244
H37   H     H_    0.066838 0.160349 0.452568 0.206645
H38   H     H_    0.120495 0.096617 0.515330 0.195696
C61   C     C_3   0.155408 0.146333 0.423276 -0.850001
H39   H     H_    0.196310 0.067670 0.434650 0.233112
H40   H     H_    0.163779 0.294741 0.433629 0.229839
H41   H     H_    0.142383 0.131000 0.371531 0.230935
O24   O     O_3   0.906492 0.462201 0.558807 -0.579454
C62   C     C_3   0.877370 0.623560 0.578254 0.058336
H42   H     H_    0.857746 0.591520 0.624273 0.151336
H43   H     H_    0.840453 0.664520 0.544108 0.108304
C63   C     C_3   0.920239 0.785045 0.589406 -0.323933
H44   H     H_    0.956998 0.741479 0.623111 0.210612
H45   H     H_    0.938238 0.825642 0.543321 0.218952
C64   C     C_3   0.890328 0.953129 0.616840 -0.797290
H46   H     H_    0.854096 0.000963 0.583238 0.237607
H47   H     H_    0.922454 0.067142 0.624014 0.249261
H48   H     H_    0.872759 0.918721 0.663747 0.224835

loop_
_geom_bond_atom_site_label_1
_geom_bond_atom_site_label_2
_ccdc_geom_bond_type
O17   V3    S    
C39   C43   A    
O1    C5    A    
C54   H23   S    
C23   H11   S    
O19   V1    S    
O13   V1    S    
O3    C7    A    
C10   C14   A    
C62   C63   S    
O15   V3    S    
C10   C30   A    
C63   C64   S    
C55   H26   S    
O21   C53   S    
C9    C29   A    
C60   H37   S    
O7    C3    A    
C64   H47   S    
C61   H39   S    
C28   C32   A    
O9    V1    S    
O10   V2    S    
C56   H29   S    
O16   V4    S    
O4    C8    A    
C60   H38   S    
C26   O22   S    
C58   H32   S    
O1    V3    S    
O22   C56   S    
O2    V4    S    
C14   H6    S    
C13   C17   A    
C45   C50   T    
O3    V1    S    
C57   H30   S    
C47   C52   T    
C21   C25   A    
C1    O15   A    
C2    O16   A    
C58   H33   S    
C23   C27   A    
O2    C6    A    
C24   C28   A    
O14   V2    S    
C11   C15   A    
C59   C60   S    
C37   C45   S    
C16   C20   A    
O11   C7    A    
O12   C8    A    
C36   C40   A    
C34   C38   A    
C33   C37   A    
C55   H25   S    
C59   H36   S    
O5    V1    S    
C8    C18   S    
C64   H48   S    
C27   C31   A    
O7    V3    S    
C26   C30   A    
C31   C32   S    
O8    V4    S    
C36   H20   S    
C12   H4    S    
C56   C57   S    
C21   H9    S    
O18   V4    S    
C60   C61   S    
C63   H45   S    
C22   C26   A    
C61   H41   S    
C38   C42   A    
C48   C51   T    
C9    H1    S    
C24   H12   S    
C11   H3    S    
O5    C1    A    
C27   O23   S    
C1    C52   S    
C11   C31   A    
O8    C4    A    
C58   H34   S    
O9    C5    A    
C18   C22   A    
C36   C43   A    
C14   C18   A    
C57   H31   S    
C3    C50   S    
O6    V2    S    
C28   O24   S    
C53   H21   S    
C54   C55   S    
C53   H22   S    
C4    C49   S    
C12   C16   A    
C62   H42   S    
C5    C19   S    
H16   C43   S    
C59   H35   S    
C46   C49   T    
C6    C20   S    
C22   H10   S    
C3    O13   A    
C61   H40   S    
C10   H2    S    
C25   O21   S    
C40   C44   A    
C62   H43   S    
O6    C2    A    
O23   C59   S    
C12   C32   A    
O11   V3    S    
C63   H44   S    
O12   V4    S    
C53   C54   S    
C39   C47   S    
C64   H46   S    
C38   C46   S    
C9    C13   A    
O10   C6    A    
O20   V2    S    
O24   C62   S    
C16   H8    S    
C13   H5    S    
C56   H28   S    
C35   C39   A    
C15   H7    S    
C2    C51   S    
C15   C19   A    
C17   C21   A    
C19   C23   A    
C55   H27   S    
C34   C41   A    
O4    V2    S    
C33   C42   A    
C7    C17   S    
H15   C44   S    
C25   C29   A    
C35   C44   A    
C54   H24   S    
C29   C30   S    
C34   H18   S    
C4    O14   A    
C33   H17   S    
C40   C48   S    
H14   C41   S    
C35   H19   S    
C57   C58   S    
C37   C41   A    
H13   C42   S    
C20   C24   A    
