data_mof_unit_64667.cif
_audit_creation_date              2012-10-26T17:26:28-0400
_audit_creation_method            fapswitch 2.2
_symmetry_space_group_name_H-M    P1
_symmetry_Int_Tables_number       1
_space_group_crystal_system       triclinic
_cell_length_a                    30.38127
_cell_length_b                    30.38132
_cell_length_c                    18.361672
_cell_angle_alpha                 90.000024
_cell_angle_beta                  89.999353
_cell_angle_gamma                 90.0
_cell_volume                      16948.2471502

loop_
_atom_site_label
_atom_site_type_symbol
_atom_type_description
_atom_site_fract_x
_atom_site_fract_y
_atom_site_fract_z
_atom_type_partial_charge
C1    C     C_R   0.225831 0.999999 0.499999 0.030651
C2    C     C_R   0.013057 0.202662 0.437603 -0.120603
C3    C     C_R   0.962198 0.656760 0.478791 -0.127481
C4    C     C_R   0.656750 0.962301 0.478282 -0.127463
C5    C     C_R   0.037567 0.343263 0.477656 -0.127438
C6    C     C_R   0.343250 0.037699 0.478281 -0.127462
C7    C     C_R   0.037802 0.656760 0.521209 -0.127481
C8    C     C_R   0.843251 0.462317 0.021791 -0.127460
C9    C     C_R   0.537718 0.843248 0.978358 -0.127462
C10   C     C_R   0.156750 0.537703 0.021703 -0.127461
C11   C     C_R   0.462378 0.156742 0.977940 -0.127454
C12   C     C_R   0.156751 0.462297 0.978299 -0.127462
C13   C     C_R   0.797352 0.986565 0.437828 -0.120579
C14   C     C_R   0.462282 0.843249 0.021641 -0.127460
C15   C     C_R   0.843252 0.537683 0.978206 -0.127460
C16   C     C_R   0.537621 0.156742 0.022060 -0.127454
C17   C     C_R   0.366534 1.000000 0.500000 0.018719
C18   C     C_R   0.000000 0.366543 0.500000 0.018826
C19   C     C_R   0.633466 1.000000 0.500000 0.018718
C20   C     C_R   0.000000 0.633473 0.500000 0.018629
C21   C     C_R   0.866535 0.500000 0.999999 0.018729
C22   C     C_R   0.500000 0.866533 1.000000 0.018711
C23   C     C_R   0.133466 0.500000 0.000001 0.018717
C24   C     C_R   0.013771 0.797364 0.561958 -0.120550
C25   C     C_R   0.500000 0.133460 1.000000 0.018762
C26   C     C_R   0.274195 0.999999 0.499999 0.030454
C27   C     C_R   0.000000 0.274208 0.500000 0.030443
C28   C     C_R   0.725805 0.999999 0.500001 0.030454
C29   C     C_R   1.000000 0.725816 0.500000 0.030467
C30   C     C_R   0.774196 0.500000 0.999998 0.030449
C31   C     C_R   0.500000 0.774193 1.000000 0.030473
C32   C     C_R   0.225805 0.500000 0.000002 0.030456
C33   C     C_R   0.500000 0.225798 1.000000 0.030439
C34   C     C_R   0.797351 0.013433 0.562174 -0.120569
C35   C     C_R   0.986943 0.202662 0.562397 -0.120602
C36   C     C_R   0.202648 0.986565 0.562172 -0.120579
C37   C     C_R   0.986229 0.797364 0.438042 -0.120550
C38   C     C_R   0.702650 0.513389 0.937800 -0.120580
C39   C     C_R   0.486496 0.702646 0.062136 -0.120569
C40   C     C_R   0.297352 0.486553 0.937836 -0.120570
C41   C     C_R   0.000000 0.225845 0.500000 0.030677
C42   C     C_R   0.513253 0.297345 0.062272 -0.120587
C43   C     C_R   0.297352 0.513447 0.062167 -0.120575
C44   C     C_R   0.513503 0.702646 0.937863 -0.120568
C45   C     C_R   0.702650 0.486611 0.062197 -0.120575
C46   C     C_R   0.486746 0.297345 0.937728 -0.120587
C47   C     C_R   0.156777 0.013098 0.437606 -0.129000
C48   C     C_R   0.012728 0.156790 0.437392 -0.129055
C49   C     C_R   0.843224 0.986900 0.437608 -0.129050
C50   C     C_R   0.013434 0.843236 0.562184 -0.129007
C51   C     C_R   0.843223 0.013098 0.562394 -0.129000
C52   C     C_R   0.774169 0.999999 0.500001 0.030651
C53   C     C_R   0.987272 0.156790 0.562609 -0.129055
C54   C     C_R   0.156776 0.986899 0.562392 -0.129050
C55   C     C_R   0.986566 0.843235 0.437815 -0.129008
C56   C     C_R   0.656778 0.513055 0.937582 -0.129038
C57   C     C_R   0.486831 0.656775 0.062357 -0.129019
C58   C     C_R   0.343224 0.486888 0.937615 -0.129013
C59   C     C_R   0.512922 0.343217 0.062487 -0.129042
C60   C     C_R   0.343224 0.513112 0.062387 -0.129032
C61   C     C_R   0.513169 0.656775 0.937643 -0.129015
C62   C     C_R   0.656778 0.486945 0.062416 -0.129019
C63   C     C_R   0.000000 0.774180 0.500000 0.030626
C64   C     C_R   0.487078 0.343217 0.937512 -0.129046
C65   C     C_R   0.133499 0.999999 0.499999 0.017761
C66   C     C_R   1.000000 0.133508 0.500000 0.017649
C67   C     C_R   0.866501 0.999999 0.500001 0.017761
C68   C     C_R   0.000000 0.866509 0.500000 0.017844
C69   C     C_R   0.633500 0.500000 0.999999 0.017745
C70   C     C_R   0.500000 0.633498 0.000000 0.017786
C71   C     C_R   0.366501 0.500000 0.000001 0.017765
C72   C     C_R   0.500000 0.366497 1.000000 0.017692
C73   C     C_R   0.414880 1.000000 0.500000 0.547753
C74   C     C_R   0.725833 0.500000 0.999998 0.030650
C75   C     C_R   0.000000 0.414883 0.500000 0.547701
C76   C     C_R   0.585120 1.000000 0.500000 0.547753
C77   C     C_R   1.000000 0.585122 0.500000 0.547793
C78   C     C_R   0.914881 0.500000 1.000000 0.547746
C79   C     C_R   0.500000 0.914880 1.000000 0.547759
C80   C     C_R   0.085120 0.500000 0.000000 0.547753
C81   C     C_R   0.500000 0.085118 1.000000 0.547723
C82   C     C_R   0.500000 0.000000 0.360203 0.560533
C83   C     C_R   0.000000 0.500000 0.360203 0.560528
C84   C     C_R   0.500000 0.000000 0.639797 0.560533
C85   C     C_R   0.500000 0.725830 1.000000 0.030666
C86   C     C_R   1.000000 0.500000 0.639797 0.560528
C87   C     C_R   1.000000 0.500000 0.860203 0.560530
C88   C     C_R   0.500000 0.000000 0.860203 0.560521
C89   C     C_R   0.000000 0.500000 0.139797 0.560530
C90   C     C_R   0.500000 0.000000 0.139797 0.560521
C91   C     C_R   1.000000 0.914839 0.500000 0.551200
C92   C     C_R   0.085164 1.000000 0.500000 0.551238
C93   C     C_R   0.000000 0.085167 0.500000 0.551282
C94   C     C_R   0.914836 1.000000 0.500000 0.551239
C95   C     C_R   0.500000 0.414834 1.000000 0.551263
C96   C     C_R   0.274169 0.500000 0.000002 0.030651
C97   C     C_R   0.585164 0.500000 1.000000 0.551250
C98   C     C_R   0.500000 0.585163 0.000000 0.551236
C99   C     C_R   0.414836 0.500000 0.000000 0.551243
C100  C     C_1   0.499999 0.000000 0.282656 -0.050242
C101  C     C_1   0.000000 0.500000 0.282656 -0.050242
C102  C     C_1   0.500000 0.000000 0.717344 -0.050242
C103  C     C_1   0.999999 0.500000 0.717344 -0.050242
C104  C     C_1   0.999999 0.500000 0.782656 -0.050241
C105  C     C_1   0.500000 0.000000 0.782656 -0.050243
C106  C     C_1   0.000000 0.500000 0.217344 -0.050241
C107  C     C_R   0.500000 0.274162 1.000000 0.030655
C108  C     C_1   0.499999 0.000000 0.217344 -0.050243
C109  C     C_R   0.297378 0.962434 0.522269 -0.120342
C110  C     C_R   0.962572 0.297391 0.522904 -0.120315
C111  C     C_R   0.702622 0.037565 0.522270 -0.120337
C112  C     C_R   0.962327 0.702632 0.478247 -0.120358
C113  C     C_R   0.702622 0.962434 0.477731 -0.120342
C114  C     C_R   0.037429 0.297391 0.477096 -0.120316
C115  C     C_R   0.297378 0.037565 0.477729 -0.120338
C116  C     C_R   0.037673 0.702632 0.521752 -0.120358
C117  C     C_R   0.797379 0.462451 0.022343 -0.120336
C118  C     C_R   0.202649 0.013433 0.437825 -0.120569
C119  C     C_R   0.537585 0.797377 0.977808 -0.120342
C120  C     C_R   0.202622 0.537570 0.022255 -0.120341
C121  C     C_R   0.462514 0.202614 0.977385 -0.120325
C122  C     C_R   0.202623 0.462430 0.977748 -0.120340
C123  C     C_R   0.462414 0.797377 0.022191 -0.120343
C124  C     C_R   0.797379 0.537549 0.977653 -0.120338
C125  C     C_R   0.537486 0.202614 0.022614 -0.120325
C126  C     C_R   0.343250 0.962301 0.521718 -0.127463
C127  C     C_R   0.962433 0.343263 0.522344 -0.127438
C128  C     C_R   0.656750 0.037699 0.521718 -0.127462
Cu1   Cu    Cu3+1 0.500000 0.044060 0.500000 0.937049
Cu2   Cu    Cu3+1 0.000000 0.000000 0.572510 0.920576
Cu3   Cu    Cu3+1 0.500000 0.500000 0.927490 0.920561
Cu4   Cu    Cu3+1 0.500000 0.500000 0.072510 0.920561
Cu5   Cu    Cu3+1 0.955940 0.500000 0.500000 0.937070
Cu6   Cu    Cu3+1 0.500000 0.955940 0.500000 0.937072
Cu7   Cu    Cu3+1 0.044060 0.500000 0.500000 0.937078
Cu8   Cu    Cu3+1 0.000000 0.544060 0.000000 0.937119
Cu9   Cu    Cu3+1 0.455940 0.000000 0.000000 0.937084
Cu10  Cu    Cu3+1 0.000000 0.455940 0.000000 0.937021
Cu11  Cu    Cu3+1 0.544060 0.000000 0.000000 0.937085
Cu12  Cu    Cu3+1 0.000000 0.000000 0.427490 0.920576
H1    H     H_    0.279948 0.933064 0.539223 0.109264
H2    H     H_    0.566971 0.779948 0.960917 0.109257
H3    H     H_    0.220052 0.566942 0.039196 0.109268
H4    H     H_    0.433206 0.220043 0.960159 0.109275
H5    H     H_    0.220052 0.433058 0.960808 0.109275
H6    H     H_    0.433029 0.779947 0.039082 0.109256
H7    H     H_    0.779950 0.566905 0.960640 0.109272
H8    H     H_    0.566794 0.220043 0.039841 0.109276
H9    H     H_    0.360474 0.932876 0.538938 0.128573
H10   H     H_    0.933118 0.360494 0.540061 0.128430
H11   H     H_    0.639526 0.067124 0.538937 0.128577
H12   H     H_    0.933308 0.279962 0.540361 0.109277
H13   H     H_    0.932686 0.639541 0.461977 0.128697
H14   H     H_    0.639526 0.932876 0.461063 0.128573
H15   H     H_    0.066882 0.360494 0.459939 0.128431
H16   H     H_    0.360474 0.067124 0.461061 0.128576
H17   H     H_    0.067314 0.639541 0.538023 0.128697
H18   H     H_    0.860476 0.432906 0.039071 0.128557
H19   H     H_    0.567159 0.860472 0.961199 0.128592
H20   H     H_    0.139526 0.567131 0.038909 0.128580
H21   H     H_    0.433018 0.139514 0.960448 0.128509
H22   H     H_    0.139526 0.432869 0.961092 0.128577
H23   H     H_    0.720052 0.066935 0.539223 0.109282
H24   H     H_    0.432841 0.860472 0.038801 0.128591
H25   H     H_    0.860477 0.567094 0.960927 0.128561
H26   H     H_    0.566981 0.139514 0.039552 0.128509
H27   H     H_    0.220078 0.023659 0.389218 0.109299
H28   H     H_    0.022985 0.220091 0.388822 0.109279
H29   H     H_    0.779923 0.976339 0.389220 0.109289
H30   H     H_    0.024265 0.779936 0.610399 0.109302
H31   H     H_    0.779922 0.023659 0.610782 0.109300
H32   H     H_    0.977016 0.220091 0.611178 0.109280
H33   H     H_    0.220077 0.976339 0.610780 0.109288
H34   H     H_    0.932873 0.720061 0.461705 0.109257
H35   H     H_    0.975735 0.779936 0.389601 0.109302
H36   H     H_    0.720079 0.523579 0.889173 0.109289
H37   H     H_    0.476216 0.720075 0.110716 0.109278
H38   H     H_    0.279923 0.476317 0.889235 0.109298
H39   H     H_    0.523336 0.279917 0.110957 0.109286
H40   H     H_    0.279922 0.523683 0.110769 0.109287
H41   H     H_    0.523784 0.720075 0.889283 0.109279
H42   H     H_    0.720078 0.476421 0.110823 0.109300
H43   H     H_    0.476664 0.279917 0.889043 0.109285
H44   H     H_    0.139544 0.023482 0.388913 0.126040
H45   H     H_    0.720052 0.933064 0.460778 0.109264
H46   H     H_    0.022816 0.139564 0.388518 0.126182
H47   H     H_    0.860457 0.976515 0.388915 0.125991
H48   H     H_    0.024084 0.860474 0.610704 0.125884
H49   H     H_    0.860456 0.023482 0.611087 0.126040
H50   H     H_    0.977184 0.139564 0.611482 0.126183
H51   H     H_    0.139543 0.976515 0.611085 0.125991
H52   H     H_    0.975916 0.860474 0.389296 0.125884
H53   H     H_    0.639546 0.523404 0.888869 0.126027
H54   H     H_    0.476392 0.639541 0.111021 0.125982
H55   H     H_    0.360457 0.476494 0.888928 0.126021
H56   H     H_    0.066692 0.279962 0.459640 0.109277
H57   H     H_    0.523165 0.360447 0.111260 0.126111
H58   H     H_    0.360457 0.523506 0.111074 0.126000
H59   H     H_    0.523608 0.639541 0.888979 0.125986
H60   H     H_    0.639545 0.476596 0.111129 0.126048
H61   H     H_    0.476835 0.360447 0.888740 0.126107
H62   H     H_    0.279948 0.066935 0.460775 0.109282
H63   H     H_    0.067127 0.720061 0.538295 0.109257
H64   H     H_    0.779949 0.433094 0.039356 0.109279
O1    O     O_R   0.435730 0.037210 0.500000 -0.513056
O2    O     O_R   0.462790 0.935730 0.000000 -0.513063
O3    O     O_R   0.064270 0.462790 0.000000 -0.513063
O4    O     O_R   0.537210 0.064270 0.000000 -0.513021
O5    O     O_R   0.064270 0.537210 0.000000 -0.513050
O6    O     O_R   0.537210 0.935730 0.000000 -0.513063
O7    O     O_R   0.935730 0.462790 0.000000 -0.513054
O8    O     O_R   0.462790 0.064270 0.000000 -0.513021
O9    O     O_R   0.500010 0.037210 0.394200 -0.503056
O10   O     O_R   0.962790 0.500010 0.394200 -0.503008
O11   O     O_R   0.499990 0.962790 0.394200 -0.503047
O12   O     O_R   0.962790 0.435730 0.500000 -0.512992
O13   O     O_R   0.037210 0.499990 0.394200 -0.503099
O14   O     O_R   0.499990 0.037210 0.605800 -0.503056
O15   O     O_R   0.037210 0.500010 0.605800 -0.503006
O16   O     O_R   0.500010 0.962790 0.605800 -0.503047
O17   O     O_R   0.962790 0.499990 0.605800 -0.503102
O18   O     O_R   0.000010 0.537210 0.894200 -0.503041
O19   O     O_R   0.462790 0.000010 0.894200 -0.503073
O20   O     O_R   0.999990 0.462790 0.894200 -0.503063
O21   O     O_R   0.537210 0.999990 0.894200 -0.503038
O22   O     O_R   0.999990 0.537210 0.105800 -0.503034
O23   O     O_R   0.564270 0.962790 0.500000 -0.513054
O24   O     O_R   0.537210 0.000010 0.105800 -0.503073
O25   O     O_R   0.000010 0.462790 0.105800 -0.503070
O26   O     O_R   0.462790 0.999990 0.105800 -0.503038
O27   O     O_R   0.999990 0.935750 0.438770 -0.511703
O28   O     O_R   0.064250 0.999990 0.438770 -0.511717
O29   O     O_R   0.000010 0.064250 0.438770 -0.511821
O30   O     O_R   0.935750 0.000010 0.438770 -0.511790
O31   O     O_R   0.000010 0.935750 0.561230 -0.511703
O32   O     O_R   0.935750 0.999990 0.561230 -0.511716
O33   O     O_R   0.999990 0.064250 0.561230 -0.511821
O34   O     O_R   0.037210 0.564270 0.500000 -0.513106
O35   O     O_R   0.064250 0.000010 0.561230 -0.511790
O36   O     O_R   0.499990 0.435750 0.938770 -0.511792
O37   O     O_R   0.564250 0.499990 0.938770 -0.511772
O38   O     O_R   0.500010 0.564250 0.938770 -0.511745
O39   O     O_R   0.435750 0.500010 0.938770 -0.511737
O40   O     O_R   0.500010 0.435750 0.061230 -0.511786
O41   O     O_R   0.435750 0.499990 0.061230 -0.511762
O42   O     O_R   0.499990 0.564250 0.061230 -0.511751
O43   O     O_R   0.564250 0.500010 0.061230 -0.511747
O44   O     O_R   0.564270 0.037210 0.500000 -0.513056
O45   O     O_R   0.037210 0.435730 0.500000 -0.512991
O46   O     O_R   0.435730 0.962790 0.500000 -0.513054
O47   O     O_R   0.962790 0.564270 0.500000 -0.513106
O48   O     O_R   0.935730 0.537210 0.000000 -0.513041

loop_
_geom_bond_atom_site_label_1
_geom_bond_atom_site_label_2
_ccdc_geom_bond_type
C61   C70   A    
C7    C116  A    
C65   C92   S    
C112  H34   S    
C64   H61   S    
C29   C63   S    
Cu2   O33   S    
C89   O25   A    
C18   C75   S    
C31   C85   S    
C2    H28   S    
C5    C114  A    
C35   C53   A    
C84   C102  S    
Cu11  O4    S    
C75   O12   A    
C29   C112  A    
C4    H14   S    
C33   C107  S    
C3    H13   S    
C89   O22   A    
Cu2   Cu12  S    
C61   H59   S    
C55   C68   A    
C92   O35   A    
C54   C65   A    
C11   C121  A    
Cu7   O15   S    
Cu9   Cu11  S    
C12   C23   A    
C34   C51   A    
C114  H56   S    
C20   C77   S    
Cu5   O10   S    
C44   H41   S    
C90   O24   A    
C19   C76   S    
Cu7   O45   S    
C22   C79   S    
C98   O42   A    
C110  H12   S    
C33   C121  A    
C127  H10   S    
C30   C74   S    
C126  H9    S    
Cu6   O16   S    
C9    C22   A    
Cu12  O29   S    
C92   O28   A    
C2    C41   A    
C39   C57   A    
C115  H62   S    
C91   O31   A    
C118  H27   S    
C11   H21   S    
C68   C91   S    
C78   O48   A    
C102  C105  T    
C58   H55   S    
C122  H5    S    
C26   C115  A    
C116  H63   S    
Cu8   O22   S    
C84   O16   A    
C39   H37   S    
C87   O20   A    
C4    C19   A    
Cu4   O40   S    
C47   C118  A    
C19   C128  A    
C27   C110  A    
C93   O33   A    
C89   C106  S    
C45   H42   S    
C67   C94   S    
Cu5   O17   S    
C38   C56   A    
C77   O47   A    
C86   O17   A    
C23   C80   S    
C99   O41   A    
C117  H64   S    
C24   H30   S    
C53   H50   S    
Cu5   O47   S    
C51   H49   S    
C60   H58   S    
C59   C72   A    
C86   O15   A    
C13   H29   S    
C8    H18   S    
C36   H33   S    
Cu11  O6    S    
C36   C54   A    
Cu2   O31   S    
C76   O23   A    
Cu12  O30   S    
C35   H32   S    
C72   C95   S    
C121  H4    S    
C62   H60   S    
C76   O44   A    
C120  H3    S    
C40   C96   A    
C35   C41   A    
C86   C103  S    
C37   C63   A    
C103  C104  T    
C8    C117  A    
C43   C96   A    
Cu9   O2    S    
C28   C111  A    
C24   C50   A    
Cu2   O35   S    
C44   C61   A    
C43   H40   S    
C100  C108  T    
C40   C58   A    
C15   C124  A    
Cu9   O8    S    
C87   O18   A    
C32   C122  A    
C4    C113  A    
C111  H23   S    
Cu8   Cu10  S    
Cu3   O37   S    
C16   H26   S    
C17   C73   S    
C94   O30   A    
C5    C18   A    
C60   C71   A    
C2    C48   A    
C5    H15   S    
C71   C99   S    
C7    C20   A    
Cu3   O38   S    
C14   H24   S    
Cu6   O11   S    
Cu1   Cu6   S    
C62   C69   A    
C46   C64   A    
C45   C74   A    
Cu1   O9    S    
C42   H39   S    
C46   H43   S    
C21   C78   S    
C27   C114  A    
C15   H25   S    
C48   H46   S    
Cu1   O14   S    
C18   C127  A    
C37   H35   S    
C82   O9    A    
Cu1   O1    S    
C27   C41   S    
C128  H11   S    
C38   H36   S    
C88   O21   A    
C49   H47   S    
C123  H6    S    
Cu10  O20   S    
C3    C112  A    
C113  H45   S    
C46   C107  A    
C81   O8    A    
C33   C125  A    
C8    C21   A    
C88   O19   A    
Cu8   O18   S    
C3    C20   A    
C51   C67   A    
Cu8   O5    S    
C53   C66   A    
Cu3   O36   S    
C31   C119  A    
C39   C85   A    
C84   O14   A    
C43   C60   A    
C66   C93   S    
C40   H38   S    
C44   C85   A    
C16   C125  A    
C32   C96   S    
C29   C116  A    
C30   C124  A    
Cu12  O28   S    
C24   C63   A    
C81   O4    A    
C1    C26   S    
C9    C119  A    
C42   C107  A    
C13   C49   A    
C90   C108  S    
C124  H7    S    
Cu6   O46   S    
Cu3   Cu4   S    
C10   H20   S    
C101  C106  T    
C83   O10   A    
Cu5   Cu7   S    
C73   O46   A    
C38   C74   A    
C16   C25   A    
C6    C17   A    
C73   O1    A    
C14   C123  A    
C83   C101  S    
Cu5   O12   S    
C82   C100  S    
Cu10  O25   S    
C90   O26   A    
Cu9   O26   S    
C25   C81   S    
C50   H48   S    
C97   O43   A    
Cu10  O3    S    
Cu4   O43   S    
C49   C67   A    
C7    H17   S    
C30   C117  A    
C10   C23   A    
C79   O2    A    
C17   C126  A    
C95   O40   A    
C79   O6    A    
C34   C52   A    
C125  H8    S    
Cu7   O34   S    
C57   H54   S    
Cu11  O21   S    
C93   O29   A    
C55   H52   S    
C14   C22   A    
C110  C127  A    
C31   C123  A    
Cu11  O24   S    
Cu3   O39   S    
Cu6   O23   S    
C82   O11   A    
C28   C52   S    
C32   C120  A    
C94   O32   A    
C77   O34   A    
C56   H53   S    
C13   C52   A    
C59   H57   S    
C83   O13   A    
C47   H44   S    
Cu2   O32   S    
C80   O5    A    
C88   C105  S    
C26   C109  A    
C1    C118  A    
C64   C72   A    
C99   O39   A    
Cu10  O7    S    
Cu4   O41   S    
C6    C115  A    
C98   O38   A    
C10   C120  A    
C28   C113  A    
C57   C70   A    
C12   H22   S    
C87   C104  S    
C37   C55   A    
C11   C25   A    
C109  C126  A    
C15   C21   A    
C80   O3    A    
C12   C122  A    
C54   H51   S    
Cu12  O27   S    
C56   C69   A    
C42   C59   A    
C91   O27   A    
C111  C128  A    
Cu4   O42   S    
C119  H2    S    
C9    H19   S    
C58   C71   A    
Cu8   O48   S    
C109  H1    S    
C95   O36   A    
C97   O37   A    
C48   C66   A    
Cu9   O19   S    
C75   O45   A    
C50   C68   A    
C78   O7    A    
C47   C65   A    
C6    H16   S    
C34   H31   S    
C70   C98   S    
C1    C36   A    
C69   C97   S    
C45   C62   A    
Cu1   O44   S    
Cu7   O13   S    
