data_mof_unit_6400.cif
_audit_creation_date              2012-12-10T17:38:16-0500
_audit_creation_method            fapswitch 2.2
_symmetry_space_group_name_H-M    P1
_symmetry_Int_Tables_number       1
_space_group_crystal_system       triclinic
_cell_length_a                    12.315259
_cell_length_b                    13.120963
_cell_length_c                    19.363556
_cell_angle_alpha                 77.651472
_cell_angle_beta                  101.132529
_cell_angle_gamma                 116.733746
_cell_volume                      2712.92689683

loop_
_atom_site_label
_atom_site_type_symbol
_atom_type_description
_atom_site_fract_x
_atom_site_fract_y
_atom_site_fract_z
_atom_type_partial_charge
C1    C     C_R   0.854828 0.286162 0.508180 0.771090
C2    C     C_R   0.998614 0.499878 0.707990 -0.034918
C3    C     C_R   0.997733 0.498784 0.069239 0.474867
C4    C     C_R   0.997742 0.499938 0.929027 0.409347
C5    C     C_R   0.105370 0.518078 0.191959 -0.238440
C6    C     C_R   0.106147 0.514111 0.264872 0.435804
C7    C     C_R   0.998949 0.497029 0.291371 -0.241022
C8    C     C_R   0.890501 0.478147 0.244289 0.425314
C9    C     C_R   0.890547 0.476072 0.172246 -0.237086
C10   C     C_R   0.997905 0.497958 0.145464 -0.082767
C11   C     C_R   0.289659 0.000994 0.385425 -0.187684
C12   C     C_R   0.999301 0.499575 0.632306 0.762939
C13   C     C_R   0.227392 0.835925 0.477855 -0.104349
C14   C     C_R   0.808543 0.090153 0.572560 -0.179508
C15   C     C_R   0.725096 0.978134 0.593581 -0.161211
C16   C     C_R   0.603569 0.939458 0.564025 -0.118464
C17   C     C_R   0.563997 0.011427 0.510741 0.088482
C18   C     C_R   0.652632 0.119838 0.483103 0.050795
C19   C     C_R   0.439629 0.976196 0.481973 -0.004522
C20   C     C_R   0.409924 0.039391 0.417996 0.092433
C21   C     C_R   0.500574 0.140647 0.387433 -0.193125
C22   C     C_R   0.619860 0.181648 0.420188 -0.171707
C23   C     C_R   0.145159 0.713703 0.491837 0.790451
C24   C     C_R   0.344387 0.883019 0.517138 0.397061
C25   C     C_R   0.200256 0.897539 0.413611 -0.238648
C26   C     C_R   0.772592 0.162806 0.518735 -0.105026
C27   C     C_R   0.343362 0.325166 0.612373 -0.252261
C28   C     C_R   0.760618 0.646862 0.404593 0.045078
C29   C     C_R   0.664376 0.678986 0.383900 0.091270
C30   C     C_R   0.560511 0.623307 0.419967 -0.205920
C31   C     C_R   0.551496 0.534131 0.477375 -0.058818
C32   C     C_R   0.652503 0.504330 0.496507 0.225574
C33   C     C_R   0.446926 0.474170 0.516623 -0.100485
C34   C     C_R   0.999801 0.499118 0.367562 0.862250
C35   C     C_R   0.444987 0.384945 0.573549 0.075649
C36   C     C_R   0.543884 0.355619 0.591109 0.398173
C37   C     C_R   0.646284 0.416716 0.554049 -0.275177
C38   C     C_R   0.343194 0.498733 0.502067 0.040496
C39   C     C_R   0.244646 0.353256 0.595022 0.043787
C40   C     C_R   0.097860 0.498140 0.757201 -0.200747
C41   C     C_R   0.097643 0.498541 0.828992 -0.149766
C42   C     C_R   0.997895 0.500141 0.852970 0.054355
C43   C     C_R   0.898494 0.501742 0.803663 -0.144989
C44   C     C_R   0.898992 0.501903 0.731743 -0.162089
Cu1   Cu    Cu3+1 0.098280 0.475420 0.516260 0.940903
Cu2   Cu    Cu3+1 0.901720 0.524580 0.483740 0.945129
H1    H     H_    0.176160 0.497121 0.740256 0.151068
H2    H     H_    0.478851 0.189330 0.338469 0.156674
H3    H     H_    0.266226 0.047643 0.336021 0.151753
H4    H     H_    0.900436 0.121137 0.599951 0.151573
H5    H     H_    0.542514 0.851535 0.581559 0.155147
H6    H     H_    0.753834 0.922046 0.634538 0.147558
H7    H     H_    0.687042 0.259878 0.394022 0.196616
H8    H     H_    0.165994 0.307037 0.624571 0.127755
H9    H     H_    0.339446 0.256559 0.655821 0.188852
H10   H     H_    0.175598 0.497213 0.865647 0.156351
H11   H     H_    0.336823 0.565108 0.460139 0.154800
H12   H     H_    0.841290 0.690558 0.376717 0.137889
H13   H     H_    0.488856 0.651676 0.401853 0.177816
H14   H     H_    0.719694 0.392940 0.573107 0.215813
H15   H     H_    0.820330 0.503110 0.820498 0.157888
H16   H     H_    0.821058 0.502904 0.694900 0.163074
H17   H     H_    0.189712 0.537146 0.171914 0.182176
H18   H     H_    0.805742 0.456132 0.137407 0.177361
H19   H     H_    0.110870 0.862952 0.383425 0.167773
N1    N     N_R   0.897842 0.491885 0.953709 -0.238894
N2    N     N_R   0.897813 0.491244 0.022481 -0.236016
N3    N     N_R   0.097633 0.507004 0.044500 -0.236440
N4    N     N_R   0.097601 0.507481 0.975787 -0.240088
N5    N     N_R   0.246290 0.438200 0.540910 -0.182760
N6    N     N_R   0.754310 0.561190 0.459520 -0.200378
O1    O     O_R   0.972510 0.318130 0.520450 -0.577450
O2    O     O_R   0.806530 0.359650 0.492990 -0.598860
O3    O     O_R   0.083010 0.479220 0.613590 -0.592967
O4    O     O_R   0.917030 0.520740 0.586130 -0.595618
O5    O     O_R   0.193470 0.640350 0.507010 -0.597403
O6    O     O_R   0.027490 0.681870 0.479550 -0.579041
O7    O     O_R   0.082970 0.479260 0.413870 -0.543263
O8    O     O_R   0.916990 0.520780 0.386410 -0.554350
O9    O     O_3   0.358422 0.874584 0.591220 -0.605936
C45   C     C_3   0.315023 0.760672 0.626907 -0.297632
H20   H     H_    0.346389 0.706912 0.606166 0.172532
H21   H     H_    0.214337 0.722152 0.626845 0.170682
H22   H     H_    0.354172 0.763381 0.683461 0.183275
O10   O     O_3   0.544352 0.272700 0.649020 -0.594113
C46   C     C_3   0.536863 0.175373 0.624892 -0.250505
H23   H     H_    0.626030 0.192290 0.609026 0.160510
H24   H     H_    0.462656 0.147239 0.580378 0.175902
H25   H     H_    0.515238 0.102715 0.669359 0.213007
I1    I     I_    0.676010 0.811911 0.298134 -0.397135
O11   O     O_3   0.214541 0.536447 0.309184 -0.564902
C47   C     C_3   0.242934 0.441134 0.318078 -0.272091
H26   H     H_    0.167200 0.359924 0.339296 0.165549
H27   H     H_    0.325003 0.455701 0.357296 0.181943
H28   H     H_    0.265608 0.431471 0.267700 0.156432
O12   O     O_3   0.781565 0.449455 0.270284 -0.575480
C48   C     C_3   0.742406 0.537780 0.243787 -0.250109
H29   H     H_    0.816275 0.624307 0.252849 0.159459
H30   H     H_    0.665518 0.521833 0.272723 0.191489
H31   H     H_    0.707682 0.537189 0.186416 0.160197

loop_
_geom_bond_atom_site_label_1
_geom_bond_atom_site_label_2
_ccdc_geom_bond_type
C40   H1    S    
C38   N5    A    
C12   O3    A    
C9    H18   S    
C41   C42   A    
C3    N3    A    
C8    O12   S    
C16   H5    S    
C23   O5    A    
C2    C12   S    
C48   H31   S    
C45   H20   S    
C7    C8    A    
C14   H4    S    
O10   C46   S    
C13   C23   S    
Cu1   O5    S    
C5    C6    A    
C28   C29   A    
C30   C31   A    
C33   C35   A    
C46   H24   S    
C39   H8    S    
C11   C25   A    
C15   C16   A    
C5    H17   S    
Cu2   O4    S    
C48   H30   S    
N3    N4    A    
C24   O9    S    
C19   C20   A    
C2    C44   A    
C8    C9    A    
C18   C26   A    
C31   C33   A    
Cu1   O7    S    
C32   N6    A    
C9    C10   A    
C21   H2    S    
N1    N2    A    
C21   C22   A    
O12   C48   S    
Cu1   O1    S    
C13   C25   A    
C4    N4    A    
C45   H21   S    
C48   H29   S    
C22   H7    S    
C11   C20   A    
C1    O1    A    
C25   H19   S    
C27   C39   A    
O11   C47   S    
C46   H23   S    
C16   C17   A    
C27   C35   A    
Cu1   Cu2   S    
C47   H28   S    
C14   C26   A    
C13   C24   A    
Cu1   O3    S    
C35   C36   A    
C43   C44   A    
C41   H10   S    
C29   C30   A    
C11   H3    S    
C34   O8    A    
C38   H11   S    
C31   C32   A    
C30   H13   S    
C47   H27   S    
C17   C18   A    
C32   C37   A    
C23   O6    A    
Cu2   N6    S    
C40   C41   A    
C1    C26   S    
C7    C34   S    
C28   N6    A    
C42   C43   A    
C45   H22   S    
C43   H15   S    
C36   C37   A    
Cu1   N5    S    
C18   C22   A    
C29   I1    S    
C3    N2    A    
O9    C45   S    
C46   H25   S    
Cu2   O6    S    
C6    C7    A    
C28   H12   S    
C36   O10   S    
C33   C38   A    
C44   H16   S    
C15   H6    S    
C19   C24   A    
C1    O2    A    
C5    C10   A    
C3    C10   S    
C34   O7    A    
C4    N1    A    
Cu2   O8    S    
C4    C42   S    
C47   H26   S    
C17   C19   A    
C39   N5    A    
C27   H9    S    
C37   H14   S    
C2    C40   A    
C20   C21   A    
C12   O4    A    
C14   C15   A    
Cu2   O2    S    
C6    O11   S    
