data_mof_unit_39963.cif
_audit_creation_date              2013-03-05T16:03:41-0500
_audit_creation_method            fapswitch 2.2
_symmetry_space_group_name_H-M    P1
_symmetry_Int_Tables_number       1
_space_group_crystal_system       triclinic
_cell_length_a                    8.707725
_cell_length_b                    10.770046
_cell_length_c                    9.591872
_cell_angle_alpha                 89.073229
_cell_angle_beta                  97.316423
_cell_angle_gamma                 91.911838
_cell_volume                      891.66532763

loop_
_atom_site_label
_atom_site_type_symbol
_atom_site_description
_atom_site_fract_x
_atom_site_fract_y
_atom_site_fract_z
_atom_type_partial_charge
O1    O     O_R   0.499990 0.319660 0.618740 -0.591534
O2    O     O_R   0.500010 0.680340 0.381260 -0.591539
O3    O     O_R   0.499990 0.319630 0.381170 -0.581863
O4    O     O_R   0.500010 0.680370 0.618830 -0.581845
C1    C     C_R   0.498144 0.262690 0.500692 0.816823
C2    C     C_R   0.501853 0.737310 0.499307 0.816826
O5    O     O_R   0.274840 0.500010 0.591370 -0.608668
O6    O     O_R   0.725160 0.499990 0.408630 -0.608666
O7    O     O_R   0.274830 0.499980 0.353800 -0.568247
O8    O     O_R   0.725170 0.500020 0.646200 -0.568242
C3    C     C_R   0.204152 0.499315 0.464231 0.877252
C4    C     C_R   0.795848 0.500684 0.535769 0.877280
Cu1   Cu    Cu3+1 0.500000 0.500020 0.640660 0.955638
Cu2   Cu    Cu3+1 0.500000 0.499980 0.359340 0.955627
N1    N     N_R   0.500040 0.500030 0.852080 -0.232828
N2    N     N_R   0.499960 0.499970 0.147920 -0.232824
C5    C     C_2   0.038455 0.498144 0.444464 -0.380731
C6    C     C_2   0.961545 0.501852 0.555536 -0.380723
H1    H     H_    0.979529 0.494566 0.337576 0.206847
H2    H     H_    0.020471 0.505430 0.662424 0.206847
C7    C     C_R   0.372061 0.061731 0.424866 -0.109019
C8    C     C_R   0.627914 0.938270 0.575148 -0.109000
C9    C     C_R   0.376960 0.931312 0.422997 0.248060
C10   C     C_R   0.623022 0.068686 0.577009 0.248046
C11   C     C_R   0.503893 0.871655 0.497757 -0.190877
C12   C     C_R   0.496092 0.128346 0.502245 -0.190876
C13   C     C_R   0.393457 0.430546 0.065151 0.029965
C14   C     C_R   0.606543 0.569454 0.934849 0.029979
H3    H     H_    0.310081 0.374459 0.115140 0.185062
H4    H     H_    0.689919 0.625541 0.884860 0.185089
C15   C     C_R   0.392028 0.429334 0.916743 0.094150
C16   C     C_R   0.607972 0.570666 0.083257 0.094139
C17   C     C_2   0.235760 0.130099 0.355315 0.385965
H5    H     H_    0.207841 0.218929 0.395862 0.041589
O9    O     O_2   0.155326 0.090702 0.250966 -0.514418
C18   C     C_2   0.764205 0.869905 0.644719 0.386027
H6    H     H_    0.792210 0.781127 0.604100 0.041529
O10   O     O_2   0.844514 0.909242 0.749163 -0.514385
N3    N     N_2   0.253108 0.857164 0.352085 -0.397514
H7    H     H_    0.221660 0.878915 0.247666 0.318818
C19   C     C_3   0.124711 0.830769 0.431083 -0.596186
H8    H     H_    0.065335 0.917409 0.449449 0.222998
H9    H     H_    0.166152 0.786228 0.533681 0.224412
H10   H     H_    0.040030 0.766060 0.371053 0.238506
N4    N     N_2   0.746884 0.142831 0.647911 -0.397541
H11   H     H_    0.778332 0.121083 0.752332 0.318816
C20   C     C_3   0.875289 0.169197 0.568913 -0.596255
H12   H     H_    0.934656 0.082547 0.550575 0.222972
H13   H     H_    0.959972 0.233912 0.628930 0.238510
H14   H     H_    0.833857 0.213721 0.466303 0.224458
C21   C     C_2   0.271827 0.348412 0.836447 0.355419
H15   H     H_    0.281881 0.317769 0.732233 0.123063
O11   O     O_2   0.156909 0.312432 0.888230 -0.552729
C22   C     C_2   0.728173 0.651589 0.163553 0.355445
H16   H     H_    0.718119 0.682231 0.267767 0.123058
O12   O     O_2   0.843090 0.687570 0.111770 -0.552704

loop_
_geom_bond_atom_site_label_1
_geom_bond_atom_site_label_2
_geom_bond_distance
_ccdc_geom_bond_type
O7    Cu2   1.954663 S    
N1    C15   1.390884 A    
Cu2   N2    2.027870 S    
Cu1   Cu2   2.698392 S    
C1    C12   1.446261 S    
C13   H3    1.082559 S    
C8    C18   1.495518 S    
C19   H8    1.108951 S    
C20   H12   1.108948 S    
Cu1   N1    2.027872 S    
O5    Cu1   1.957421 S    
O6    C4    1.294188 A    
N2    C13   1.354558 A    
C14   H4    1.082559 S    
C17   H5    1.085022 S    
C20   H13   1.109735 S    
N3    C19   1.446586 S    
N4    H11   1.029502 S    
O5    C3    1.294186 A    
C19   H9    1.111144 S    
N1    C14   1.354557 A    
O2    C2    1.294607 A    
O3    Cu2   1.950260 S    
O8    C4    1.290854 A    
O1    C1    1.294607 A    
C10   N4    1.427147 S    
C8    C10   1.407126 A    
C16   C22   1.484526 S    
C18   H6    1.085026 S    
C17   O9    1.219736 D    
C7    C12   1.411894 A    
C10   C12   1.406894 A    
C5    C6    1.330434 D    
C20   H14   1.111143 S    
C6    H2    1.087147 S    
O7    C3    1.290853 A    
C7    C9    1.407161 A    
O2    Cu2   1.957206 S    
C19   H10   1.109737 S    
C22   O12   1.221764 D    
C2    C11   1.446276 S    
O1    Cu1   1.957205 S    
C13   C15   1.422244 A    
C18   O10   1.219702 D    
O3    C1    1.293038 A    
C14   C16   1.422245 A    
C9    C11   1.406879 A    
C7    C17   1.495542 S    
C8    C11   1.411879 A    
O4    C2    1.293043 A    
N4    C20   1.446587 S    
C4    C6    1.430773 S    
N3    H7    1.029496 S    
N2    C16   1.390885 A    
C3    C5    1.430774 S    
O6    Cu2   1.957419 S    
C5    H1    1.087146 S    
C22   H16   1.072702 S    
C9    N3    1.427138 S    
C21   H15   1.072703 S    
O4    Cu1   1.950261 S    
C15   C21   1.484526 S    
C21   O11   1.221764 D    
O8    Cu1   1.954661 S    
