data_mof_unit_64834.cif
_audit_creation_date              2013-03-05T15:54:33-0500
_audit_creation_method            fapswitch 2.2
_symmetry_space_group_name_H-M    P1
_symmetry_Int_Tables_number       1
_space_group_crystal_system       triclinic
_cell_length_a                    18.75151
_cell_length_b                    18.814138
_cell_length_c                    18.870068
_cell_angle_alpha                 109.273948
_cell_angle_beta                  109.483371
_cell_angle_gamma                 109.374183
_cell_volume                      5142.49886892

loop_
_atom_site_label
_atom_site_type_symbol
_atom_site_description
_atom_site_fract_x
_atom_site_fract_y
_atom_site_fract_z
_atom_type_partial_charge
O1    O     O_R   0.537990 0.090490 0.948120 -0.591870
O2    O     O_R   0.642370 0.089850 0.051860 -0.579182
C1    C     C_R   0.619014 0.118779 0.999850 0.790909
O3    O     O_R   0.447800 0.089920 0.037730 -0.581758
O4    O     O_R   0.552180 0.089280 0.141460 -0.578239
C2    C     C_R   0.497742 0.116247 0.118016 0.863377
Cu1   Cu    Cu3+1 0.438200 0.000380 0.938580 1.056569
Cu2   Cu    Cu3+1 0.561800 0.999620 0.061420 1.020472
O5    O     O_R   0.357630 0.910150 0.948140 -0.542137
O6    O     O_R   0.462010 0.909510 0.051880 -0.588082
O7    O     O_R   0.447820 0.910720 0.858540 -0.550818
O8    O     O_R   0.552200 0.910080 0.962270 -0.593295
C3    C     C_R   0.381178 0.880070 0.998873 0.871701
C4    C     C_R   0.500179 0.881970 0.881895 0.815046
C5    C     C_2   0.505845 0.247410 0.327190 0.369845
C6    C     C_2   0.511762 0.321047 0.327276 -0.410985
H1    H     H_    0.529970 0.338638 0.284071 0.141296
C7    C     C_2   0.515851 0.187277 0.262346 -0.188045
C8    C     C_2   0.490192 0.177327 0.182706 -0.357936
H2    H     H_    0.456820 0.210156 0.161920 0.167812
C9    C     C_R   0.765271 0.186168 0.016322 -0.214815
H3    H     H_    0.775523 0.136974 0.028447 0.190444
C10   C     C_R   0.831428 0.250457 0.018147 0.340863
C11   C     C_R   0.817228 0.314685 0.003239 -0.115460
C12   C     C_R   0.738393 0.313824 0.987239 -0.220221
C13   C     C_R   0.672819 0.248871 0.984545 -0.148022
C14   C     C_R   0.686370 0.185315 0.999725 -0.079743
C15   C     C_R   0.500795 0.744134 0.823267 -0.104102
C16   C     C_R   0.499094 0.679536 0.758699 -0.157209
C17   C     C_R   0.499687 0.687627 0.687731 -0.003258
C18   C     C_R   0.500251 0.759495 0.680526 -0.103614
H4    H     H_    0.500254 0.765904 0.625533 0.160137
C19   C     C_R   0.498964 0.822599 0.743605 -0.154903
H5    H     H_    0.498617 0.877672 0.737251 0.151220
C20   C     C_R   0.500100 0.815383 0.815429 -0.004645
C21   C     C_R   0.321603 0.822669 0.077296 -0.254444
H6    H     H_    0.375996 0.880243 0.136877 0.199559
C22   C     C_R   0.259755 0.759926 0.081000 0.357168
C23   C     C_R   0.189233 0.685383 0.002811 -0.164954
C24   C     C_R   0.182658 0.674428 0.923361 -0.201766
H7    H     H_    0.128648 0.616668 0.863723 0.206764
C25   C     C_R   0.245096 0.736741 0.919783 0.339967
C26   C     C_R   0.314735 0.811787 0.997852 -0.194393
O9    O     O_R   0.538000 0.450530 0.592770 -0.574421
O10   O     O_R   0.642390 0.554900 0.592760 -0.585765
C27   C     C_R   0.619043 0.502919 0.621766 0.820720
O11   O     O_R   0.447840 0.361480 0.413570 -0.537176
O12   O     O_R   0.552220 0.465860 0.413560 -0.588660
C28   C     C_R   0.503372 0.385366 0.388026 0.891494
Cu3   Cu    Cu3+1 0.438220 0.441470 0.503160 1.096393
Cu4   Cu    Cu3+1 0.561830 0.565070 0.503150 1.024158
O13   O     O_R   0.357660 0.451630 0.413550 -0.546074
O14   O     O_R   0.462040 0.556010 0.413540 -0.587926
O15   O     O_R   0.447820 0.540680 0.592750 -0.556753
O16   O     O_R   0.552200 0.645050 0.592740 -0.594096
C29   C     C_R   0.381169 0.504553 0.385636 0.865555
C30   C     C_R   0.499989 0.621324 0.621368 0.805353
O17   O     O_R   0.909730 0.448730 0.858460 -0.585810
O18   O     O_R   0.909750 0.552440 0.962210 -0.570804
C31   C     C_R   0.882040 0.501752 0.881939 0.827969
O19   O     O_R   0.909720 0.357980 0.948050 -0.566165
O20   O     O_R   0.909750 0.461690 0.051790 -0.591881
C32   C     C_R   0.882047 0.381256 0.000987 0.822677
Cu5   Cu    Cu3+1 0.999900 0.438590 0.938490 1.099292
Cu6   Cu    Cu3+1 0.999930 0.561410 0.061340 1.094151
O21   O     O_R   0.090070 0.447560 0.037620 -0.533891
O22   O     O_R   0.090100 0.551270 0.141360 -0.577403
O23   O     O_R   0.090070 0.538310 0.948030 -0.577603
O24   O     O_R   0.090100 0.642020 0.051770 -0.534607
C33   C     C_R   0.120217 0.500586 0.118061 0.930553
C34   C     C_R   0.120612 0.618804 0.001607 0.933711
C35   C     C_R   0.766798 0.579731 0.747816 -0.222823
H8    H     H_    0.778335 0.638110 0.743436 0.193460
C36   C     C_R   0.832878 0.581147 0.811764 0.342726
C37   C     C_R   0.817097 0.504045 0.815661 -0.117871
C38   C     C_R   0.736645 0.427996 0.756816 -0.227943
C39   C     C_R   0.671134 0.427937 0.694496 -0.103168
C40   C     C_R   0.686367 0.503491 0.689134 -0.091184
C41   C     C_R   0.322304 0.499444 0.246237 -0.262482
H9    H     H_    0.377791 0.496779 0.242219 0.194007
C42   C     C_R   0.259965 0.498271 0.179158 0.361753
C43   C     C_R   0.188091 0.501717 0.185390 -0.162668
C44   C     C_R   0.180382 0.506988 0.258072 -0.205601
H10   H     H_    0.125333 0.510313 0.262626 0.204827
C45   C     C_R   0.243289 0.509297 0.325589 0.340890
C46   C     C_R   0.314556 0.504952 0.318871 -0.190154
N1    N     N_R   0.497701 0.228757 0.393106 0.147332
O25   O     O_R   0.457390 0.148518 0.374744 -0.306898
O26   O     O_R   0.543537 0.289633 0.473828 -0.374428
H11   H     H_    0.498922 0.624197 0.764774 0.148522
N2    N     N_R   0.271255 0.771814 0.164174 0.140189
O27   O     O_R   0.306796 0.849460 0.228411 -0.302033
O28   O     O_R   0.258616 0.707509 0.179587 -0.333611
N3    N     N_R   0.238370 0.721284 0.837279 0.140759
O29   O     O_R   0.307304 0.739099 0.828885 -0.359106
O30   O     O_R   0.162115 0.677837 0.768010 -0.297507
N4    N     N_R   0.915480 0.659989 0.869892 0.131050
O31   O     O_R   0.919210 0.734849 0.890760 -0.318437
O32   O     O_R   0.987815 0.657600 0.892933 -0.377057
H12   H     H_    0.724176 0.368980 0.760136 0.161275
H13   H     H_    0.609114 0.368621 0.649810 0.203201
N5    N     N_R   0.272478 0.496672 0.107571 0.139726
O33   O     O_R   0.259052 0.546887 0.077559 -0.333087
O34   O     O_R   0.309766 0.455040 0.080899 -0.329043
N6    N     N_R   0.235403 0.519292 0.401130 0.140875
O35   O     O_R   0.303577 0.570914 0.478085 -0.355971
O36   O     O_R   0.158691 0.486684 0.393960 -0.300519
H14   H     H_    0.541625 0.147912 0.279671 0.202597
N7    N     N_R   0.912681 0.250964 0.037705 0.130951
O37   O     O_R   0.914107 0.178416 0.015821 -0.319402
O38   O     O_R   0.986222 0.323681 0.087376 -0.375063
H15   H     H_    0.727159 0.362739 0.975365 0.157358
H16   H     H_    0.612130 0.249012 0.971974 0.163943
H17   H     H_    0.501137 0.737913 0.878436 0.158371

loop_
_geom_bond_atom_site_label_1
_geom_bond_atom_site_label_2
_geom_bond_distance
_ccdc_geom_bond_type
C5    C7    1.480703 S    
N1    O25   1.301261 A    
C39   H13   1.082802 S    
C8    H2    1.086096 S    
C3    C26   1.452166 S    
C42   C43   1.411772 A    
Cu1   Cu2   2.684236 S    
O11   C28   1.298442 A    
C45   C46   1.409696 A    
Cu1   O7    1.964927 S    
C2    C8    1.458707 S    
N6    O36   1.301434 A    
C15   C16   1.390470 A    
C13   C14   1.398428 A    
O20   C32   1.291288 A    
Cu5   O23   1.969903 S    
C21   H6    1.084310 S    
N7    O38   1.300535 A    
O4    C2    1.298349 A    
O7    C4    1.292995 A    
O10   Cu4   1.969597 S    
O17   C31   1.290881 A    
C5    C6    1.352084 D    
C17   C30   1.449980 S    
O19   C32   1.290989 A    
C7    C8    1.340581 D    
O24   C34   1.291610 A    
O5    C3    1.293538 A    
C35   C40   1.400135 A    
C12   H15   1.083866 S    
O12   Cu4   1.965945 S    
C18   H4    1.083529 S    
C15   C20   1.400052 A    
C6    H1    1.086109 S    
Cu6   O22   1.968864 S    
Cu3   O13   1.969478 S    
C10   C11   1.413576 A    
C18   C19   1.390029 A    
C36   N4    1.439011 S    
C39   C40   1.399022 A    
C24   C25   1.394308 A    
C9    C14   1.399681 A    
O18   C31   1.290884 A    
O1    Cu1   1.969029 S    
C9    H3    1.083721 S    
N5    O33   1.300989 A    
O3    Cu1   1.965762 S    
C45   N6    1.439203 S    
C16   H11   1.083491 S    
N4    O32   1.300313 A    
O9    C27   1.294528 A    
N4    O31   1.301446 A    
O11   Cu3   1.964522 S    
C42   N5    1.438760 S    
O17   Cu5   1.968959 S    
C22   C23   1.412259 A    
C10   N7    1.438974 S    
C36   C37   1.413279 A    
C11   C12   1.399955 A    
C35   C36   1.397025 A    
C27   C40   1.456468 S    
N2    O27   1.301429 A    
C41   C42   1.395202 A    
Cu3   Cu4   2.684137 S    
C12   C13   1.388617 A    
O10   C27   1.294935 A    
C22   N2    1.438867 S    
Cu4   O14   1.969065 S    
Cu5   O21   1.969500 S    
O19   Cu5   1.968433 S    
N3    O30   1.301424 A    
C37   C38   1.399157 A    
C1    C14   1.455072 S    
C16   C17   1.400025 A    
N2    O28   1.300957 A    
C29   C46   1.452684 S    
C44   H10   1.084124 S    
C17   C18   1.399907 A    
Cu2   O8    1.965763 S    
C19   H5    1.083510 S    
Cu3   O15   1.966040 S    
C6    C28   1.460840 S    
N5    O34   1.301383 A    
C15   H17   1.083507 S    
O3    C2    1.291518 A    
O12   C28   1.291583 A    
C44   C45   1.394087 A    
O8    C4    1.293385 A    
C11   C32   1.451693 S    
C9    C10   1.396994 A    
C25   C26   1.410420 A    
C4    C20   1.450096 S    
C5    N1    1.439779 S    
O14   C29   1.292632 A    
O9    Cu3   1.968946 S    
Cu1   O5    1.969588 S    
C24   H7    1.084081 S    
O20   Cu6   1.969902 S    
C25   N3    1.438762 S    
O2    Cu2   1.969586 S    
C35   H8    1.083625 S    
O6    C3    1.292513 A    
O4    Cu2   1.964927 S    
C38   H12   1.083930 S    
N6    O35   1.301177 A    
C31   C37   1.450359 S    
O22   C33   1.291375 A    
Cu5   Cu6   2.678706 S    
O16   C30   1.292923 A    
O2    C1    1.294345 A    
C13   H16   1.083364 S    
N7    O37   1.301442 A    
O18   Cu6   1.969594 S    
C38   C39   1.388013 A    
O21   C33   1.293313 A    
O23   C34   1.292734 A    
Cu6   O24   1.968435 S    
C21   C22   1.394130 A    
C19   C20   1.399957 A    
Cu4   O16   1.964546 S    
N3    O29   1.300959 A    
C33   C43   1.456039 S    
C7    H14   1.086704 S    
C41   H9    1.084225 S    
C23   C24   1.400435 A    
Cu2   O6    1.969030 S    
C43   C44   1.401342 A    
N1    O26   1.300978 A    
C23   C34   1.455213 S    
C21   C26   1.398899 A    
O1    C1    1.294471 A    
C41   C46   1.399817 A    
O13   C29   1.293486 A    
O15   C30   1.293283 A    
