data_mof_unit_23862.cif
_audit_creation_date              2012-10-26T20:17:36-0400
_audit_creation_method            fapswitch 2.2
_symmetry_space_group_name_H-M    P1
_symmetry_Int_Tables_number       1
_space_group_crystal_system       triclinic
_cell_length_a                    27.821881
_cell_length_b                    8.647133
_cell_length_c                    7.485872
_cell_angle_alpha                 101.69756
_cell_angle_beta                  93.945847
_cell_angle_gamma                 92.922703
_cell_volume                      1755.47230963

loop_
_atom_site_label
_atom_site_type_symbol
_atom_type_description
_atom_site_fract_x
_atom_site_fract_y
_atom_site_fract_z
_atom_type_partial_charge
C1    C     C_R   0.497010 0.200826 0.456829 0.574925
C2    C     C_R   0.868370 0.367373 0.462268 0.020386
C3    C     C_R   0.354092 0.494046 0.506690 0.002183
C4    C     C_R   0.645900 0.506398 0.493295 0.002224
C5    C     C_R   0.969862 0.356764 0.444501 -0.012690
C6    C     C_R   0.030107 0.645186 0.554994 -0.012688
C7    C     C_R   0.978755 0.648201 0.539849 0.030579
C8    C     C_R   0.021210 0.353748 0.459664 0.030587
C9    C     C_R   0.949222 0.504106 0.496971 0.025156
C10   C     C_R   0.050747 0.497836 0.502549 0.025159
C11   C     C_R   0.937987 0.221295 0.365098 -0.039454
C12   C     C_R   0.502991 0.799175 0.543174 0.574876
C13   C     C_R   0.061985 0.780650 0.634377 -0.039434
C14   C     C_R   0.887836 0.224725 0.380488 0.095928
C15   C     C_R   0.112141 0.777194 0.619033 0.095936
C16   C     C_R   0.407456 0.500162 0.503043 0.572057
C17   C     C_R   0.592543 0.499886 0.496959 0.572066
C18   C     C_R   0.044379 0.210800 0.446325 -0.104914
C19   C     C_R   0.955578 0.791143 0.553215 -0.104910
C20   C     C_2   0.486062 0.037368 0.448470 0.055677
C21   C     C_2   0.513939 0.962637 0.551553 0.055664
C22   C     C_R   0.172919 0.342953 0.452473 0.426542
C23   C     C_R   0.101631 0.493229 0.498282 -0.049128
C24   C     C_R   0.827047 0.658919 0.547235 0.426593
C25   C     C_R   0.180968 0.624385 0.507241 0.447676
C26   C     C_R   0.819021 0.377473 0.492430 0.447617
C27   C     C_R   0.279365 0.531639 0.660493 0.155925
C28   C     C_R   0.720625 0.469989 0.339275 0.155892
C29   C     C_R   0.330278 0.543913 0.668840 0.087622
C30   C     C_R   0.669719 0.457009 0.331073 0.087673
C31   C     C_R   0.326085 0.434259 0.340828 -0.128440
C32   C     C_R   0.673906 0.566272 0.659150 -0.128482
C33   C     C_R   0.275989 0.426960 0.333138 -0.049323
C34   C     C_R   0.898339 0.508691 0.501285 -0.049113
C35   C     C_R   0.724004 0.574203 0.666717 -0.049323
C36   C     C_R   0.252504 0.477701 0.490961 0.213148
C37   C     C_R   0.747485 0.524014 0.508785 0.213182
C38   C     C_1   0.454296 0.342106 0.930430 0.471209
C39   C     C_1   0.545704 0.657896 0.069574 0.471149
C40   C     C_1   0.954281 0.085999 0.241807 0.214850
C41   C     C_1   0.045691 0.915981 0.757602 0.214832
C42   C     C_R   0.122742 0.346343 0.458011 0.035803
C43   C     C_R   0.877222 0.655565 0.541612 0.035783
C44   C     C_R   0.093825 0.206447 0.437245 -0.076224
C45   C     C_R   0.906130 0.795479 0.562359 -0.076226
C46   C     C_R   0.131609 0.634528 0.537317 0.020352
Cu1   Cu    Cu3+1 0.505380 0.517380 0.684380 1.063483
Cu2   Cu    Cu3+1 0.494620 0.482620 0.315620 1.063492
H1    H     H_    0.342919 0.393296 0.215095 0.176189
H2    H     H_    0.657072 0.606736 0.784992 0.176197
H3    H     H_    0.255225 0.382764 0.203503 0.180295
H4    H     H_    0.744768 0.618385 0.796355 0.180321
H5    H     H_    0.109366 0.092540 0.417941 0.185211
H6    H     H_    0.890581 0.909381 0.581691 0.185222
H7    H     H_    0.025214 0.100317 0.449793 0.122604
H8    H     H_    0.974734 0.901633 0.549720 0.122614
I1    I     I_    0.631718 0.349840 0.074917 -0.201470
I2    I     I_    0.368329 0.649949 0.925474 -0.201858
I3    I     I_    0.758819 0.413184 0.097523 -0.207792
I4    I     I_    0.241155 0.589024 0.902161 -0.207260
I5    I     I_    0.842105 0.020702 0.238285 -0.149584
I6    I     I_    0.157873 0.981207 0.761234 -0.149685
I7    I     I_    0.414438 0.954508 0.343215 -0.201365
I8    I     I_    0.585554 0.045541 0.656976 -0.201321
N1    N     N_R   0.200870 0.481004 0.478429 -0.397521
N2    N     N_R   0.799111 0.520831 0.521287 -0.397568
N3    N     N_2   0.486510 0.456430 0.038510 -0.197171
N4    N     N_2   0.513490 0.543570 0.961490 -0.197176
N5    N     N_1   0.427072 0.246031 0.842772 -0.274811
N6    N     N_1   0.572928 0.753974 0.157237 -0.274915
N7    N     N_1   0.966855 0.977097 0.143330 -0.250498
N8    N     N_1   0.033118 0.024912 0.856027 -0.250521
O1    O     O_R   0.503500 0.286120 0.619780 -0.505466
O2    O     O_2   0.806252 0.798529 0.576878 -0.427980
O3    O     O_2   0.790832 0.246643 0.494781 -0.393358
O4    O     O_2   0.209171 0.755189 0.504932 -0.393317
O5    O     O_R   0.496500 0.713880 0.380220 -0.505458
O6    O     O_R   0.494410 0.256780 0.308360 -0.491272
O7    O     O_R   0.505590 0.743220 0.691640 -0.491288
O8    O     O_R   0.434810 0.514700 0.655690 -0.492912
O9    O     O_R   0.565190 0.485300 0.344310 -0.492959
O10   O     O_R   0.425720 0.485350 0.344280 -0.505901
O11   O     O_R   0.574280 0.514650 0.655720 -0.505930
O12   O     O_2   0.193700 0.203353 0.422977 -0.428176

loop_
_geom_bond_atom_site_label_1
_geom_bond_atom_site_label_2
_ccdc_geom_bond_type
C19   H8    S    
C12   O7    A    
C40   N7    T    
C27   C29   A    
C39   N4    S    
Cu1   O7    S    
C13   C41   S    
C23   C42   A    
C35   C37   A    
C5    C11   A    
C27   I4    S    
C11   C14   A    
C30   I1    S    
C33   C36   A    
Cu2   O9    S    
Cu2   O6    S    
C3    C29   A    
C21   I8    S    
C44   H5    S    
C39   N6    T    
C31   C33   A    
Cu1   O11   S    
C24   N2    A    
C2    C34   A    
C38   N5    T    
C23   C46   A    
C37   N2    S    
C1    O6    A    
C42   C44   A    
Cu1   O8    S    
C31   H1    S    
N3    N4    D    
C26   N2    A    
C32   C35   A    
C25   N1    A    
C38   N3    S    
Cu1   O1    S    
C36   N1    S    
C14   I5    S    
C12   C21   S    
C8    C18   A    
C16   O8    A    
C22   O12   S    
Cu2   O5    S    
C22   N1    A    
C5    C9    A    
C18   C44   A    
Cu1   Cu2   S    
C12   O5    A    
C16   O10   A    
C26   O3    S    
C2    C26   A    
C29   I2    S    
C3    C31   A    
C43   C45   A    
C32   H2    S    
C4    C32   A    
C18   H7    S    
C41   N8    T    
C4    C17   S    
C45   H6    S    
C7    C19   A    
C13   C15   A    
C9    C34   A    
C10   C23   A    
Cu1   N4    S    
C28   I3    S    
C7    C9    A    
C1    C20   S    
C34   C43   A    
C6    C10   A    
C5    C8    A    
C19   C45   A    
C6    C7    A    
C27   C36   A    
C33   H3    S    
C25   O4    S    
C1    O1    A    
C20   I7    S    
C28   C30   A    
C6    C13   A    
C24   O2    S    
C22   C42   A    
C28   C37   A    
C15   I6    S    
Cu2   O10   S    
C17   O9    A    
Cu2   N3    S    
C11   C40   S    
C2    C14   A    
C20   C21   D    
C8    C10   A    
C35   H4    S    
C24   C43   A    
C15   C46   A    
C17   O11   A    
C25   C46   A    
C4    C30   A    
C3    C16   S    
