data_mof_unit_47746.cif
_audit_creation_date              2012-10-26T21:02:36-0400
_audit_creation_method            fapswitch 2.2
_symmetry_space_group_name_H-M    P1
_symmetry_Int_Tables_number       1
_space_group_crystal_system       triclinic
_cell_length_a                    12.313503
_cell_length_b                    13.118549
_cell_length_c                    15.041498
_cell_angle_alpha                 77.533806
_cell_angle_beta                  101.04498
_cell_angle_gamma                 116.21925
_cell_volume                      2115.47059658

loop_
_atom_site_label
_atom_site_type_symbol
_atom_type_description
_atom_site_fract_x
_atom_site_fract_y
_atom_site_fract_z
_atom_type_partial_charge
C1    C     C_R   0.855096 0.286376 0.506452 0.538554
C2    C     C_R   0.047158 0.431238 0.833542 -0.109515
C3    C     C_R   0.995461 0.495307 0.767960 -0.028594
C4    C     C_R   0.998672 0.498812 0.671127 0.547145
C5    C     C_R   0.940808 0.555475 0.794877 -0.133129
C6    C     C_R   0.270039 0.039902 0.435763 -0.116517
C7    C     C_R   0.226776 0.837681 0.476990 -0.018426
C8    C     C_R   0.818561 0.082661 0.555447 -0.158063
C9    C     C_R   0.739953 0.969946 0.583916 0.033955
C10   C     C_R   0.613361 0.935320 0.568530 0.091156
C11   C     C_R   0.564579 0.010913 0.509597 0.025572
C12   C     C_R   0.942661 0.555656 0.073516 0.021687
C13   C     C_R   0.647013 0.124829 0.478807 -0.012849
C14   C     C_R   0.437626 0.980950 0.483206 0.014952
C15   C     C_R   0.395403 0.067520 0.444885 0.024824
C16   C     C_R   0.144812 0.714166 0.487451 0.548830
C17   C     C_R   0.478894 0.177214 0.411236 -0.018908
C18   C     C_R   0.601133 0.199687 0.419805 -0.117884
C19   C     C_R   0.351916 0.867105 0.487422 -0.151351
C20   C     C_R   0.185850 0.926254 0.455417 -0.022527
C21   C     C_R   0.773041 0.162820 0.509739 -0.025167
C22   C     C_R   0.345901 0.326523 0.647441 0.080276
C23   C     C_R   0.093920 0.358996 0.087320 -0.002553
C24   C     C_R   0.758758 0.645027 0.375376 0.116455
C25   C     C_R   0.662766 0.678354 0.348839 0.090583
C26   C     C_R   0.559587 0.623253 0.396684 -0.094055
C27   C     C_R   0.551928 0.535118 0.471348 -0.008736
C28   C     C_R   0.000132 0.499472 0.328969 0.544299
C29   C     C_R   0.653613 0.505687 0.495987 0.172662
C30   C     C_R   0.447496 0.475080 0.522251 -0.024903
C31   C     C_R   0.447167 0.387122 0.596523 0.068946
C32   C     C_R   0.547935 0.360640 0.619048 -0.155119
C33   C     C_R   0.648375 0.418869 0.570625 -0.102873
C34   C     C_R   0.094989 0.360503 0.993487 0.084585
C35   C     C_R   0.342455 0.498032 0.502618 0.033923
C36   C     C_R   0.245863 0.354271 0.623583 0.066499
C37   C     C_R   0.944821 0.557598 0.165884 -0.127984
C38   C     C_R   0.998791 0.496719 0.232526 -0.013733
C39   C     C_R   0.048894 0.431438 0.207190 -0.129747
C40   C     C_R   0.046318 0.426488 0.114502 -0.020178
C41   C     C_R   0.994242 0.490747 0.047397 0.039947
C42   C     C_1   0.442183 0.267092 0.363412 0.197840
C43   C     C_1   0.790993 0.892321 0.636746 0.250416
C44   C     C_1   0.138829 0.285228 0.154541 0.190729
C45   C     C_R   0.045773 0.427079 0.927053 0.042665
C46   C     C_1   0.059253 0.904684 0.449633 0.228434
C47   C     C_R   0.993374 0.490490 0.954076 0.029899
C48   C     C_R   0.940384 0.554493 0.887522 0.013562
C49   C     C_R   0.888498 0.617268 0.914474 -0.120695
C50   C     C_R   0.889811 0.617997 0.006980 -0.124050
Cu1   Cu    Cu3+1 0.098270 0.475420 0.521130 0.937218
Cu2   Cu    Cu3+1 0.901730 0.524580 0.478870 0.942579
H1    H     H_    0.905847 0.607861 0.185944 0.126645
H2    H     H_    0.838348 0.687126 0.338502 0.144835
H3    H     H_    0.487128 0.650952 0.374203 0.093266
H4    H     H_    0.720168 0.392230 0.594676 0.185206
H5    H     H_    0.087307 0.383742 0.811063 0.165211
H6    H     H_    0.900817 0.604930 0.743724 0.153180
H7    H     H_    0.847553 0.666347 0.863969 0.142270
H8    H     H_    0.849800 0.667621 0.026542 0.122838
H9    H     H_    0.468986 0.839953 0.645868 0.249953
H10   H     H_    0.512996 0.760866 0.592314 0.232125
H11   H     H_    0.405401 0.277537 0.776680 0.231731
H12   H     H_    0.237016 0.106392 0.412422 0.146650
H13   H     H_    0.259068 0.194361 0.746366 0.229236
H14   H     H_    0.741750 0.843979 0.291581 0.244859
H15   H     H_    0.591709 0.781210 0.259447 0.234193
H16   H     H_    0.097215 0.207495 0.990590 0.244726
H17   H     H_    0.236218 0.320307 0.993271 0.247675
H18   H     H_    0.382365 0.800416 0.494210 0.134825
H19   H     H_    0.915542 0.109688 0.575452 0.138757
H20   H     H_    0.660007 0.278008 0.380892 0.158544
H21   H     H_    0.167157 0.309305 0.661358 0.120227
H22   H     H_    0.550385 0.293930 0.675133 0.150793
H23   H     H_    0.088649 0.383829 0.260322 0.152065
H24   H     H_    0.334603 0.562924 0.447534 0.123453
N1    N     N_R   0.246280 0.438190 0.553160 -0.250971
N2    N     N_1   0.958093 0.888220 0.445232 -0.305219
N3    N     N_R   0.754320 0.561190 0.447410 -0.257310
N4    N     N_1   0.413603 0.339586 0.325422 -0.275767
N5    N     N_3   0.541019 0.832472 0.625025 -0.632123
N6    N     N_1   0.831849 0.830070 0.678926 -0.307269
N7    N     N_3   0.345006 0.237548 0.722791 -0.640163
N8    N     N_3   0.671330 0.767870 0.272628 -0.633609
N9    N     N_1   0.173896 0.225589 0.207989 -0.287807
N10   N     N_3   0.145284 0.294081 0.965003 -0.652006
O1    O     O_R   0.972510 0.318130 0.526570 -0.502393
O2    O     O_R   0.806530 0.359650 0.490890 -0.531216
O3    O     O_R   0.082980 0.479210 0.647590 -0.502803
O4    O     O_R   0.917000 0.520730 0.611900 -0.516216
O5    O     O_R   0.193470 0.640350 0.509110 -0.512303
O6    O     O_R   0.027490 0.681870 0.473430 -0.486963
O7    O     O_R   0.083000 0.479270 0.388100 -0.502535
O8    O     O_R   0.917020 0.520790 0.352410 -0.517227

loop_
_geom_bond_atom_site_label_1
_geom_bond_atom_site_label_2
_ccdc_geom_bond_type
C1    O1    A    
C42   N4    T    
C27   C29   A    
H16   N10   S    
Cu2   O4    S    
C26   H3    S    
C2    H5    S    
C1    C21   S    
C26   C27   A    
C12   C41   A    
C5    H6    S    
C36   N1    A    
C32   H22   S    
C30   C31   A    
C11   C14   A    
H13   N7    S    
C24   H2    S    
C23   C40   A    
C29   C33   A    
C28   O8    A    
C34   N10   S    
C6    H12   S    
C12   C37   A    
C49   C50   A    
C17   C42   S    
Cu1   O5    S    
C6    C15   A    
C47   C48   A    
C8    C9    A    
C25   N8    S    
Cu2   O8    S    
C39   H23   S    
Cu2   N3    S    
C9    C10   A    
C37   H1    S    
C33   H4    S    
H15   N8    S    
C27   C30   A    
C8    C21   A    
C4    O4    A    
C45   C47   A    
C2    C45   A    
C18   H20   S    
C5    C48   A    
C35   H24   S    
C9    C43   S    
C22   C31   A    
Cu1   Cu2   S    
Cu2   O2    S    
C24   C25   A    
C36   H21   S    
Cu1   O1    S    
C39   C40   A    
C46   N2    T    
C25   C26   A    
C35   N1    A    
C23   C44   S    
H11   N7    S    
C28   O7    A    
Cu1   N1    S    
C37   C38   A    
C24   N3    A    
C31   C32   A    
C29   N3    A    
C28   C38   S    
C23   C34   A    
C17   C18   A    
C41   C47   A    
C13   C21   A    
C34   C45   A    
Cu1   O7    S    
C13   C18   A    
C48   C49   A    
H10   N5    S    
C16   O6    A    
C7    C19   A    
Cu2   O6    S    
C3    C4    S    
C22   C36   A    
C4    O3    A    
C15   C17   A    
C7    C16   S    
C8    H19   S    
C14   C19   A    
C3    C5    A    
C12   C50   A    
C30   C35   A    
C10   N5    S    
C49   H7    S    
C50   H8    S    
C32   C33   A    
C2    C3    A    
H9    N5    S    
Cu1   O3    S    
C22   N7    S    
C11   C13   A    
C38   C39   A    
C6    C20   A    
C1    O2    A    
C10   C11   A    
H14   N8    S    
C16   O5    A    
C7    C20   A    
C43   N6    T    
C14   C15   A    
C19   H18   S    
C40   C41   A    
C20   C46   S    
H17   N10   S    
C44   N9    T    
