data_mof_unit_19906.cif
_audit_creation_date              2012-12-10T19:13:29-0500
_audit_creation_method            fapswitch 2.2
_symmetry_space_group_name_H-M    P1
_symmetry_Int_Tables_number       1
_space_group_crystal_system       triclinic
_cell_length_a                    9.681929
_cell_length_b                    10.637541
_cell_length_c                    16.614077
_cell_angle_alpha                 90.08621
_cell_angle_beta                  85.027415
_cell_angle_gamma                 89.901133
_cell_volume                      1704.67059748

loop_
_atom_site_label
_atom_site_type_symbol
_atom_type_description
_atom_site_fract_x
_atom_site_fract_y
_atom_site_fract_z
_atom_type_partial_charge
C1    C     C_R   0.499961 0.742523 0.500390 0.907330
C2    C     C_R   0.341686 0.569642 0.778697 -0.185122
C3    C     C_R   0.437394 0.680127 0.161807 -0.166554
C4    C     C_R   0.425416 0.626013 0.237683 -0.313511
C5    C     C_R   0.655799 0.532935 0.212563 0.536337
C6    C     C_R   0.664509 0.585068 0.134567 -0.287040
C7    C     C_R   0.554729 0.656133 0.109007 0.141425
C8    C     C_2   0.443327 0.647452 0.985079 -0.233579
C9    C     C_2   0.553821 0.682330 0.022909 -0.212949
C10   C     C_R   0.532074 0.549810 0.262846 -0.138150
C11   C     C_3   0.426225 0.927676 0.428070 -0.424067
C12   C     C_R   0.480546 0.502240 0.653832 0.910744
C13   C     C_3   0.423715 0.071723 0.429034 -0.521763
C14   C     C_3   0.430245 0.929508 0.583499 0.332063
C15   C     C_3   0.651907 0.928074 0.491105 -0.510095
C16   C     C_3   0.499873 0.878810 0.501070 0.034117
C17   C     C_3   0.500716 0.121484 0.500805 0.058028
C18   C     C_3   0.424522 0.076403 0.582078 0.285646
C19   C     C_3   0.652255 0.070880 0.491929 -0.390293
C20   C     C_3   0.924114 0.606775 0.453584 -0.240169
C21   C     C_3   0.086981 0.607378 0.452106 -0.244341
C22   C     C_3   0.906624 0.513193 0.584591 -0.235756
C23   C     C_R   0.500511 0.257613 0.499033 0.933314
C24   C     C_3   0.924941 0.383024 0.466724 -0.237670
C25   C     C_3   0.069342 0.516058 0.584120 -0.233138
C26   C     C_3   0.087420 0.384252 0.467084 -0.234586
C27   C     C_R   0.519453 0.506103 0.346337 0.901832
C28   C     C_R   0.467894 0.526563 0.740354 -0.045495
C29   C     C_R   0.585997 0.521145 0.783137 -0.219779
C30   C     C_R   0.579498 0.562375 0.862468 -0.150689
C31   C     C_R   0.454851 0.611064 0.899835 0.201817
C32   C     C_R   0.335330 0.611384 0.858236 -0.179995
H1    H     H_    0.683980 0.486789 0.754972 0.144688
H2    H     H_    0.752365 0.563622 0.091908 0.133291
H3    H     H_    0.319542 0.889833 0.427701 0.179779
H4    H     H_    0.483159 0.894664 0.370762 0.179970
H5    H     H_    0.474113 0.107964 0.370880 0.194328
H6    H     H_    0.314192 0.104863 0.433954 0.172043
H7    H     H_    0.317095 0.113864 0.582692 0.076456
H8    H     H_    0.711890 0.893241 0.540877 0.178197
H9    H     H_    0.705935 0.893934 0.433201 0.196788
H10   H     H_    0.707721 0.105630 0.434728 0.178575
H11   H     H_    0.332774 0.645289 0.277154 0.166180
H12   H     H_    0.710597 0.104366 0.542716 0.208843
H13   H     H_    0.504502 0.904961 0.628664 0.127164
H14   H     H_    0.883022 0.697415 0.479115 0.142661
H15   H     H_    0.892909 0.602005 0.390885 0.157343
H16   H     H_    0.133198 0.599632 0.388640 0.135577
H17   H     H_    0.121769 0.699111 0.475102 0.154192
H18   H     H_    0.862153 0.600615 0.613214 0.143654
H19   H     H_    0.102201 0.605260 0.611717 0.159610
H20   H     H_    0.882824 0.300437 0.501630 0.142518
H21   H     H_    0.895754 0.370283 0.403946 0.167571
H22   H     H_    0.136071 0.370307 0.404555 0.146463
H23   H     H_    0.120050 0.302961 0.502996 0.140738
H24   H     H_    0.865103 0.433718 0.622795 0.147336
H25   H     H_    0.103715 0.438754 0.622802 0.138776
H26   H     H_    0.652366 0.701677 0.988944 0.143820
H27   H     H_    0.237562 0.645102 0.887097 0.122215
H28   H     H_    0.352536 0.736393 0.143046 0.139386
H29   H     H_    0.249123 0.574911 0.746611 0.149986
H30   H     H_    0.345118 0.627599 0.019459 0.149027
H31   H     H_    0.671682 0.553548 0.894445 0.122013
N1    N     N_3   0.861190 0.500250 0.501720 -0.028394
N2    N     N_3   0.138550 0.503270 0.501080 -0.025533
O1    O     O_R   0.383960 0.685090 0.500020 -0.586734
O2    O     O_R   0.616040 0.685320 0.499960 -0.654638
O3    O     O_R   0.370240 0.499890 0.615830 -0.621113
O4    O     O_R   0.602330 0.500120 0.615770 -0.623763
O5    O     O_R   0.383960 0.314680 0.500040 -0.651679
O6    O     O_R   0.616040 0.314910 0.499980 -0.622544
O7    O     O_R   0.397670 0.499880 0.384230 -0.640639
O8    O     O_R   0.629760 0.500110 0.384170 -0.579900
Zn1   Zn    Zn3+2 0.345040 0.499850 0.500040 0.916102
Zn2   Zn    Zn3+2 0.654960 0.500150 0.499960 0.923697
O9    O     O_3   0.306957 0.863594 0.612122 -0.611025
C33   C     C_3   0.180942 0.917752 0.592602 -0.353238
H32   H     H_    0.186160 0.959479 0.531513 0.142831
H33   H     H_    0.145288 0.988794 0.638879 0.160455
H34   H     H_    0.100925 0.843138 0.594763 0.179306
O10   O     O_3   0.492669 0.126625 0.647399 -0.631656
C34   C     C_3   0.397907 0.143677 0.715961 -0.349049
H35   H     H_    0.343960 0.054471 0.733885 0.188078
H36   H     H_    0.321469 0.218633 0.705085 0.159318
H37   H     H_    0.456034 0.174568 0.767137 0.200019
O11   O     O_3   0.758699 0.454575 0.237889 -0.606134
C35   C     C_3   0.891297 0.509077 0.222516 -0.355081
H38   H     H_    0.891246 0.611633 0.236376 0.144212
H39   H     H_    0.933013 0.491350 0.159142 0.169465
H40   H     H_    0.962940 0.463274 0.262129 0.180535

loop_
_geom_bond_atom_site_label_1
_geom_bond_atom_site_label_2
_ccdc_geom_bond_type
C10   C27   S    
C24   H20   S    
C12   O4    A    
C14   C18   S    
C35   H38   S    
C26   H23   S    
C21   H17   S    
O10   C34   S    
C33   H32   S    
C15   C19   S    
C12   O3    A    
C17   C23   S    
C12   C28   S    
C28   C29   A    
C24   C26   S    
C3    C7    A    
C5    C6    A    
O3    Zn1   S    
C15   C16   S    
O1    Zn1   S    
C29   H1    S    
C18   O10   S    
C2    C32   A    
C9    H26   S    
C17   C19   S    
C8    C9    D    
C22   C25   S    
O5    Zn1   S    
C13   H5    S    
C2    H29   S    
C22   H18   S    
C21   H16   S    
C3    H28   S    
C26   N2    S    
C24   N1    S    
C30   H31   S    
O8    Zn2   S    
C23   O5    A    
C25   H25   S    
C26   H22   S    
C17   C18   S    
C14   H13   S    
C33   H33   S    
C23   O6    A    
C25   N2    S    
O9    C33   S    
C15   H9    S    
O7    Zn1   S    
O11   C35   S    
C22   H24   S    
C24   H21   S    
N2    Zn1   S    
C6    H2    S    
C14   O9    S    
C20   N1    S    
C18   H7    S    
C25   H19   S    
C29   C30   A    
C11   C16   S    
C31   C32   A    
C1    O1    A    
C1    C16   S    
C13   H6    S    
C5    O11   S    
C34   H36   S    
C35   H39   S    
C14   C16   S    
O2    Zn2   S    
C4    C10   A    
C3    C4    A    
C19   H12   S    
C33   H34   S    
C7    C9    S    
C11   H4    S    
C21   N2    S    
C8    C31   S    
C19   H10   S    
C6    C7    A    
C4    H11   S    
C34   H37   S    
C13   C17   S    
C11   H3    S    
C5    C10   A    
O6    Zn2   S    
C11   C13   S    
C30   C31   A    
C1    O2    A    
N1    Zn2   S    
O4    Zn2   S    
C15   H8    S    
C20   H15   S    
C22   N1    S    
C20   C21   S    
C34   H35   S    
C35   H40   S    
C2    C28   A    
C32   H27   S    
C27   O8    A    
C20   H14   S    
C27   O7    A    
C8    H30   S    
