data_mof_unit_66915.cif
_audit_creation_date              2013-03-05T15:57:27-0500
_audit_creation_method            fapswitch 2.2
_symmetry_space_group_name_H-M    P1
_symmetry_Int_Tables_number       1
_space_group_crystal_system       triclinic
_cell_length_a                    17.221934
_cell_length_b                    18.530644
_cell_length_c                    8.451028
_cell_angle_alpha                 90.330484
_cell_angle_beta                  101.609764
_cell_angle_gamma                 89.732667
_cell_volume                      2641.76738284

loop_
_atom_site_label
_atom_site_type_symbol
_atom_site_description
_atom_site_fract_x
_atom_site_fract_y
_atom_site_fract_z
_atom_type_partial_charge
P1    P     P_3+3 0.834140 0.419320 0.003900 0.467310
P2    P     P_3+3 0.834140 0.580680 0.503900 0.462080
P3    P     P_3+3 0.334140 0.919320 0.003900 0.467594
P4    P     P_3+3 0.334140 0.080680 0.503900 0.462007
O1    O     O_2   0.841960 0.394640 0.833410 -0.389263
O2    O     O_2   0.841960 0.605360 0.333410 -0.365036
O3    O     O_2   0.341960 0.894640 0.833410 -0.389031
O4    O     O_2   0.341960 0.105360 0.333410 -0.365450
O5    O     O_3   0.907950 0.463080 0.102990 -0.412526
O6    O     O_3   0.907950 0.536920 0.602990 -0.411579
O7    O     O_3   0.407950 0.963080 0.102990 -0.412789
O8    O     O_3   0.407950 0.036920 0.602990 -0.411459
O9    O     O_3   0.972780 0.329600 0.629720 -0.353795
O10   O     O_3   0.972780 0.670400 0.129720 -0.401212
O11   O     O_3   0.472780 0.829600 0.629720 -0.353765
O12   O     O_3   0.472780 0.170400 0.129720 -0.401493
O13   O     O_2   0.835937 0.277721 0.689067 -0.416245
O14   O     O_2   0.832205 0.716744 0.167759 -0.367511
O15   O     O_2   0.335906 0.777742 0.688981 -0.416285
O16   O     O_2   0.332349 0.216939 0.168066 -0.367592
O17   O     O_3   0.753659 0.478226 0.962781 -0.530435
O18   O     O_3   0.748286 0.528255 0.463269 -0.565787
O19   O     O_3   0.253652 0.978216 0.962750 -0.529750
O20   O     O_3   0.248320 0.028207 0.463488 -0.565743
O21   O     O_3   0.926729 0.178881 0.611330 -0.587140
O22   O     O_3   0.934327 0.817320 0.163055 -0.556024
O23   O     O_3   0.426716 0.678893 0.611332 -0.587035
O24   O     O_3   0.434609 0.317385 0.162918 -0.555785
C1    C     C_3   0.008043 0.089595 0.514006 -1.107337
C2    C     C_3   0.996871 0.923933 0.102213 -0.789413
C3    C     C_3   0.507990 0.589616 0.513856 -1.107208
C4    C     C_3   0.497502 0.423775 0.101850 -0.787368
H1    H     H_    0.545660 0.558049 0.610767 0.250360
H2    H     H_    0.502486 0.441767 0.228835 0.260430
H3    H     H_    0.045704 0.058041 0.610959 0.249871
H4    H     H_    0.001757 0.941781 0.229261 0.260527
H5    H     H_    0.949438 0.062719 0.485141 0.298149
H6    H     H_    0.940844 0.943972 0.026854 0.253051
H7    H     H_    0.449380 0.562747 0.484993 0.297990
H8    H     H_    0.441490 0.443867 0.026559 0.252784
P5    P     P_3+3 0.165830 0.418670 0.685610 0.477607
P6    P     P_3+3 0.165830 0.581330 0.185610 0.460088
P7    P     P_3+3 0.665830 0.918670 0.685610 0.477596
P8    P     P_3+3 0.665830 0.081330 0.185610 0.460119
P9    P     P_3+3 0.097633 0.261473 0.120277 0.439248
P10   P     P_3+3 0.101704 0.734804 0.612020 0.434386
P11   P     P_3+3 0.597633 0.761469 0.120244 0.439248
P12   P     P_3+3 0.601675 0.234823 0.612030 0.434507
O25   O     O_2   0.157990 0.394030 0.856030 -0.338989
O26   O     O_2   0.157990 0.605970 0.356030 -0.388220
O27   O     O_2   0.657990 0.894030 0.856030 -0.339102
O28   O     O_2   0.657990 0.105970 0.356030 -0.388241
O29   O     O_3   0.027110 0.329490 0.059550 -0.399217
O30   O     O_3   0.027110 0.670510 0.559550 -0.392555
O31   O     O_3   0.527110 0.829490 0.059550 -0.399334
O32   O     O_3   0.527110 0.170510 0.559550 -0.392696
O33   O     O_2   0.156147 0.263129 0.003635 -0.336330
O34   O     O_2   0.161129 0.723832 0.499868 -0.401330
O35   O     O_2   0.656146 0.763141 0.003600 -0.336207
O36   O     O_2   0.661109 0.223857 0.499891 -0.400893
O37   O     O_3   0.249946 0.473133 0.735538 -0.583220
O38   O     O_3   0.246489 0.522131 0.221265 -0.531177
O39   O     O_3   0.749952 0.973123 0.735545 -0.583299
O40   O     O_3   0.746480 0.022139 0.221329 -0.530752
O41   O     O_3   0.047068 0.179386 0.083680 -0.569887
O42   O     O_3   0.059385 0.818720 0.554900 -0.518745
O43   O     O_3   0.547083 0.679373 0.083629 -0.569719
O44   O     O_3   0.559327 0.318721 0.554853 -0.518422
C5    C     C_3   0.966188 0.196197 0.031188 0.300232
C6    C     C_3   0.981664 0.819507 0.583135 0.471287
C7    C     C_3   0.466190 0.696174 0.031329 0.300159
C8    C     C_3   0.481526 0.319424 0.582643 0.471156
H9    H     H_    0.957165 0.224469 0.913593 0.180695
H10   H     H_    0.941869 0.789798 0.484462 0.114565
H11   H     H_    0.457111 0.724542 0.913834 0.180687
H12   H     H_    0.441889 0.289594 0.483943 0.114954
H13   H     H_    0.944223 0.231396 0.120017 0.048938
H14   H     H_    0.977635 0.794505 0.700405 -0.003118
H15   H     H_    0.444260 0.731279 0.120365 0.048770
H16   H     H_    0.477406 0.294510 0.699953 -0.003330
C9    C     C_3   0.916134 0.128641 0.006181 -0.711489
C10   C     C_3   0.952869 0.897348 0.583577 -0.706525
C11   C     C_3   0.416154 0.628606 0.006047 -0.711302
C12   C     C_3   0.452571 0.397227 0.582578 -0.705158
H17   H     H_    0.357362 0.643844 0.934410 0.166366
H18   H     H_    0.388528 0.397713 0.587192 0.140141
H19   H     H_    0.857339 0.143836 0.934490 0.166631
H20   H     H_    0.888872 0.897903 0.588587 0.140459
H21   H     H_    0.944703 0.087031 0.941743 0.226555
H22   H     H_    0.960923 0.924242 0.471513 0.217395
H23   H     H_    0.444735 0.587072 0.941427 0.226699
H24   H     H_    0.460762 0.424055 0.470523 0.217786
C13   C     C_3   0.224227 0.454182 0.268507 0.382911
C14   C     C_3   0.231941 0.546860 0.732589 0.364725
C15   C     C_3   0.724165 0.954131 0.268095 0.382660
C16   C     C_3   0.731962 0.046852 0.732540 0.364483
H25   H     H_    0.222387 0.456161 0.398388 0.055581
H26   H     H_    0.239939 0.566253 0.859047 0.082919
H27   H     H_    0.721985 0.956020 0.397823 0.055482
H28   H     H_    0.739943 0.066262 0.858982 0.082994
H29   H     H_    0.166459 0.435305 0.197664 0.127032
H30   H     H_    0.171633 0.561968 0.668019 0.143661
H31   H     H_    0.666555 0.935216 0.196617 0.127442
H32   H     H_    0.671664 0.061964 0.667922 0.143747
C17   C     C_3   0.286442 0.399737 0.241430 -0.808696
C18   C     C_3   0.291092 0.584271 0.651028 -0.895057
C19   C     C_3   0.786595 0.899818 0.241525 -0.808020
C20   C     C_3   0.791140 0.084231 0.650998 -0.894698
H33   H     H_    0.346122 0.420267 0.293148 0.279816
H34   H     H_    0.352161 0.569329 0.710366 0.257489
H35   H     H_    0.846142 0.920270 0.294619 0.278925
H36   H     H_    0.852203 0.069291 0.710407 0.257485
H37   H     H_    0.278776 0.347601 0.299108 0.200423
H38   H     H_    0.282629 0.643427 0.656191 0.267416
H39   H     H_    0.778618 0.847502 0.298164 0.200808
H40   H     H_    0.782679 0.143389 0.656097 0.267394
H41   H     H_    0.282336 0.391160 0.110360 0.273244
H42   H     H_    0.284085 0.565966 0.524460 0.269490
H43   H     H_    0.783094 0.891632 0.110499 0.273355
H44   H     H_    0.784140 0.065896 0.524445 0.269641
Ba1   Ba    Ba6+2 1.000000 0.447380 0.844850 1.548511
Ba2   Ba    Ba6+2 1.000000 0.552620 0.344850 1.542295
Ba3   Ba    Ba6+2 0.500000 0.947380 0.844850 1.548495
Ba4   Ba    Ba6+2 0.500000 0.052620 0.344850 1.542215
C21   C     C_3   0.780803 0.546269 0.929181 0.426644
C22   C     C_3   0.765621 0.455074 0.447562 0.315453
C23   C     C_3   0.280802 0.046269 0.929230 0.427013
C24   C     C_3   0.265716 0.955098 0.446870 0.316279
H45   H     H_    0.811876 0.543095 0.826530 0.083744
H46   H     H_    0.762465 0.442758 0.317973 0.119340
H47   H     H_    0.311886 0.043116 0.826593 0.083879
H48   H     H_    0.262768 0.943144 0.317183 0.118802
H49   H     H_    0.820502 0.569631 0.036805 0.145672
H50   H     H_    0.824022 0.437749 0.518510 0.131586
H51   H     H_    0.320492 0.069615 0.036886 0.145368
H52   H     H_    0.324052 0.937691 0.517991 0.131461
C25   C     C_3   0.709706 0.594994 0.884126 -0.931324
C26   C     C_3   0.702673 0.412533 0.507966 -0.688105
C27   C     C_3   0.209711 0.095003 0.884198 -0.931438
C28   C     C_3   0.202672 0.912269 0.506269 -0.689697
H53   H     H_    0.673442 0.575835 0.768138 0.244918
H54   H     H_    0.643050 0.426203 0.436627 0.268921
H55   H     H_    0.173471 0.075879 0.768157 0.244974
H56   H     H_    0.143105 0.926065 0.434843 0.268478
H57   H     H_    0.728348 0.651155 0.870316 0.253329
H58   H     H_    0.714179 0.354025 0.498204 0.249318
H59   H     H_    0.228363 0.151170 0.870500 0.253280
H60   H     H_    0.214210 0.853806 0.495724 0.249046
H61   H     H_    0.674216 0.593719 0.980280 0.281042
H62   H     H_    0.703643 0.426946 0.635773 0.260792
H63   H     H_    0.174198 0.093692 0.980309 0.280933
H64   H     H_    0.203481 0.926286 0.634225 0.261085
O45   O     O_3   0.092100 0.536880 0.086720 -0.395681
O46   O     O_3   0.092100 0.463120 0.586720 -0.413968
O47   O     O_3   0.592100 0.036880 0.086720 -0.395867
O48   O     O_3   0.592100 0.963120 0.586720 -0.413932
P13   P     P_3+3 0.898121 0.735349 0.075363 0.416422
P14   P     P_3+3 0.893848 0.267946 0.573101 0.405818
P15   P     P_3+3 0.398209 0.235426 0.075420 0.416396
P16   P     P_3+3 0.393843 0.767955 0.573076 0.405936
C29   C     C_3   0.999236 0.168586 0.562827 0.416595
C30   C     C_3   0.996483 0.841944 0.091907 0.382589
C31   C     C_3   0.499207 0.668596 0.562766 0.416432
C32   C     C_3   0.496925 0.341769 0.091925 0.381815
H65   H     H_    0.005186 0.203041 0.457882 0.067380
H66   H     H_    0.988401 0.827055 0.962305 0.008152
H67   H     H_    0.505152 0.703063 0.457834 0.067471
H68   H     H_    0.488913 0.326741 0.962402 0.007402
H69   H     H_    0.536796 0.586568 0.407581 0.269756
H70   H     H_    0.547993 0.447093 0.056492 0.258195
H71   H     H_    0.036862 0.086528 0.407750 0.269770
H72   H     H_    0.047341 0.947444 0.057112 0.258070
C33   C     C_R   0.140663 0.674920 0.920668 -0.530394
C34   C     C_R   0.140717 0.324454 0.424770 -0.480777
C35   C     C_R   0.640663 0.174920 0.920663 -0.530832
C36   C     C_R   0.640720 0.824462 0.424730 -0.480904
C37   C     C_R   0.855355 0.328025 0.266854 -0.534875
C38   C     C_R   0.866765 0.679803 0.760334 -0.502122
C39   C     C_R   0.355398 0.828000 0.266800 -0.535222
C40   C     C_R   0.366761 0.179800 0.760405 -0.502279
C41   C     C_R   0.785002 0.218571 0.301429 -0.193018
C42   C     C_R   0.797941 0.791322 0.793979 -0.207598
C43   C     C_R   0.285023 0.718562 0.301402 -0.194098
C44   C     C_R   0.297965 0.291340 0.794000 -0.207549
C45   C     C_R   0.839319 0.272493 0.363979 0.237992
C46   C     C_R   0.853344 0.737929 0.856946 0.187557
C47   C     C_R   0.339354 0.772475 0.363930 0.237867
C48   C     C_R   0.353358 0.237943 0.857004 0.187963
C49   C     C_R   0.813807 0.334707 0.108361 0.299704
C50   C     C_R   0.819887 0.668853 0.606485 0.284723
C51   C     C_R   0.313847 0.834682 0.108313 0.299513
C52   C     C_R   0.319886 0.168847 0.606541 0.284721
C53   C     C_R   0.755788 0.280848 0.043315 -0.007039
C54   C     C_R   0.760442 0.721667 0.543395 -0.065862
C55   C     C_R   0.255848 0.780810 0.043253 -0.006648
C56   C     C_R   0.260445 0.221664 0.543442 -0.065901
C57   C     C_R   0.242323 0.720747 0.141280 -0.073406
C58   C     C_R   0.250379 0.284604 0.637698 -0.017093
C59   C     C_R   0.742297 0.220763 0.141308 -0.073473
C60   C     C_R   0.750370 0.784602 0.637664 -0.016956
C61   C     C_R   0.184376 0.666667 0.077717 0.250137
C62   C     C_R   0.188394 0.335635 0.576888 0.342406
C63   C     C_R   0.684377 0.166667 0.077714 0.249530
C64   C     C_R   0.688387 0.835635 0.576864 0.342683
C65   C     C_R   0.154390 0.732255 0.824196 0.211947
C66   C     C_R   0.153256 0.266124 0.329666 0.220967
C67   C     C_R   0.654354 0.232281 0.824224 0.212035
C68   C     C_R   0.653253 0.766125 0.329632 0.220632
C69   C     C_R   0.209865 0.785497 0.885819 -0.111863
C70   C     C_R   0.210231 0.213606 0.390088 -0.171076
C71   C     C_R   0.709798 0.285542 0.885890 -0.114325
C72   C     C_R   0.710224 0.713606 0.390052 -0.171019
H73   H     H_    0.278495 0.674239 0.378556 0.190095
H74   H     H_    0.290535 0.336287 0.870773 0.175716
H75   H     H_    0.778497 0.174232 0.378557 0.189882
H76   H     H_    0.790480 0.836242 0.870809 0.175729
H77   H     H_    0.716177 0.330286 0.809318 0.185864
H78   H     H_    0.714989 0.667398 0.314367 0.194982
H79   H     H_    0.216254 0.830229 0.809216 0.185842
H80   H     H_    0.215000 0.167400 0.314398 0.194851
H81   H     H_    0.097438 0.634516 0.869963 0.175778
H82   H     H_    0.094702 0.363027 0.376901 0.158122
H83   H     H_    0.597459 0.134501 0.869935 0.175916
H84   H     H_    0.594718 0.863045 0.376844 0.158157
H85   H     H_    0.898934 0.368094 0.317927 0.170358
H86   H     H_    0.910078 0.639423 0.811290 0.170052
H87   H     H_    0.398978 0.868068 0.317872 0.170384
H88   H     H_    0.410075 0.139421 0.811361 0.170070
C73   C     C_2   0.062008 0.184821 0.704678 0.587065
H89   H     H_    0.066257 0.152998 0.812378 0.066427
O49   O     O_2   0.106729 0.234558 0.701881 -0.582364
C74   C     C_2   0.074195 0.812051 0.179856 0.534945
H90   H     H_    0.076905 0.759353 0.234444 0.119086
O50   O     O_2   0.135479 0.845401 0.185047 -0.637193
C75   C     C_2   0.561995 0.684803 0.704613 0.587153
H91   H     H_    0.566233 0.652974 0.812304 0.066542
O51   O     O_2   0.606736 0.734524 0.701828 -0.582450
C76   C     C_2   0.574521 0.311744 0.180244 0.537115
H92   H     H_    0.577172 0.258754 0.233410 0.118096
O52   O     O_2   0.635799 0.345346 0.187473 -0.637614
C77   C     C_2   0.402616 0.600331 0.162138 0.677984
H93   H     H_    0.399104 0.636732 0.260116 0.009504
O53   O     O_2   0.392527 0.536312 0.178974 -0.593159
C78   C     C_2   0.496884 0.439744 0.722545 0.609391
H94   H     H_    0.465516 0.480324 0.778083 0.005385
O54   O     O_2   0.568582 0.433419 0.766978 -0.561681
C79   C     C_2   0.902629 0.100528 0.162430 0.677834
H95   H     H_    0.899357 0.137008 0.260397 0.009432
O55   O     O_2   0.892284 0.036565 0.179416 -0.592852
C80   C     C_2   0.997429 0.939748 0.723496 0.610497
H96   H     H_    0.966278 0.980528 0.778956 0.004783
O56   O     O_2   0.069087 0.933098 0.767995 -0.560597

loop_
_geom_bond_atom_site_label_1
_geom_bond_atom_site_label_2
_geom_bond_distance
_ccdc_geom_bond_type
C43   H73   1.071874 S    
P10   C65   1.840244 S    
C42   H76   1.075779 S    
P14   C45   1.829023 S    
P1    O17   1.740617 S    
P9    C66   1.836605 S    
O10   Ba2   2.825210 S    
C30   C74   1.499318 S    
C13   H25   1.104836 S    
C6    H14   1.111270 S    
Ba2   O46   2.855555 S    
C5    H13   1.112855 S    
C20   H44   1.103680 S    
P3    O19   1.740620 S    
O7    Ba4   2.850476 S    
C34   H82   1.082399 S    
P5    O37   1.748675 S    
C8    H12   1.111903 S    
O6    Ba1   2.855585 S    
C33   H81   1.082354 S    
C28   H60   1.106839 S    
C7    H15   1.112842 S    
P7    O39   1.748652 S    
Ba3   Ba4   4.664029 S    
Ba3   O47   2.850452 S    
C26   H62   1.108007 S    
P9    O33   1.545515 D    
C43   C57   1.404773 A    
O11   Ba3   2.812358 S    
P11   C68   1.836587 S    
C18   H38   1.106935 S    
C29   H65   1.117342 S    
P1    O1    1.540510 D    
O15   P16   1.541932 D    
O32   Ba4   2.811648 S    
C25   H57   1.104243 S    
C23   H51   1.109069 S    
C55   C69   1.407638 A    
P3    O3    1.540510 D    
C14   C18   1.512668 S    
C24   H52   1.109411 S    
P4    O20   1.747282 S    
C54   C72   1.413340 A    
O41   C5    1.408151 S    
O18   C22   1.398515 S    
C39   C47   1.382924 A    
C14   H26   1.107702 S    
C15   H27   1.104853 S    
C21   H49   1.109069 S    
O1    Ba1   2.879279 S    
C34   C62   1.394062 A    
C8    H16   1.111277 S    
C37   C45   1.382954 A    
C78   H94   1.082492 S    
P4    Ba4   3.429238 S    
O22   P13   1.747893 S    
C33   C61   1.396700 A    
C77   H93   1.075925 S    
C42   C46   1.401930 A    
P5    Ba1   3.431437 S    
P4    C52   1.883496 S    
C25   H53   1.108409 S    
C40   C48   1.394262 A    
C12   H18   1.111437 S    
O23   C31   1.402334 S    
P7    O27   1.545116 D    
C30   H66   1.109336 S    
C27   H55   1.108398 S    
P5    O25   1.545116 D    
C54   C60   1.438013 A    
C36   C68   1.385174 A    
O21   C29   1.402347 S    
C15   H31   1.109820 S    
O16   P15   1.543048 D    
O26   Ba2   2.882721 S    
C6    H10   1.111909 S    
P8    C63   1.890155 S    
C75   H91   1.077280 S    
C3    H1    1.105422 S    
C57   C61   1.440874 A    
P16   C47   1.828954 S    
C35   C67   1.392593 A    
P3    C51   1.872378 S    
P4    O8    1.595123 S    
C28   H64   1.108036 S    
C7    C11   1.512871 S    
P10   O30   1.745079 S    
C49   C53   1.441717 A    
P4    O4    1.545809 D    
P6    O38   1.744970 S    
C56   C70   1.413380 A    
P8    O28   1.539825 D    
C79   O55   1.213032 D    
O30   Ba2   2.811648 S    
P9    O29   1.751978 S    
C9    H21   1.110234 S    
P10   O34   1.540541 D    
O12   P15   1.751174 S    
C67   C71   1.400016 A    
C75   O51   1.207215 D    
C17   H41   1.106243 S    
P2    O2    1.545809 D    
C23   C27   1.505126 S    
Ba1   O45   2.850452 S    
C59   C63   1.440845 A    
C24   H48   1.108035 S    
C19   H43   1.106361 S    
C68   C72   1.402040 A    
P3    Ba3   3.435625 S    
P12   O36   1.540566 D    
C76   O52   1.218583 D    
Ba3   O48   2.960406 S    
P2    Ba2   3.429238 S    
C71   H77   1.074213 S    
C3    C31   1.533563 S    
C37   C49   1.391666 A    
Ba1   O46   2.960406 S    
O10   P13   1.751284 S    
C69   H79   1.074248 S    
C1    C29   1.533616 S    
C32   H68   1.109406 S    
C36   C64   1.394087 A    
C42   C60   1.412534 A    
P13   C46   1.852532 S    
C56   C58   1.438006 A    
C40   C52   1.399887 A    
C70   H80   1.078514 S    
C13   H29   1.109816 S    
C22   H46   1.108014 S    
C41   C45   1.398753 A    
O37   C14   1.398787 S    
O4    Ba4   2.871025 S    
O14   P13   1.542974 D    
C3    H69   1.111056 S    
C51   C55   1.441713 A    
C21   C25   1.505139 S    
C80   H96   1.082521 S    
C53   C59   1.438761 A    
C37   H85   1.082582 S    
O39   C16   1.398765 S    
O22   C30   1.407961 S    
O24   P15   1.748064 S    
P8    O40   1.744768 S    
C20   H36   1.104992 S    
C77   O53   1.213086 D    
C4    H2    1.108710 S    
P15   C48   1.852763 S    
C31   H67   1.117352 S    
P2    O18   1.747299 S    
C73   H89   1.077269 S    
C43   C47   1.398729 A    
C60   C64   1.439875 A    
C27   H63   1.111168 S    
O9    Ba1   2.812358 S    
C66   C70   1.402063 A    
C44   H74   1.075752 S    
C52   C56   1.437762 A    
Ba4   O48   2.855555 S    
C65   C69   1.399993 A    
O44   C8    1.406073 S    
O25   Ba1   2.874377 S    
P6    O45   1.601227 S    
C74   O50   1.218566 D    
O5    Ba2   2.850476 S    
P1    O5    1.596242 S    
C12   C78   1.494611 S    
P11   O43   1.751125 S    
C9    H19   1.106366 S    
C1    H71   1.111057 S    
C5    H9    1.108757 S    
O13   P14   1.541958 D    
C2    H72   1.108774 S    
Ba1   Ba2   4.664029 S    
C8    C12   1.523306 S    
C15   C19   1.517828 S    
P6    O26   1.539825 D    
C5    C9    1.512814 S    
C29   C73   1.474295 S    
C58   C62   1.439895 A    
C27   H59   1.104257 S    
C25   H61   1.111167 S    
C44   C58   1.412567 A    
C16   H32   1.107164 S    
C21   H45   1.108314 S    
P9    O41   1.751091 S    
C1    H5    1.109241 S    
Ba2   O45   2.956467 S    
O38   C13   1.401334 S    
C2    C30   1.521258 S    
O17   C21   1.397154 S    
P7    O48   1.600091 S    
P2    O6    1.595123 S    
O31   Ba3   2.824497 S    
P7    Ba3   3.431437 S    
O9    P14   1.768747 S    
P7    C64   1.866782 S    
P6    Ba2   3.437971 S    
P11   O31   1.751981 S    
P5    O46   1.600091 S    
C18   H34   1.104922 S    
C17   H37   1.104962 S    
P12   O32   1.745006 S    
O24   C32   1.408074 S    
C4    H70   1.108760 S    
C76   H92   1.079154 S    
C22   C26   1.514133 S    
C36   H84   1.082404 S    
C11   H17   1.106355 S    
P8    O47   1.601227 S    
C19   H35   1.101410 S    
C38   C50   1.399793 A    
C10   C80   1.494700 S    
P2    C50   1.883361 S    
O40   C15   1.401239 S    
O3    Ba3   2.879279 S    
P12   O44   1.743178 S    
C79   H95   1.075907 S    
C41   H75   1.071884 S    
P10   O42   1.743200 S    
C11   H23   1.110260 S    
C1    H3    1.105443 S    
O19   C23   1.397168 S    
O2    Ba2   2.871025 S    
C10   H22   1.106110 S    
C2    H4    1.108631 S    
C20   H40   1.106938 S    
C23   H47   1.108317 S    
C28   H56   1.110036 S    
O23   P16   1.752869 S    
C35   C63   1.396718 A    
O11   P16   1.768732 S    
C13   C17   1.517953 S    
C31   C75   1.474321 S    
O29   Ba1   2.824497 S    
C7    H11   1.108831 S    
O28   Ba4   2.882721 S    
C40   H88   1.082121 S    
C72   H78   1.078513 S    
O42   C6    1.406074 S    
O8    Ba3   2.855585 S    
C17   H33   1.101396 S    
C26   H58   1.106830 S    
C3    H7    1.109254 S    
C10   H20   1.111448 S    
C34   C66   1.385144 A    
C4    C32   1.521419 S    
P12   C67   1.840336 S    
C26   H54   1.110034 S    
C74   H90   1.079214 S    
C78   O54   1.221449 D    
C19   H39   1.104936 S    
C32   C76   1.499629 S    
O43   C7    1.408123 S    
C9    C79   1.483839 S    
C4    H8    1.107410 S    
C39   H87   1.082579 S    
O27   Ba3   2.874377 S    
C6    C10   1.523357 S    
P1    Ba1   3.435625 S    
C38   H86   1.082126 S    
C53   C71   1.407632 A    
P3    O7    1.596242 S    
C50   C54   1.437754 A    
P5    C62   1.866706 S    
P11   O35   1.545520 D    
C38   C46   1.394160 A    
C44   C48   1.401954 A    
C16   H28   1.107704 S    
C39   C51   1.391638 A    
C22   H50   1.109344 S    
C73   O49   1.207211 D    
Ba4   O47   2.956467 S    
P8    Ba4   3.437971 S    
O21   P14   1.752931 S    
O20   C24   1.398501 S    
C35   H83   1.082356 S    
C16   C20   1.512651 S    
P6    C61   1.890136 S    
C33   C65   1.392579 A    
C12   H24   1.106191 S    
C2    H6    1.107515 S    
C11   C77   1.483881 S    
O12   Ba4   2.825210 S    
C80   O56   1.221452 D    
C18   H42   1.103618 S    
C14   H30   1.107164 S    
P1    C49   1.872394 S    
C24   C28   1.514167 S    
C55   C57   1.438774 A    
C41   C59   1.404800 A    
