data_mof_unit_61960.cif
_audit_creation_date              2012-12-10T17:51:53-0500
_audit_creation_method            fapswitch 2.2
_symmetry_space_group_name_H-M    P1
_symmetry_Int_Tables_number       1
_space_group_crystal_system       triclinic
_cell_length_a                    18.812943
_cell_length_b                    18.699325
_cell_length_c                    18.680632
_cell_angle_alpha                 109.027543
_cell_angle_beta                  109.573194
_cell_angle_gamma                 109.593632
_cell_volume                      5072.38183505

loop_
_atom_site_label
_atom_site_type_symbol
_atom_type_description
_atom_site_fract_x
_atom_site_fract_y
_atom_site_fract_z
_atom_type_partial_charge
C1    C     C_R   0.619936 0.121019 0.000688 0.932917
C2    C     C_R   0.500308 0.758932 0.680959 -0.233637
C3    C     C_R   0.498086 0.821277 0.743317 -0.229102
C4    C     C_R   0.499151 0.118345 0.120453 0.847540
C5    C     C_R   0.497677 0.812760 0.814642 -0.202547
C6    C     C_R   0.324474 0.823553 0.083234 0.353297
C7    C     C_R   0.257363 0.761225 0.083276 0.379967
C8    C     C_R   0.188454 0.687456 0.002932 -0.171703
C9    C     C_R   0.182194 0.678616 0.923664 -0.253229
C10   C     C_R   0.244287 0.743626 0.923466 -0.291410
C11   C     C_R   0.315072 0.815053 0.002646 -0.117888
C12   C     C_R   0.814220 0.240232 0.990437 -0.327242
C13   C     C_R   0.619866 0.501124 0.621805 0.943394
C14   C     C_R   0.496063 0.384023 0.379491 0.948010
C15   C     C_R   0.380036 0.504648 0.384107 0.939796
C16   C     C_R   0.380165 0.880032 0.000531 0.955254
C17   C     C_R   0.500317 0.622594 0.622864 0.943621
C18   C     C_R   0.879198 0.499948 0.880471 0.859922
C19   C     C_R   0.877519 0.379843 0.997671 0.888533
C20   C     C_R   0.120434 0.499771 0.119604 0.938813
C21   C     C_R   0.121075 0.620430 0.000949 0.935277
C22   C     C_R   0.762494 0.575928 0.750639 -0.273576
C23   C     C_R   0.808348 0.313666 0.994563 -0.303381
C24   C     C_R   0.824909 0.575565 0.815132 -0.221828
C25   C     C_R   0.810525 0.497340 0.814947 -0.182510
C26   C     C_R   0.731967 0.418268 0.751709 0.346174
C27   C     C_R   0.667714 0.419533 0.688419 0.508460
C28   C     C_R   0.499342 0.880068 0.880443 0.938621
C29   C     C_R   0.684570 0.498408 0.687219 -0.223166
C30   C     C_R   0.323821 0.505333 0.246834 -0.355756
C31   C     C_R   0.260152 0.503490 0.180559 0.546971
C32   C     C_R   0.186959 0.500793 0.186336 -0.202875
C33   C     C_R   0.178262 0.502139 0.258033 -0.364429
C34   C     C_R   0.739276 0.324616 0.999905 0.451951
C35   C     C_R   0.240776 0.501500 0.323332 0.546871
C36   C     C_R   0.314202 0.504777 0.317678 -0.200160
C37   C     C_2   0.422744 0.237663 0.255780 -0.234276
C38   C     C_2   0.486126 0.321055 0.302019 -0.263985
C39   C     C_2   0.421910 0.175433 0.182158 0.417697
C40   C     C_2   0.497680 0.179654 0.191129 0.237190
C41   C     C_R   0.753820 0.178040 0.995662 0.506261
C42   C     C_3   0.590322 0.629786 0.815608 -0.239655
C43   C     C_3   0.236008 0.829746 0.192793 -0.256135
C44   C     C_3   0.535709 0.320822 0.658018 -0.175198
C45   C     C_R   0.679731 0.263931 0.007486 0.373784
C46   C     C_3   0.317205 0.588584 0.129392 -0.264409
C47   C     C_3   0.163861 0.428877 0.373167 -0.273855
C48   C     C_3   0.827934 0.121754 0.060429 -0.263981
C49   C     C_3   0.409362 0.686443 0.872983 -0.232418
C50   C     C_R   0.685748 0.189213 0.002327 -0.356227
C51   C     C_R   0.497380 0.740918 0.823628 0.422948
C52   C     C_R   0.502045 0.679284 0.761976 0.423812
C53   C     C_R   0.501337 0.688013 0.689870 -0.202872
H1    H     H_    0.371820 0.214774 0.271418 0.161445
H2    H     H_    0.122739 0.503187 0.262811 0.181278
H3    H     H_    0.866314 0.231594 0.983898 0.191849
H4    H     H_    0.625282 0.685773 0.883056 0.184760
H5    H     H_    0.625279 0.644161 0.779972 0.120279
H6    H     H_    0.591186 0.572690 0.820991 0.186880
H7    H     H_    0.402890 0.882430 0.208962 0.365113
H8    H     H_    0.231343 0.829427 0.250336 0.190359
H9    H     H_    0.170953 0.812589 0.143356 0.168057
H10   H     H_    0.284818 0.897090 0.214571 0.174995
H11   H     H_    0.753989 0.349695 0.807119 0.325545
H12   H     H_    0.500057 0.765247 0.625230 0.185620
H13   H     H_    0.469912 0.267874 0.603052 0.175179
H14   H     H_    0.528880 0.376907 0.692929 0.135010
H15   H     H_    0.558639 0.295792 0.702131 0.196571
H16   H     H_    0.384906 0.620886 0.183950 0.165494
H17   H     H_    0.285423 0.627244 0.145453 0.179133
H18   H     H_    0.321015 0.587687 0.071140 0.193784
H19   H     H_    0.168116 0.428391 0.433669 0.193280
H20   H     H_    0.164433 0.369845 0.333901 0.152624
H21   H     H_    0.101317 0.425662 0.337356 0.150425
H22   H     H_    0.296393 0.118156 0.112988 0.331926
H23   H     H_    0.498033 0.876770 0.736778 0.187280
H24   H     H_    0.623500 0.235267 0.265774 0.341984
H25   H     H_    0.829531 0.159214 0.121700 0.155594
H26   H     H_    0.889970 0.157797 0.062873 0.145394
H27   H     H_    0.822421 0.059574 0.056813 0.190485
H28   H     H_    0.754606 0.414624 0.966447 0.320779
H29   H     H_    0.594848 0.247913 0.047114 0.320051
H30   H     H_    0.375463 0.618787 0.817743 0.183572
H31   H     H_    0.373356 0.720766 0.857185 0.113463
H32   H     H_    0.408522 0.681785 0.930426 0.191801
H33   H     H_    0.128086 0.622436 0.861993 0.182847
H34   H     H_    0.238417 0.737284 0.861681 0.173782
H35   H     H_    0.774581 0.636891 0.750803 0.184465
H36   H     H_    0.885459 0.635977 0.864154 0.169976
H37   H     H_    0.531680 0.344991 0.280643 0.184511
H38   H     H_    0.380123 0.506194 0.242503 0.188278
O1    O     O_R   0.539900 0.091920 0.948590 -0.614938
O2    O     O_R   0.908310 0.551980 0.960300 -0.629564
O3    O     O_R   0.908280 0.357000 0.948510 -0.618623
O4    O     O_R   0.643340 0.091290 0.051390 -0.608275
O5    O     O_R   0.908310 0.459790 0.051330 -0.609556
O6    O     O_R   0.091510 0.448020 0.039520 -0.582823
O7    O     O_R   0.091540 0.550800 0.142340 -0.621559
O8    O     O_R   0.091520 0.540220 0.948490 -0.624390
O9    O     O_R   0.091540 0.643000 0.051310 -0.602677
O10   O     O_R   0.448270 0.091350 0.039630 -0.581412
O11   O     O_R   0.551710 0.090720 0.142430 -0.624490
O12   O     O_R   0.643360 0.554400 0.594170 -0.626105
O13   O     O_R   0.356660 0.908710 0.948610 -0.627000
O14   O     O_R   0.460100 0.908080 0.051410 -0.570542
O15   O     O_R   0.448290 0.909280 0.857570 -0.642635
O16   O     O_R   0.551730 0.908650 0.960370 -0.576716
O17   O     O_R   0.539910 0.450960 0.594180 -0.595255
O18   O     O_3   0.502948 0.608611 0.770153 -0.586889
O19   O     O_3   0.398215 0.893582 0.159724 -0.751706
O20   O     O_3   0.261370 0.768715 0.160981 -0.632158
O21   O     O_3   0.715461 0.339355 0.749192 -0.737538
O22   O     O_3   0.590994 0.342585 0.623575 -0.566770
O23   O     O_R   0.448310 0.360490 0.412110 -0.616501
O24   O     O_3   0.268358 0.501845 0.109277 -0.592609
O25   O     O_3   0.235517 0.506615 0.396934 -0.594510
O26   O     O_3   0.344047 0.110331 0.106897 -0.769455
O27   O     O_3   0.572979 0.234104 0.272224 -0.778609
O28   O     O_3   0.755654 0.102015 0.985648 -0.583372
O29   O     O_3   0.727746 0.393337 0.998036 -0.692530
O30   O     O_3   0.616459 0.279623 0.018934 -0.687343
O31   O     O_3   0.496696 0.732931 0.894502 -0.584184
O32   O     O_R   0.551750 0.463920 0.412090 -0.624246
O33   O     O_R   0.356690 0.452080 0.412090 -0.609263
O34   O     O_R   0.460130 0.555510 0.412070 -0.634307
O35   O     O_R   0.448290 0.542560 0.594160 -0.576837
O36   O     O_R   0.551730 0.645990 0.594150 -0.638841
O37   O     O_R   0.908290 0.449200 0.857490 -0.605374
Zn1   Zn    Zn3+2 0.430930 0.000420 0.931360 1.014987
Zn2   Zn    Zn3+2 0.569070 0.999580 0.068640 1.029077
Zn3   Zn    Zn3+2 0.430950 0.434180 0.503140 0.996955
Zn4   Zn    Zn3+2 0.569090 0.572300 0.503120 0.975104
Zn5   Zn    Zn3+2 0.999890 0.431370 0.931260 1.009863
Zn6   Zn    Zn3+2 0.999930 0.568630 0.068560 0.980118

loop_
_geom_bond_atom_site_label_1
_geom_bond_atom_site_label_2
_ccdc_geom_bond_type
C33   H2    S    
O15   Zn1   S    
C40   O27   S    
C22   C29   A    
C17   C53   S    
O32   Zn4   S    
C27   C29   A    
O23   Zn3   S    
C41   C50   A    
C44   H13   S    
C35   C36   A    
H22   O26   S    
O6    Zn5   S    
C2    H12   S    
C24   H36   S    
C42   H5    S    
C43   H10   S    
C7    C8    A    
C12   C23   A    
C26   C27   A    
C12   C41   A    
C48   H26   S    
C46   O24   S    
O35   Zn3   S    
C49   H31   S    
C13   C29   S    
C42   O18   S    
C13   O17   A    
C20   C32   S    
C30   C31   A    
C21   O8    A    
C17   O35   A    
H11   O21   S    
C28   O16   A    
O3    Zn5   S    
O8    Zn5   S    
C48   H25   S    
O36   Zn4   S    
O17   Zn3   S    
C18   O37   A    
O1    Zn1   S    
C16   O13   A    
C20   O6    A    
C4    C40   S    
C28   O15   A    
C8    C9    A    
C46   H16   S    
C4    O11   A    
O4    Zn2   S    
C22   H35   S    
C13   O12   A    
O12   Zn4   S    
H29   O30   S    
C6    O19   S    
C18   C25   S    
C43   O20   S    
O16   Zn2   S    
C42   H4    S    
C31   O24   S    
O9    Zn6   S    
C48   O28   S    
C34   O29   S    
C47   O25   S    
C10   H34   S    
C15   O33   A    
C51   C52   A    
C49   H32   S    
C24   C25   A    
C47   H20   S    
H24   O27   S    
C6    C11   A    
C21   O9    A    
C17   O36   A    
O5    Zn6   S    
C45   O30   S    
C25   C26   A    
C14   O23   A    
O33   Zn3   S    
C19   C23   S    
C37   C38   D    
C9    H33   S    
C14   C38   S    
C5    C28   S    
C11   C16   S    
C31   C32   A    
H28   O29   S    
C1    O4    A    
C23   C34   A    
C4    O10   A    
C8    C21   S    
C35   O25   S    
C34   C45   A    
C41   O28   S    
C3    H23   S    
C46   H18   S    
C12   H3    S    
C19   O3    A    
C16   O14   A    
C37   H1    S    
C27   O22   S    
C44   O22   S    
O2    Zn6   S    
C1    O1    A    
O13   Zn1   S    
C22   C24   A    
C44   H15   S    
C26   O21   S    
C15   C36   S    
C39   C40   D    
C52   C53   A    
C43   H8    S    
C1    C50   S    
C51   O31   S    
O7    Zn6   S    
C14   O32   A    
O11   Zn2   S    
C47   H21   S    
C30   H38   S    
C3    C5    A    
C2    C53   A    
C42   H6    S    
C6    C7    A    
C38   H37   S    
C30   C36   A    
C32   C33   A    
C49   H30   S    
C2    C3    A    
C37   C39   S    
C39   O26   S    
O37   Zn5   S    
C45   C50   A    
O34   Zn4   S    
C48   H27   S    
C52   O18   S    
C49   O31   S    
C33   C35   A    
C7    O20   S    
C9    C10   A    
C47   H19   S    
C46   H17   S    
H7    O19   S    
C10   C11   A    
O14   Zn2   S    
C20   O7    A    
C15   O34   A    
C18   O2    A    
C5    C51   A    
C44   H14   S    
C19   O5    A    
C43   H9    S    
O10   Zn1   S    
