data_mof_unit_56432.cif
_audit_creation_date              2012-12-10T18:11:37-0500
_audit_creation_method            fapswitch 2.2
_symmetry_space_group_name_H-M    P1
_symmetry_Int_Tables_number       1
_space_group_crystal_system       triclinic
_cell_length_a                    10.528495
_cell_length_b                    12.661711
_cell_length_c                    13.225772
_cell_angle_alpha                 83.621457
_cell_angle_beta                  91.451717
_cell_angle_gamma                 101.039544
_cell_volume                      1719.75804777

loop_
_atom_site_label
_atom_site_type_symbol
_atom_type_description
_atom_site_fract_x
_atom_site_fract_y
_atom_site_fract_z
_atom_type_partial_charge
C1    C     C_R   0.489040 0.440543 0.690917 0.850191
C2    C     C_3   0.062041 0.599739 0.507952 -0.127458
C3    C     C_3   0.968702 0.531671 0.587415 0.412079
C4    C     C_3   0.876201 0.497524 0.499928 -0.277161
C5    C     C_R   0.721143 0.683668 0.083224 0.438822
C6    C     C_R   0.552049 0.598930 0.204331 -0.236771
C7    C     C_R   0.384392 0.315046 0.832702 -0.199282
C8    C     C_R   0.349716 0.293146 0.934802 0.132410
C9    C     C_R   0.403364 0.365511 0.003657 -0.186076
C10   C     C_R   0.493676 0.460592 0.971394 0.093662
C11   C     C_R   0.541216 0.473748 0.871231 0.003004
C12   C     C_R   0.741672 0.499497 0.500073 0.989194
C13   C     C_R   0.542752 0.540111 0.037385 -0.075529
C14   C     C_R   0.657222 0.617197 0.010863 -0.181644
C15   C     C_R   0.703245 0.629018 0.910588 0.575802
C16   C     C_R   0.649146 0.555503 0.843710 -0.307787
C17   C     C_R   0.480840 0.546447 0.128766 -0.013966
C18   C     C_R   0.667533 0.674684 0.180800 0.381461
C19   C     C_R   0.477094 0.406399 0.799965 -0.120371
C20   C     C_R   0.308143 0.088549 0.348513 0.395106
C21   C     C_R   0.680681 0.806639 0.603026 -0.234419
C22   C     C_R   0.741529 0.915952 0.596808 0.377133
C23   C     C_R   0.517216 0.560499 0.309632 0.954654
C24   C     C_R   0.678640 0.993760 0.545130 0.455706
C25   C     C_R   0.549821 0.964342 0.511025 -0.106278
C26   C     C_R   0.504326 0.853169 0.503983 0.068877
C27   C     C_R   0.475419 0.041512 0.468026 -0.135815
C28   C     C_R   0.375884 0.009878 0.396427 -0.077923
C29   C     C_R   0.346514 0.899606 0.377568 0.098128
C30   C     C_R   0.407454 0.823965 0.433300 -0.153248
C31   C     C_R   0.488218 0.145657 0.501780 0.592420
C32   C     C_R   0.342627 0.195910 0.372246 0.061708
C33   C     C_R   0.258411 0.500301 0.499534 0.985455
C34   C     C_3   0.934968 0.395074 0.490945 -0.453723
C35   C     C_3   0.028295 0.431420 0.578054 0.452107
C36   C     C_3   0.123688 0.500490 0.499362 -0.262045
C37   C     C_3   0.030668 0.465722 0.412666 0.443687
C38   C     C_3   0.970965 0.565711 0.420870 0.437147
H1    H     H_    0.335110 0.262737 0.778571 0.192917
H2    H     H_    0.375769 0.345293 0.082406 0.137780
H3    H     H_    0.692948 0.564462 0.769476 0.215502
H4    H     H_    0.729011 0.744268 0.639007 0.208725
H5    H     H_    0.879535 0.312770 0.483084 0.209899
H6    H     H_    0.383267 0.743178 0.413625 0.223806
N1    N     N_R   0.432930 0.222190 0.444670 -0.169719
N2    N     N_R   0.566370 0.776980 0.554790 -0.148063
O1    O     O_R   0.467970 0.366730 0.627150 -0.583687
O2    O     O_R   0.510820 0.544830 0.662520 -0.617850
O3    O     O_R   0.664630 0.410960 0.482340 -0.662362
O4    O     O_R   0.707470 0.589060 0.517710 -0.580115
O5    O     O_R   0.489180 0.455170 0.337480 -0.612363
O6    O     O_R   0.532030 0.633270 0.372850 -0.623049
O7    O     O_R   0.292530 0.410940 0.482290 -0.555750
O8    O     O_R   0.335370 0.589040 0.517660 -0.652565
Zn1   Zn    Zn3+2 0.471390 0.381080 0.476380 0.992885
Zn2   Zn    Zn3+2 0.528610 0.618920 0.523620 0.950311
O9    O     O_3   0.071968 0.365091 0.659172 -0.602204
C39   C     C_3   0.964829 0.295443 0.706993 -0.289604
H7    H     H_    0.921458 0.232540 0.657384 0.205768
H8    H     H_    0.890567 0.340392 0.729096 0.165018
H9    H     H_    0.998736 0.253304 0.777624 0.178659
N3    N     N_3   0.341973 0.525359 0.137558 -0.455192
H10   H     H_    0.311452 0.455628 0.186648 0.215930
H11   H     H_    0.296405 0.517805 0.066924 0.199007
N4    N     N_3   0.254992 0.199870 0.968242 -0.504400
H12   H     H_    0.288009 0.131466 0.950204 0.184241
H13   H     H_    0.169723 0.204372 0.927097 0.185993
N5    N     N_3   0.274844 0.276978 0.327970 -0.336707
H14   H     H_    0.293009 0.287755 0.250234 0.151145
H15   H     H_    0.175705 0.249273 0.339810 0.235712
N6    N     N_3   0.255935 0.859649 0.302100 -0.479274
H16   H     H_    0.285171 0.899514 0.230790 0.200102
H17   H     H_    0.163525 0.869364 0.321032 0.253460
O10   O     O_3   0.196676 0.058387 0.292352 -0.625918
C40   C     C_3   0.217494 0.093140 0.187856 -0.393047
H18   H     H_    0.321510 0.115329 0.165428 0.165838
H19   H     H_    0.167827 0.161940 0.165404 0.197623
H20   H     H_    0.170990 0.026760 0.143331 0.188848
O11   O     O_3   0.498368 0.151659 0.606241 -0.611607
C41   C     C_3   0.623664 0.198146 0.637622 -0.171476
H21   H     H_    0.616597 0.252615 0.696258 0.153856
H22   H     H_    0.685801 0.244837 0.575711 0.192932
H23   H     H_    0.671122 0.134137 0.677149 0.163569
O12   O     O_3   0.753233 0.093030 0.511940 -0.629962
C42   C     C_3   0.800271 0.089247 0.413553 -0.337010
H24   H     H_    0.818963 0.008335 0.399635 0.152935
H25   H     H_    0.894527 0.145525 0.404367 0.202965
H26   H     H_    0.731782 0.115749 0.355304 0.152954
O13   O     O_3   0.862276 0.950376 0.638981 -0.597463
C43   C     C_3   0.954474 0.897739 0.601271 -0.268640
H27   H     H_    0.947228 0.897349 0.517116 0.162678
H28   H     H_    0.945644 0.814331 0.640016 0.182542
H29   H     H_    0.052472 0.942484 0.618514 0.196371
O14   O     O_3   0.075612 0.435952 0.322328 -0.614982
C44   C     C_3   0.969865 0.385910 0.266163 -0.351358
H30   H     H_    0.887674 0.430090 0.261434 0.183937
H31   H     H_    0.936233 0.301291 0.299198 0.165210
H32   H     H_    0.002506 0.383861 0.187439 0.183250
O15   O     O_3   0.931481 0.636877 0.342075 -0.573968
C45   C     C_3   0.025525 0.663019 0.264642 -0.126164
H33   H     H_    0.001016 0.607596 0.204861 0.188394
H34   H     H_    0.126140 0.662015 0.292416 0.153685
H35   H     H_    0.023401 0.745529 0.228225 0.190216
N7    N     N_3   0.134435 0.709206 0.511726 -0.426690
H36   H     H_    0.067680 0.760388 0.508177 0.199594
H37   H     H_    0.182073 0.713181 0.581722 0.201213
O16   O     O_3   0.920448 0.561770 0.676394 -0.631661
C46   C     C_3   0.022308 0.592300 0.744695 -0.266797
H38   H     H_    0.063251 0.679789 0.728414 0.161632
H39   H     H_    0.100491 0.544283 0.744740 0.181457
H40   H     H_    0.982140 0.579510 0.822782 0.209027
O17   O     O_3   0.736669 0.729872 0.255642 -0.533380
C47   C     C_3   0.681619 0.819854 0.273645 -0.236827
H41   H     H_    0.578494 0.814410 0.249349 0.132038
H42   H     H_    0.739333 0.895822 0.236315 0.120509
H43   H     H_    0.686722 0.827206 0.356398 0.197966
O18   O     O_3   0.791073 0.719460 0.872754 -0.571450
C48   C     C_3   0.722739 0.805271 0.850496 -0.279329
H44   H     H_    0.678270 0.825802 0.918975 0.133302
H45   H     H_    0.643299 0.785102 0.795160 0.153603
H46   H     H_    0.791135 0.878526 0.819240 0.226701
O19   O     O_3   0.847777 0.737641 0.064470 -0.568283
C49   C     C_3   0.862195 0.850127 0.070311 -0.224441
H47   H     H_    0.769798 0.880976 0.065109 0.103781
H48   H     H_    0.923886 0.893524 0.006198 0.179456
H49   H     H_    0.913956 0.871545 0.141365 0.179161

loop_
_geom_bond_atom_site_label_1
_geom_bond_atom_site_label_2
_ccdc_geom_bond_type
C34   C37   S    
C32   N1    A    
C35   C36   S    
N7    H37   S    
C12   O3    A    
C43   H27   S    
C44   H32   S    
C49   H47   S    
C42   H24   S    
C11   C19   A    
N3    H10   S    
C38   O15   S    
C36   C37   S    
C18   O17   S    
C47   H41   S    
C49   H48   S    
C39   H8    S    
C15   C16   A    
C33   C36   S    
C46   H38   S    
C34   C35   S    
C48   H44   S    
O17   C47   S    
N3    H11   S    
C23   O5    A    
C44   H30   S    
C8    C9    A    
N4    H13   S    
O16   C46   S    
C2    N7    S    
C4    C12   S    
C29   C30   A    
C9    C10   A    
C32   N5    S    
C47   H43   S    
C39   H9    S    
C42   H25   S    
C8    N4    S    
C21   C22   A    
C30   H6    S    
C41   H23   S    
N7    H36   S    
O8    Zn2   S    
O7    Zn1   S    
C33   O7    A    
C6    C18   A    
C4    C34   S    
C1    C19   S    
O10   C40   S    
C27   C31   A    
C7    C8    A    
C24   C25   A    
C41   H22   S    
N6    H17   S    
N5    H14   S    
C49   H49   S    
C5    C18   A    
C20   C28   A    
C3    O16   S    
C25   C26   A    
O3    Zn1   S    
C5    O19   S    
C45   H35   S    
O4    Zn2   S    
C15   O18   S    
C48   H46   S    
C40   H18   S    
C37   C38   S    
C17   N3    S    
C11   C16   A    
C2    C38   S    
C43   H28   S    
O15   C45   S    
C3    C35   S    
C45   H34   S    
O9    C39   S    
C20   O10   S    
O12   C42   S    
C40   H19   S    
C5    C14   A    
C4    C38   S    
C26   C30   A    
C7    C19   A    
C22   C24   A    
O11   C41   S    
C3    C4    S    
C43   H29   S    
O1    Zn1   S    
C21   N2    A    
C20   C32   A    
C42   H26   S    
C2    C36   S    
C33   O8    A    
O2    Zn2   S    
C6    C17   A    
C28   C29   A    
C1    O1    A    
C34   H5    S    
C41   H21   S    
C10   C13   A    
C12   O4    A    
C44   H31   S    
C1    O2    A    
C31   O11   S    
C25   C27   A    
C46   H40   S    
C13   C17   A    
C35   O9    S    
C2    C3    S    
C39   H7    S    
N6    H16   S    
O18   C48   S    
C23   O6    A    
C6    C23   S    
C45   H33   S    
C22   O13   S    
C46   H39   S    
C37   O14   S    
O5    Zn1   S    
C9    H2    S    
C24   O12   S    
O14   C44   S    
C40   H20   S    
C48   H45   S    
C10   C11   A    
C26   N2    A    
C21   H4    S    
N1    Zn1   S    
N5    H15   S    
N4    H12   S    
C31   N1    A    
N2    Zn2   S    
C27   C28   A    
O19   C49   S    
C7    H1    S    
C14   C15   A    
C29   N6    S    
O13   C43   S    
C13   C14   A    
C16   H3    S    
O6    Zn2   S    
C47   H42   S    
