data_mof_unit_16842.cif
_audit_creation_date              2012-12-11T16:26:14-0500
_audit_creation_method            fapswitch 2.2
_symmetry_space_group_name_H-M    P1
_symmetry_Int_Tables_number       1
_space_group_crystal_system       triclinic
_cell_length_a                    13.987127
_cell_length_b                    13.98701
_cell_length_c                    32.204605
_cell_angle_alpha                 89.998846
_cell_angle_beta                  89.998393
_cell_angle_gamma                 119.998738
_cell_volume                      5456.41675946

loop_
_atom_site_label
_atom_site_type_symbol
_atom_type_description
_atom_site_fract_x
_atom_site_fract_y
_atom_site_fract_z
_atom_type_partial_charge
C1    C     C_R   0.568535 0.443218 0.810849 0.568106
C2    C     C_R   0.874650 0.431449 0.689141 0.568276
C3    C     C_R   0.556771 0.125297 0.810846 0.568284
C4    C     C_R   0.568562 0.443200 0.689140 0.568220
C5    C     C_R   0.874697 0.431470 0.810847 0.568139
C6    C     C_R   0.556805 0.125359 0.689139 0.568310
C7    C     C_R   0.443223 0.568528 0.310846 0.567970
C8    C     C_R   0.431453 0.874661 0.189144 0.568297
C9    C     C_R   0.125271 0.556758 0.310841 0.568263
C10   C     C_R   0.443206 0.568556 0.189143 0.568226
C11   C     C_R   0.431482 0.874722 0.310842 0.567996
C12   C     C_R   0.125347 0.556797 0.189143 0.568336
C13   C     C_1   0.008649 0.512335 0.018308 0.192744
C14   C     C_1   0.504342 0.992404 0.481570 0.192645
C15   C     C_1   0.487809 0.496454 0.018311 0.192927
C16   C     C_1   0.007623 0.511984 0.481573 0.192631
C17   C     C_1   0.503711 0.991358 0.018309 0.192754
C18   C     C_1   0.488281 0.495896 0.481576 0.192870
C19   C     C_1   0.512544 0.008892 0.518278 0.192649
C20   C     C_1   0.992146 0.504109 0.981601 0.192757
C21   C     C_1   0.496578 0.487675 0.518282 0.192923
C22   C     C_1   0.511983 0.007851 0.981602 0.192740
C23   C     C_1   0.991145 0.503702 0.518282 0.192669
C24   C     C_1   0.496047 0.488169 0.981606 0.192905
C25   C     C_R   0.923408 0.466348 0.852626 -0.029821
C26   C     C_R   0.543154 0.076953 0.647311 -0.029491
C27   C     C_R   0.533677 0.457009 0.852636 -0.029677
C28   C     C_R   0.923084 0.466215 0.647315 -0.029602
C29   C     C_R   0.542937 0.076577 0.852625 -0.029652
C30   C     C_R   0.533842 0.456875 0.647310 -0.029520
C31   C     C_R   0.466408 0.923544 0.352604 -0.030055
C32   C     C_R   0.076877 0.543101 0.147325 -0.029509
C33   C     C_R   0.457049 0.533631 0.352621 -0.029809
C34   C     C_R   0.466235 0.923155 0.147329 -0.029613
C35   C     C_R   0.076442 0.542862 0.352604 -0.029773
C36   C     C_R   0.456913 0.533803 0.147324 -0.029553
C37   C     C_R   0.909095 0.544791 0.875244 0.314238
C38   C     C_R   0.636091 0.091877 0.624655 0.314170
C39   C     C_R   0.455595 0.364168 0.875314 0.314140
C40   C     C_R   0.908275 0.544323 0.624674 0.314204
C41   C     C_R   0.635696 0.090896 0.875241 0.314218
C42   C     C_R   0.455941 0.363938 0.624629 0.314097
C43   C     C_R   0.545159 0.909628 0.375177 0.314306
C44   C     C_R   0.091728 0.636003 0.124664 0.314173
C45   C     C_R   0.364240 0.455469 0.375291 0.314149
C46   C     C_R   0.544377 0.908416 0.124682 0.314202
C47   C     C_R   0.090327 0.635525 0.375170 0.314273
C48   C     C_R   0.364005 0.455851 0.124644 0.314117
C49   C     C_R   0.930381 0.558523 0.918060 -0.036657
C50   C     C_R   0.628667 0.070948 0.581815 -0.036773
C51   C     C_R   0.441917 0.371781 0.918130 -0.036649
C52   C     C_R   0.929205 0.557838 0.581835 -0.036802
C53   C     C_R   0.628149 0.069616 0.918058 -0.036652
C54   C     C_R   0.442478 0.371422 0.581789 -0.036732
C55   C     C_R   0.558978 0.930986 0.417989 -0.036710
C56   C     C_R   0.070710 0.628525 0.081830 -0.036726
C57   C     C_R   0.371880 0.441734 0.418102 -0.036702
C58   C     C_R   0.557922 0.929428 0.081847 -0.036739
C59   C     C_R   0.068984 0.628003 0.417983 -0.036701
C60   C     C_R   0.371523 0.442337 0.081811 -0.036696
C61   C     C_R   0.971654 0.496119 0.937820 -0.009440
C62   C     C_R   0.524949 0.029319 0.562065 -0.009396
C63   C     C_R   0.503998 0.475588 0.937829 -0.009341
C64   C     C_R   0.970727 0.495669 0.562070 -0.009418
C65   C     C_R   0.524476 0.028337 0.937820 -0.009437
C66   C     C_R   0.504529 0.475195 0.562066 -0.009274
C67   C     C_R   0.496329 0.971923 0.437787 -0.009544
C68   C     C_R   0.029100 0.524790 0.062092 -0.009377
C69   C     C_R   0.475682 0.503850 0.437801 -0.009379
C70   C     C_R   0.495713 0.970924 0.062094 -0.009398
C71   C     C_R   0.028089 0.524435 0.437789 -0.009529
C72   C     C_R   0.475302 0.504405 0.062092 -0.009296
C73   C     C_R   0.992724 0.423761 0.914776 0.370393
C74   C     C_R   0.431373 0.007683 0.585132 0.370092
C75   C     C_R   0.575998 0.569063 0.914729 0.370452
C76   C     C_R   0.992264 0.423641 0.585123 0.370281
C77   C     C_R   0.431044 0.007257 0.914778 0.370139
C78   C     C_R   0.576359 0.568757 0.585157 0.370282
C79   C     C_R   0.423672 0.992636 0.414782 0.370542
C80   C     C_R   0.007532 0.431247 0.085167 0.370120
C81   C     C_R   0.569132 0.575924 0.414705 0.370634
C82   C     C_R   0.423654 0.992395 0.085156 0.370257
C83   C     C_R   0.007399 0.431062 0.414791 0.370115
C84   C     C_R   0.568839 0.576282 0.085185 0.370292
C85   C     C_R   0.968181 0.408542 0.872610 -0.115814
C86   C     C_R   0.440567 0.031950 0.627324 -0.115471
C87   C     C_R   0.591181 0.559688 0.872563 -0.115721
C88   C     C_R   0.967993 0.408557 0.627315 -0.115513
C89   C     C_R   0.440361 0.031796 0.872611 -0.115618
C90   C     C_R   0.591371 0.559507 0.627350 -0.115464
C91   C     C_R   0.408388 0.968036 0.372623 -0.116080
C92   C     C_R   0.031863 0.440493 0.127353 -0.115464
C93   C     C_R   0.559729 0.591155 0.372546 -0.115920
C94   C     C_R   0.408565 0.968070 0.127343 -0.115504
C95   C     C_R   0.031984 0.440362 0.372630 -0.115728
C96   C     C_R   0.559556 0.591334 0.127371 -0.115491
Cr1   Cr    Cr6+3 0.504240 0.249200 0.750000 1.150219
Cr2   Cr    Cr6+3 0.744960 0.495760 0.750000 1.150390
Cr3   Cr    Cr6+3 0.750800 0.255040 0.750000 1.150333
Cr4   Cr    Cr6+3 0.249200 0.504240 0.250000 1.150213
Cr5   Cr    Cr6+3 0.495760 0.744960 0.250000 1.150464
Cr6   Cr    Cr6+3 0.255040 0.750800 0.250000 1.150386
H1    H     H_    0.019488 0.367901 0.144021 0.202346
H2    H     H_    0.347655 0.979736 0.356022 0.202626
H3    H     H_    0.632150 0.651477 0.144056 0.202255
H4    H     H_    0.020302 0.367926 0.356035 0.202768
H5    H     H_    0.348280 0.980362 0.144000 0.202412
H6    H     H_    0.632257 0.651442 0.355865 0.202139
H7    H     H_    0.367951 0.019528 0.643988 0.202329
H8    H     H_    0.980169 0.348038 0.855974 0.202473
H9    H     H_    0.651479 0.632120 0.644035 0.202240
H10   H     H_    0.367864 0.019801 0.855976 0.202531
H11   H     H_    0.980330 0.348293 0.643967 0.202395
H12   H     H_    0.651412 0.632237 0.855878 0.202173
O1    O     O_R   0.480350 0.140770 0.796330 -0.486006
O2    O     O_R   0.660420 0.519650 0.703670 -0.485839
O3    O     O_R   0.859230 0.339580 0.796330 -0.486228
O4    O     O_R   0.480350 0.140770 0.703670 -0.485749
O5    O     O_R   0.660420 0.519650 0.796330 -0.486143
O6    O     O_R   0.859230 0.339580 0.703670 -0.485785
O7    O     O_R   0.140770 0.480350 0.296330 -0.486134
O8    O     O_R   0.519650 0.660420 0.203670 -0.485861
O9    O     O_R   0.339580 0.859230 0.296330 -0.486514
O10   O     O_R   0.140770 0.480350 0.203670 -0.485793
O11   O     O_R   0.519650 0.660420 0.296330 -0.486344
O12   O     O_R   0.339580 0.859230 0.203670 -0.485824
O13   O     O_R   0.514930 0.348530 0.793250 -0.428432
O14   O     O_R   0.833600 0.485070 0.706750 -0.428422
O15   O     O_R   0.651470 0.166400 0.793250 -0.428427
O16   O     O_R   0.514930 0.348530 0.706750 -0.428468
O17   O     O_R   0.833600 0.485070 0.793250 -0.428368
O18   O     O_R   0.651470 0.166400 0.706750 -0.428449
O19   O     O_R   0.348530 0.514930 0.293250 -0.428399
O20   O     O_R   0.485070 0.833600 0.206750 -0.428371
O21   O     O_R   0.166400 0.651470 0.293250 -0.428393
O22   O     O_R   0.348530 0.514930 0.206750 -0.428443
O23   O     O_R   0.485070 0.833600 0.293250 -0.428295
O24   O     O_R   0.166400 0.651470 0.206750 -0.428398
O25   O     O_3   0.666667 0.333333 0.750000 -0.312374
O26   O     O_3   0.333333 0.666667 0.250000 -0.312420
F1    F     F_    0.866891 0.602703 0.856437 -0.620845
F2    F     F_    0.736244 0.134367 0.643449 -0.621167
F3    F     F_    0.398006 0.263945 0.856563 -0.621225
F4    F     F_    0.865888 0.602068 0.643482 -0.621033
F5    F     F_    0.735808 0.133104 0.856432 -0.620964
F6    F     F_    0.398338 0.263745 0.643403 -0.621251
F7    F     F_    0.603311 0.867744 0.356333 -0.620631
F8    F     F_    0.134221 0.736171 0.143449 -0.621128
F9    F     F_    0.264021 0.397852 0.356540 -0.621258
F10   F     F_    0.602137 0.866033 0.143481 -0.621000
F11   F     F_    0.132169 0.735547 0.356318 -0.620798
F12   F     F_    0.263805 0.398243 0.143414 -0.621207
C97   C     C_2   0.097527 0.731846 0.059101 0.344988
H13   H     H_    0.110619 0.804254 0.076223 0.208693
O27   O     O_2   0.108825 0.739308 0.021460 -0.432753
C98   C     C_2   0.636348 0.905237 0.440638 0.345329
H14   H     H_    0.695985 0.892773 0.423452 0.208125
O28   O     O_2   0.632915 0.894152 0.478285 -0.432942
C99   C     C_2   0.268199 0.365923 0.059064 0.344776
H15   H     H_    0.195644 0.306858 0.076181 0.208763
O29   O     O_2   0.260907 0.369536 0.021407 -0.432758
C100  C     C_2   0.094711 0.731129 0.440623 0.345753
H16   H     H_    0.107154 0.803213 0.423430 0.208319
O30   O     O_2   0.105808 0.738810 0.478269 -0.432761
C101  C     C_2   0.634522 0.902725 0.059130 0.344985
H17   H     H_    0.693973 0.889850 0.076256 0.208558
O31   O     O_2   0.630609 0.891271 0.021495 -0.432711
C102  C     C_2   0.268648 0.365039 0.440847 0.345060
H18   H     H_    0.196053 0.306114 0.423716 0.208747
O32   O     O_2   0.261478 0.368232 0.478524 -0.432872
C103  C     C_2   0.732025 0.097880 0.559092 0.344969
H19   H     H_    0.804393 0.110854 0.576212 0.208704
O33   O     O_2   0.739564 0.109428 0.521461 -0.432771
C104  C     C_2   0.904202 0.635536 0.940752 0.345076
H20   H     H_    0.891278 0.694914 0.923594 0.208359
O34   O     O_2   0.893279 0.632089 0.978407 -0.432978
C105  C     C_2   0.366133 0.268071 0.559043 0.344750
H21   H     H_    0.307047 0.195522 0.576157 0.208800
O35   O     O_2   0.369836 0.260750 0.521390 -0.432747
C106  C     C_2   0.731349 0.095818 0.940747 0.345303
H22   H     H_    0.803655 0.108763 0.923586 0.208490
O36   O     O_2   0.738831 0.106741 0.978401 -0.432897
C107  C     C_2   0.902382 0.634355 0.559123 0.344975
H23   H     H_    0.889664 0.693914 0.576246 0.208563
O37   O     O_2   0.890629 0.630233 0.521501 -0.432669
C108  C     C_2   0.365320 0.268522 0.940880 0.344885
H24   H     H_    0.306402 0.195912 0.923755 0.208736
O38   O     O_2   0.368591 0.261346 0.978554 -0.432930
F13   F     F_    0.966781 0.331338 0.066426 -0.565090
F14   F     F_    0.364024 0.032762 0.433573 -0.564453
F15   F     F_    0.668785 0.635382 0.066462 -0.565019
F16   F     F_    0.967308 0.331300 0.433590 -0.564902
F17   F     F_    0.364416 0.033038 0.066402 -0.564904
F18   F     F_    0.669098 0.635063 0.433407 -0.564654
F19   F     F_    0.331479 0.966922 0.566379 -0.565113
F20   F     F_    0.033160 0.364343 0.933533 -0.564686
F21   F     F_    0.635445 0.668697 0.566429 -0.565076
F22   F     F_    0.331192 0.966815 0.933538 -0.564948
F23   F     F_    0.032923 0.364432 0.566356 -0.564860
F24   F     F_    0.635106 0.669033 0.933432 -0.564809

loop_
_geom_bond_atom_site_label_1
_geom_bond_atom_site_label_2
_ccdc_geom_bond_type
C68   C80   A    
C39   C51   A    
C103  H19   S    
C101  H17   S    
C82   C94   A    
C21   C66   S    
C18   C21   T    
C38   F2    S    
C80   F13   S    
C60   C99   S    
C91   H2    S    
C30   C90   A    
C35   C47   A    
C29   C89   A    
C4    C30   S    
Cr2   O5    S    
C57   C102  S    
C32   C92   A    
Cr5   O20   S    
C78   C90   A    
C15   C72   S    
C103  O33   D    
C89   H10   S    
C77   C89   A    
C54   C66   A    
C37   F1    S    
Cr3   O18   S    
C98   H14   S    
C10   O22   A    
Cr1   O16   S    
C7    O19   A    
C107  O37   D    
C93   H6    S    
Cr6   O24   S    
C75   C87   A    
C60   C72   A    
C19   C62   S    
C20   C61   S    
C33   C45   A    
C55   C67   A    
C84   F15   S    
Cr4   O7    S    
C84   C96   A    
Cr1   O4    S    
C3    C29   S    
C58   C101  S    
C44   C56   A    
C104  H20   S    
C87   H12   S    
Cr4   O26   S    
C92   H1    S    
C25   C37   A    
C81   F18   S    
Cr6   O21   S    
C15   C24   T    
C71   C83   A    
C27   C39   A    
C82   F17   S    
C79   F14   S    
Cr2   O17   S    
C28   C88   A    
C9    O7    A    
C14   C67   S    
C52   C107  S    
Cr6   O12   S    
C50   C103  S    
C34   C46   A    
C78   F21   S    
Cr1   O1    S    
C53   C65   A    
C77   F22   S    
C76   C88   A    
C79   C91   A    
Cr1   O13   S    
C18   C69   S    
Cr2   O14   S    
Cr3   O6    S    
C11   C31   S    
C17   C70   S    
C101  O31   D    
C12   C32   S    
C7    C33   S    
Cr3   O25   S    
C16   C71   S    
C90   H9    S    
C25   C85   A    
C49   C104  S    
Cr5   O26   S    
C106  O36   D    
C48   C60   A    
C100  O30   D    
C32   C44   A    
C55   C98   S    
C66   C78   A    
C11   O9    A    
C94   H5    S    
C65   C77   A    
Cr3   O15   S    
C8    O20   A    
C1    O13   A    
C83   F16   S    
C86   H7    S    
C67   C79   A    
C6    O18   A    
C85   H8    S    
C52   C64   A    
Cr5   O23   S    
C58   C70   A    
Cr6   O26   S    
C61   C73   A    
C40   C52   A    
C75   F24   S    
C5    O3    A    
Cr4   O10   S    
C80   C92   A    
C27   C87   A    
C107  H23   S    
C3    O1    A    
C22   C65   S    
C1    O5    A    
C95   H4    S    
Cr3   O3    S    
C37   C49   A    
C36   C96   A    
Cr2   O2    S    
C99   H15   S    
C12   O10   A    
C26   C86   A    
C62   C74   A    
C45   C57   A    
C99   O29   D    
C64   C76   A    
C51   C63   A    
C8    C34   S    
C83   C95   A    
C74   C86   A    
C81   C93   A    
C41   C53   A    
C72   C84   A    
C31   C43   A    
C108  H24   S    
C69   C81   A    
C5    C25   S    
C9    O21   A    
C43   C55   A    
C102  H18   S    
C7    O11   A    
C47   F11   S    
C24   C63   S    
C31   C91   A    
C40   F4    S    
C48   F12   S    
C50   C62   A    
C12   O24   A    
C97   O27   D    
C108  O38   D    
Cr6   O9    S    
C42   F6    S    
C53   C106  S    
Cr4   O19   S    
C96   H3    S    
C1    C27   S    
C100  H16   S    
C73   C85   A    
C8    O12   A    
C46   F10   S    
C74   F19   S    
C23   C64   S    
C2    O6    A    
C13   C20   T    
C29   C41   A    
C3    O15   A    
C14   C19   T    
C4    O2    A    
C26   C38   A    
C34   C94   A    
C39   F3    S    
C56   C97   S    
C10   O8    A    
C76   F23   S    
C33   C93   A    
C4    O16   A    
C38   C50   A    
C35   C95   A    
C16   C23   T    
Cr5   O8    S    
C54   C105  S    
Cr2   O25   S    
C98   O28   D    
C11   O23   A    
C59   C100  S    
C56   C68   A    
C42   C54   A    
C49   C61   A    
C6    C26   S    
C63   C75   A    
C102  O32   D    
C44   F8    S    
C105  O35   D    
C36   C48   A    
C45   F9    S    
C70   C82   A    
C104  O34   D    
C43   F7    S    
C47   C59   A    
C51   C108  S    
C5    O17   A    
C41   F5    S    
C17   C22   T    
C105  H21   S    
C73   F20   S    
C59   C71   A    
C9    C35   S    
C28   C40   A    
C30   C42   A    
C2    C28   S    
C10   C36   S    
C57   C69   A    
C97   H13   S    
Cr5   O11   S    
Cr1   O25   S    
C46   C58   A    
C106  H22   S    
Cr4   O22   S    
C88   H11   S    
C6    O4    A    
C13   C68   S    
C2    O14   A    
