data_mof_unit_39409.cif
_audit_creation_date              2012-12-10T20:55:44-0500
_audit_creation_method            fapswitch 2.2
_symmetry_space_group_name_H-M    P1
_symmetry_Int_Tables_number       1
_space_group_crystal_system       triclinic
_cell_length_a                    15.881405
_cell_length_b                    15.022407
_cell_length_c                    10.537826
_cell_angle_alpha                 90.649008
_cell_angle_beta                  90.3574
_cell_angle_gamma                 89.369775
_cell_volume                      2513.72182509

loop_
_atom_site_label
_atom_site_type_symbol
_atom_type_description
_atom_site_fract_x
_atom_site_fract_y
_atom_site_fract_z
_atom_type_partial_charge
C1    C     C_1   0.250927 0.500971 0.503159 -0.078206
C2    C     C_1   0.749117 0.498058 0.502171 -0.160112
C3    C     C_R   0.482123 0.502125 0.879907 -0.198192
C4    C     C_R   0.444917 0.497888 0.135125 -0.186476
C5    C     C_R   0.499448 0.905099 0.501135 0.058360
C6    C     C_R   0.499626 0.094989 0.500930 0.055763
C7    C     C_R   0.428613 0.953652 0.458841 -0.136435
C8    C     C_R   0.570195 0.046482 0.544192 -0.092464
C9    C     C_R   0.570142 0.952580 0.544143 -0.107476
C10   C     C_R   0.428813 0.047549 0.458302 -0.083775
C11   C     C_R   0.955905 0.513254 0.619525 -0.035272
C12   C     C_R   0.044292 0.480525 0.389675 -0.032726
C13   C     C_R   0.044450 0.515241 0.619351 -0.031242
C14   C     C_R   0.955786 0.479165 0.389649 -0.028843
C15   C     C_R   0.338947 0.500311 0.501207 0.892024
C16   C     C_R   0.661062 0.499502 0.500325 0.932560
C17   C     C_R   0.475977 0.499757 0.266384 0.895856
C18   C     C_R   0.498143 0.500703 0.743440 0.829250
C19   C     C_R   0.913082 0.494103 0.504971 -0.046895
C20   C     C_R   0.087065 0.500905 0.503821 -0.049338
C21   C     C_1   0.499712 0.807275 0.500396 0.034271
C22   C     C_1   0.499858 0.192750 0.500418 0.171809
C23   C     C_1   0.823743 0.496178 0.503762 -0.094270
C24   C     C_1   0.176342 0.501211 0.503933 -0.086192
C25   C     C_R   0.396713 0.656957 0.129661 -0.105313
C26   C     C_R   0.548448 0.350012 0.914011 -0.060183
C27   C     C_R   0.409177 0.651947 0.870308 -0.109407
C28   C     C_R   0.431895 0.333192 0.113192 -0.069060
C29   C     C_R   0.398722 0.738548 0.064157 -0.101135
C30   C     C_R   0.532483 0.264582 0.964993 -0.067241
C31   C     C_R   0.409111 0.735892 0.930934 0.002484
C32   C     C_R   0.469674 0.255473 0.059484 -0.073561
C33   C     C_R   0.440540 0.577456 0.937972 -0.030009
C34   C     C_R   0.454499 0.417585 0.066063 -0.009750
C35   C     C_R   0.428570 0.577989 0.069756 0.102166
C36   C     C_R   0.496320 0.423285 0.951373 -0.002835
H1    H     H_    0.373524 0.083152 0.424594 0.170986
H2    H     H_    0.625477 0.916998 0.577703 0.148496
H3    H     H_    0.625518 0.081257 0.577944 0.156382
H4    H     H_    0.372993 0.918971 0.426149 0.145878
N1    N     N_1   0.500000 0.270550 0.500000 -0.049924
N2    N     N_1   0.500000 0.729450 0.500000 -0.094282
O1    O     O_R   0.378020 0.573650 0.500040 -0.605398
O2    O     O_R   0.621980 0.426350 0.499960 -0.582806
O3    O     O_R   0.621980 0.573650 0.499960 -0.601594
O4    O     O_R   0.378020 0.426350 0.500040 -0.613850
O5    O     O_R   0.499990 0.573670 0.316780 -0.621551
O6    O     O_R   0.500010 0.426330 0.683220 -0.591608
O7    O     O_R   0.500010 0.573670 0.683220 -0.623540
O8    O     O_R   0.499990 0.426330 0.316780 -0.609158
Zn1   Zn    Zn3+2 0.500000 0.598370 0.500000 0.986251
Zn2   Zn    Zn3+2 0.500000 0.401630 0.500000 1.040957
C37   C     C_2   0.093975 0.527803 0.738995 0.517456
H5    H     H_    0.152709 0.564032 0.737960 0.064810
O9    O     O_2   0.071827 0.494255 0.838205 -0.489315
C38   C     C_2   0.906462 0.466874 0.269761 0.519072
H6    H     H_    0.847269 0.431483 0.270659 0.050143
O10   O     O_2   0.929373 0.499690 0.170439 -0.487764
C39   C     C_2   0.906586 0.535271 0.736083 0.538396
H7    H     H_    0.847651 0.501858 0.753932 0.053619
O11   O     O_2   0.929135 0.593704 0.809843 -0.498999
C40   C     C_2   0.093502 0.456624 0.273669 0.527701
H8    H     H_    0.152655 0.489193 0.254843 0.108185
O12   O     O_2   0.070508 0.397464 0.201435 -0.507647
C41   C     C_2   0.446331 0.166091 0.106197 0.573606
H9    H     H_    0.380534 0.149127 0.116605 0.105765
O13   O     O_2   0.500246 0.111726 0.136760 -0.538562
C42   C     C_2   0.422246 0.816674 0.852928 0.536243
H10   H     H_    0.417742 0.812568 0.750404 0.086987
O14   O     O_2   0.444032 0.887224 0.900639 -0.496856
C43   C     C_2   0.579600 0.185218 0.917312 0.558612
H11   H     H_    0.647874 0.185145 0.915634 0.091372
O15   O     O_2   0.542270 0.120004 0.877086 -0.522049
C44   C     C_2   0.379410 0.822806 0.133649 0.519947
H12   H     H_    0.404682 0.833234 0.228374 0.007381
O16   O     O_2   0.332295 0.879047 0.088515 -0.495421
C45   C     C_2   0.344884 0.651968 0.245562 0.455307
H13   H     H_    0.346757 0.704099 0.317513 0.067150
O17   O     O_2   0.295500 0.591065 0.257468 -0.622986
C46   C     C_2   0.624623 0.366851 0.835764 0.408199
H14   H     H_    0.652914 0.432315 0.838558 0.052092
O18   O     O_2   0.654192 0.310477 0.764063 -0.583031
C47   C     C_2   0.347754 0.635493 0.765907 0.492282
H15   H     H_    0.331175 0.567565 0.741886 0.028700
O19   O     O_2   0.312014 0.696177 0.710499 -0.590660
C48   C     C_2   0.365258 0.329539 0.212556 0.427899
H16   H     H_    0.322459 0.385765 0.225167 0.090453
O20   O     O_2   0.358962 0.266532 0.283815 -0.601461

loop_
_geom_bond_atom_site_label_1
_geom_bond_atom_site_label_2
_ccdc_geom_bond_type
C7    C10   A    
C14   C38   S    
C30   C43   S    
C37   H5    S    
C27   C33   A    
C11   C19   A    
C44   O16   D    
C10   H1    S    
C25   C45   S    
C48   O20   D    
C22   N1    T    
C3    C33   A    
C6    C22   S    
O4    Zn2   S    
C38   H6    S    
C3    C18   S    
C40   O12   D    
C20   C24   S    
C42   H10   S    
C41   O13   D    
O8    Zn2   S    
C7    H4    S    
C1    C15   S    
C8    H3    S    
C2    C16   S    
C16   O2    A    
N1    Zn2   S    
N2    Zn1   S    
O2    Zn2   S    
C37   O9    D    
C4    C35   A    
C28   C34   A    
C39   H7    S    
C11   C39   S    
C13   C37   S    
C45   O17   D    
C25   C29   A    
C31   C42   S    
C4    C34   A    
C39   O11   D    
C44   H12   S    
C27   C31   A    
C28   C32   A    
C46   O18   D    
C5    C7    A    
C48   H16   S    
C8    C9    A    
O5    Zn1   S    
C29   C44   S    
O7    Zn1   S    
C45   H13   S    
C26   C46   S    
C16   O3    A    
C19   C23   S    
C5    C9    A    
C40   H8    S    
C12   C40   S    
C47   H15   S    
C12   C20   A    
C25   C35   A    
C4    C17   S    
C26   C36   A    
C47   O19   D    
C12   C14   A    
C26   C30   A    
C28   C48   S    
C43   O15   D    
C13   C20   A    
C14   C19   A    
C17   O5    A    
C46   H14   S    
C18   O6    A    
C17   O8    A    
C6    C10   A    
C6    C8    A    
C27   C47   S    
C15   O1    A    
C43   H11   S    
C29   C31   A    
C30   C32   A    
C11   C13   A    
O1    Zn1   S    
C3    C36   A    
C9    H2    S    
C33   C35   A    
C38   O10   D    
C34   C36   A    
C21   N2    T    
O6    Zn2   S    
C5    C21   S    
C1    C24   T    
C42   O14   D    
C41   H9    S    
C2    C23   T    
O3    Zn1   S    
C15   O4    A    
C18   O7    A    
C32   C41   S    
