data_mof_unit_32980.cif
_audit_creation_date              2012-12-10T18:59:11-0500
_audit_creation_method            fapswitch 2.2
_symmetry_space_group_name_H-M    P1
_symmetry_Int_Tables_number       1
_space_group_crystal_system       triclinic
_cell_length_a                    9.937285
_cell_length_b                    10.614256
_cell_length_c                    16.832303
_cell_angle_alpha                 88.160601
_cell_angle_beta                  97.267048
_cell_angle_gamma                 88.084678
_cell_volume                      1758.99174643

loop_
_atom_site_label
_atom_site_type_symbol
_atom_type_description
_atom_site_fract_x
_atom_site_fract_y
_atom_site_fract_z
_atom_type_partial_charge
C1    C     C_R   0.501770 0.260295 0.500887 0.906451
C2    C     C_R   0.498188 0.739703 0.499004 0.889346
C3    C     C_R   0.418936 0.935538 0.548959 -0.038140
C4    C     C_R   0.580719 0.064473 0.450701 -0.041287
C5    C     C_R   0.495905 0.872320 0.498047 -0.016557
C6    C     C_R   0.503897 0.127677 0.501697 0.007550
C7    C     C_R   0.056084 0.595219 0.460365 0.498161
C8    C     C_R   0.943936 0.404772 0.539628 0.448033
C9    C     C_R   0.913844 0.593541 0.461464 -0.177017
C10   C     C_R   0.086179 0.406530 0.538603 -0.174948
C11   C     C_R   0.521046 0.500760 0.653164 0.933200
C12   C     C_R   0.478955 0.499221 0.346805 0.911209
C13   C     C_R   0.540485 0.497784 0.739898 -0.179577
C14   C     C_R   0.459930 0.501205 0.260018 -0.143010
C15   C     C_R   0.455611 0.421129 0.778868 -0.248905
C16   C     C_R   0.547321 0.575025 0.221012 -0.259274
C17   C     C_R   0.464269 0.418131 0.861337 -0.122148
C18   C     C_R   0.540696 0.575600 0.138686 -0.124363
C19   C     C_R   0.557760 0.493117 0.905955 0.244664
C20   C     C_R   0.446756 0.500932 0.094170 0.267015
C21   C     C_R   0.648260 0.563589 0.867931 -0.235738
C22   C     C_R   0.353875 0.433324 0.132067 -0.261243
C23   C     C_R   0.639936 0.568859 0.784631 0.409428
C24   C     C_R   0.359774 0.430790 0.215275 0.392133
C25   C     C_R   0.422516 0.064535 0.550570 -0.143453
C26   C     C_R   0.577180 0.935459 0.449113 -0.165088
H1    H     H_    0.363120 0.114993 0.589969 0.157951
H2    H     H_    0.636573 0.884982 0.409722 0.160255
H3    H     H_    0.847128 0.668065 0.431986 0.199346
H4    H     H_    0.152927 0.332076 0.568133 0.201121
N1    N     N_2   0.559015 0.504715 0.988939 -0.167582
N2    N     N_2   0.445991 0.488275 0.011287 -0.164281
N3    N     N_R   0.857210 0.499970 0.500020 -0.157757
N4    N     N_R   0.142790 0.500030 0.499980 -0.159237
O1    O     O_R   0.614620 0.316750 0.500010 -0.550472
O2    O     O_R   0.385380 0.683250 0.499990 -0.566207
O3    O     O_R   0.385290 0.316780 0.500000 -0.614421
O4    O     O_R   0.614710 0.683220 0.500000 -0.604359
O5    O     O_R   0.627460 0.498830 0.616130 -0.527250
O6    O     O_R   0.372540 0.501170 0.383870 -0.502959
O7    O     O_R   0.398130 0.498850 0.616130 -0.638478
O8    O     O_R   0.601870 0.501150 0.383870 -0.642560
Zn1   Zn    Zn3+2 0.653130 0.499980 0.500000 1.075438
Zn2   Zn    Zn3+2 0.346870 0.500020 0.500000 1.081947
H5    H     H_    0.622181 0.631476 0.254508 0.188228
H6    H     H_    0.381326 0.364231 0.745267 0.187395
H7    H     H_    0.610679 0.632233 0.109959 0.175694
H8    H     H_    0.396061 0.359561 0.890154 0.174363
H9    H     H_    0.720573 0.619424 0.903716 0.208084
H10   H     H_    0.281235 0.377870 0.096270 0.181876
S1    S     S_3+6 0.747188 0.672702 0.739867 0.039800
O9    O     O_2   0.853288 0.597107 0.703847 -0.293882
O10   O     O_2   0.664451 0.753509 0.675373 -0.309847
O11   O     O_3   0.824757 0.766494 0.808779 -0.542213
H11   H     H_    0.881990 0.820538 0.778883 0.405162
S2    S     S_3+6 0.248343 0.331202 0.260043 0.063294
O12   O     O_2   0.327914 0.248394 0.324692 -0.284794
O13   O     O_2   0.145247 0.410051 0.296493 -0.263706
O14   O     O_3   0.166921 0.238534 0.191796 -0.512812
H12   H     H_    0.089048 0.291287 0.165074 0.362282
H13   H     H_    0.358828 0.885105 0.588064 0.177805
H14   H     H_    0.640787 0.114918 0.411579 0.174924
S3    S     S_3+6 0.109824 0.732272 0.411339 0.081061
O15   O     O_2   0.992092 0.792584 0.356778 -0.294835
O16   O     O_2   0.154943 0.824861 0.473958 -0.294933
O17   O     O_3   0.234064 0.703804 0.354972 -0.517179
H15   H     H_    0.264490 0.788092 0.339632 0.373132
S4    S     S_3+6 0.890245 0.267450 0.588408 0.078926
O18   O     O_2   0.843913 0.175417 0.525747 -0.250476
O19   O     O_2   0.008176 0.205369 0.641999 -0.319327
O20   O     O_3   0.766412 0.294812 0.645298 -0.517278
H16   H     H_    0.812428 0.328747 0.695352 0.372322

loop_
_geom_bond_atom_site_label_1
_geom_bond_atom_site_label_2
_ccdc_geom_bond_type
C16   H5    S    
C12   O6    A    
C4    C26   A    
S3    O16   D    
C7    C9    A    
S1    O9    D    
C14   C16   A    
C1    O3    A    
C24   S2    S    
O1    Zn1   S    
C2    O4    A    
C23   S1    S    
N1    N2    D    
S2    O14   S    
C9    H3    S    
C22   H10   S    
S1    O11   S    
C19   N1    S    
C18   H7    S    
C2    O2    A    
O3    Zn2   S    
C21   H9    S    
O17   H15   S    
C12   C14   S    
S3    O17   S    
O14   H12   S    
C10   N4    A    
C9    N3    A    
C11   C13   S    
C7    S3    S    
C12   O8    A    
S4    O20   S    
C4    C6    A    
C19   C21   A    
S2    O13   D    
C8    S4    S    
C18   C20   A    
C8    N3    A    
C13   C15   A    
C21   C23   A    
C11   O5    A    
O7    Zn2   S    
C22   C24   A    
O2    Zn2   S    
C2    C5    S    
C25   H1    S    
O8    Zn1   S    
C3    H13   S    
C17   H8    S    
C5    C26   A    
C6    C25   A    
C4    H14   S    
O6    Zn2   S    
C3    C25   A    
N4    Zn2   S    
S2    O12   D    
C13   C23   A    
C16   C18   A    
S1    O10   D    
C20   N2    S    
C7    N4    A    
C14   C24   A    
C15   C17   A    
C1    O1    A    
C10   H4    S    
O11   H11   S    
S4    O18   D    
O20   H16   S    
O5    Zn1   S    
C15   H6    S    
C17   C19   A    
S4    O19   D    
C26   H2    S    
C8    C10   A    
O4    Zn1   S    
C1    C6    S    
C11   O7    A    
C20   C22   A    
S3    O15   D    
C3    C5    A    
N3    Zn1   S    
