data_mof_unit_17635.cif
_audit_creation_date              2012-12-10T18:23:10-0500
_audit_creation_method            fapswitch 2.2
_symmetry_space_group_name_H-M    P1
_symmetry_Int_Tables_number       1
_space_group_crystal_system       triclinic
_cell_length_a                    15.005358
_cell_length_b                    14.012147
_cell_length_c                    10.530374
_cell_angle_alpha                 90.797059
_cell_angle_beta                  89.779816
_cell_angle_gamma                 90.01643
_cell_volume                      2213.85717238

loop_
_atom_site_label
_atom_site_type_symbol
_atom_type_description
_atom_site_fract_x
_atom_site_fract_y
_atom_site_fract_z
_atom_type_partial_charge
C1    C     C_R   0.326492 0.499990 0.499985 0.911034
C2    C     C_R   0.953859 0.671506 0.462037 -0.196881
C3    C     C_R   0.554820 0.797301 0.418247 -0.021363
C4    C     C_R   0.445180 0.202699 0.581753 -0.021363
C5    C     C_R   0.445137 0.798968 0.581677 0.005877
C6    C     C_R   0.554863 0.201032 0.418323 0.005877
C7    C     C_R   0.443904 0.899650 0.583784 0.008519
C8    C     C_R   0.556096 0.100350 0.416216 0.008519
C9    C     C_R   0.556088 0.897945 0.416195 0.013286
C10   C     C_R   0.443912 0.102055 0.583805 0.013286
C11   C     C_R   0.500000 0.949387 0.499998 0.085185
C12   C     C_R   0.673508 0.500010 0.500015 0.911034
C13   C     C_R   0.500000 0.050613 0.500002 0.085185
C14   C     C_R   0.388192 0.951543 0.667212 -0.156775
C15   C     C_R   0.611808 0.048457 0.332788 -0.156775
C16   C     C_R   0.611811 0.948144 0.332786 -0.177281
C17   C     C_R   0.388188 0.051855 0.667214 -0.177281
C18   C     C_R   0.500302 0.499198 0.257331 0.993119
C19   C     C_R   0.499698 0.500802 0.742668 0.993119
C20   C     C_3   0.425612 0.540647 0.044230 0.373652
C21   C     C_3   0.574388 0.459353 0.955770 0.373652
C22   C     C_3   0.496384 0.590958 0.963907 0.411805
C23   C     C_R   0.953639 0.500011 0.500062 0.065500
C24   C     C_3   0.503616 0.409042 0.036093 0.411805
C25   C     C_3   0.427995 0.451767 0.955948 -0.373640
C26   C     C_3   0.572005 0.548233 0.044052 -0.373640
C27   C     C_3   0.499652 0.502478 0.877126 -0.274401
C28   C     C_3   0.500348 0.497522 0.122874 -0.274401
C29   C     C_R   0.815180 0.585614 0.481297 -0.240659
C30   C     C_R   0.184820 0.414385 0.518702 -0.240659
C31   C     C_R   0.769355 0.500029 0.500141 -0.060577
C32   C     C_R   0.230645 0.499970 0.499859 -0.060577
C33   C     C_R   0.815026 0.414449 0.519039 -0.199941
C34   C     C_R   0.046361 0.499989 0.499938 0.065500
C35   C     C_R   0.184974 0.585551 0.480961 -0.199941
C36   C     C_R   0.907204 0.413798 0.519174 0.109419
C37   C     C_R   0.092796 0.586202 0.480826 0.109419
C38   C     C_R   0.907361 0.586243 0.481056 0.117647
C39   C     C_R   0.092639 0.413757 0.518944 0.117647
C40   C     C_R   0.953545 0.328514 0.538081 -0.186181
C41   C     C_R   0.046455 0.671486 0.461919 -0.186181
C42   C     C_R   0.046141 0.328493 0.537963 -0.196881
Cl1   Cl    Cl    0.326764 0.593850 0.107443 -0.551244
Cl2   Cl    Cl    0.673236 0.406149 0.892557 -0.551245
Cl3   Cl    Cl    0.491225 0.712732 0.917485 -0.556767
Cl4   Cl    Cl    0.508775 0.287267 0.082515 -0.556767
H1    H     H_    0.369464 0.413038 0.916699 0.203523
H2    H     H_    0.918661 0.737953 0.447335 0.151808
H3    H     H_    0.597486 0.756400 0.354691 0.135322
H4    H     H_    0.402514 0.243600 0.645309 0.135322
H5    H     H_    0.402392 0.759356 0.645093 0.162199
H6    H     H_    0.597608 0.240644 0.354907 0.162199
H7    H     H_    0.344634 0.914572 0.732444 0.168019
H8    H     H_    0.655366 0.085428 0.267556 0.168019
H9    H     H_    0.655387 0.909850 0.267568 0.155902
H10   H     H_    0.344612 0.090150 0.732432 0.155902
H11   H     H_    0.630536 0.586961 0.083301 0.203523
H12   H     H_    0.779276 0.651649 0.466166 0.161865
H13   H     H_    0.220724 0.348351 0.533834 0.161865
H14   H     H_    0.779002 0.348419 0.534165 0.173468
H15   H     H_    0.220998 0.651581 0.465835 0.173468
H16   H     H_    0.918225 0.262082 0.552853 0.156418
H17   H     H_    0.081775 0.737918 0.447147 0.156418
H18   H     H_    0.081339 0.262047 0.552665 0.151808
N1    N     N_R   0.500000 0.750030 0.500000 -0.110805
N2    N     N_R   0.500000 0.249970 0.500000 -0.110805
O1    O     O_R   0.367850 0.580280 0.500030 -0.625335
O2    O     O_R   0.632150 0.419720 0.499970 -0.625335
O3    O     O_R   0.632150 0.580280 0.499970 -0.636732
O4    O     O_R   0.367850 0.419720 0.500030 -0.636731
O5    O     O_R   0.499970 0.580260 0.313950 -0.605186
O6    O     O_R   0.500030 0.419740 0.686050 -0.605185
O7    O     O_R   0.500030 0.580260 0.686050 -0.590240
O8    O     O_R   0.499970 0.419740 0.313950 -0.590240
Zn1   Zn    Zn3+2 0.500000 0.607200 0.500000 1.000443
Zn2   Zn    Zn3+2 0.500000 0.392800 0.500000 1.000444

loop_
_geom_bond_atom_site_label_1
_geom_bond_atom_site_label_2
_ccdc_geom_bond_type
C30   C32   A    
C21   C26   S    
C8    C13   A    
C34   C37   A    
C12   O3    A    
C3    H3    S    
C7    C11   A    
C12   O2    A    
O8    Zn2   S    
C35   C37   A    
C9    C16   A    
C20   C25   S    
C10   C17   A    
C15   C16   A    
C33   C36   A    
C40   H16   S    
C7    C14   A    
C29   C38   A    
C31   C33   A    
C19   C27   S    
C25   H1    S    
O6    Zn2   S    
C40   C42   A    
C21   C27   S    
C18   O8    A    
O7    Zn1   S    
C14   C17   A    
C19   O6    A    
C3    N1    A    
C39   C42   A    
O5    Zn1   S    
C34   C39   A    
C32   C35   A    
C36   C40   A    
C18   C28   S    
C24   C25   S    
C5    N1    A    
C5    C7    A    
C6    C8    A    
C8    C15   A    
C20   C28   S    
C2    H2    S    
C1    C32   S    
C4    H4    S    
C15   H8    S    
C3    C9    A    
C21   Cl2   S    
C2    C38   A    
C19   O7    A    
C23   C34   A    
N2    Zn2   S    
C30   H13   S    
C22   Cl3   S    
C35   H15   S    
C9    C11   A    
C17   H10   S    
C20   C22   S    
C33   H14   S    
C22   C27   S    
C12   C31   S    
O4    Zn2   S    
C25   C27   S    
C41   H17   S    
C4    C10   A    
C42   H18   S    
C20   Cl1   S    
C18   O5    A    
C24   C28   S    
C10   C13   A    
O2    Zn2   S    
C23   C38   A    
C26   C28   S    
C1    O4    A    
N1    Zn1   S    
C24   Cl4   S    
C16   H9    S    
C29   C31   A    
C4    N2    A    
C11   C13   A    
C1    O1    A    
C30   C39   A    
O3    Zn1   S    
C37   C41   A    
C26   H11   S    
C6    N2    A    
C14   H7    S    
O1    Zn1   S    
C29   H12   S    
C23   C36   A    
C22   C26   S    
C21   C24   S    
C5    H5    S    
C2    C41   A    
C6    H6    S    
