data_mof_unit_10857.cif
_audit_creation_date              2012-12-11T16:29:27-0500
_audit_creation_method            fapswitch 2.2
_symmetry_space_group_name_H-M    P1
_symmetry_Int_Tables_number       1
_space_group_crystal_system       triclinic
_cell_length_a                    6.952886
_cell_length_b                    17.331104
_cell_length_c                    18.74632
_cell_angle_alpha                 106.335264
_cell_angle_beta                  89.708795
_cell_angle_gamma                 90.497331
_cell_volume                      2167.67538129

loop_
_atom_site_label
_atom_site_type_symbol
_atom_type_description
_atom_site_fract_x
_atom_site_fract_y
_atom_site_fract_z
_atom_type_partial_charge
O1    O     O_R   0.494360 0.415680 0.413760 -0.532190
O2    O     O_R   0.818810 0.432910 0.557230 -0.524098
O3    O     O_R   0.994290 0.584320 0.586240 -0.533007
C1    C     C_R   0.649808 0.415916 0.580583 0.711554
O4    O     O_R   0.823740 0.406440 0.412520 -0.534586
O5    O     O_R   0.999250 0.557660 0.440500 -0.526875
C2    C     C_R   0.654787 0.383561 0.385005 0.697179
O6    O     O_R   0.489400 0.442340 0.559500 -0.524642
O7    O     O_3   0.662500 0.549650 0.509350 -0.360376
V1    V     V_3+5 0.935340 0.490790 0.498270 1.424732
O8    O     O_R   0.329270 0.567090 0.442770 -0.524096
C3    C     C_R   0.161152 0.583915 0.419267 0.712677
O9    O     O_R   0.324340 0.593560 0.587480 -0.535766
C4    C     C_R   0.155425 0.616421 0.615063 0.693973
V2    V     V_3+5 0.435970 0.509210 0.501730 1.422196
O10   O     O_3   0.158940 0.450350 0.490650 -0.356977
H1    H     H_    0.844832 0.846702 0.561294 0.139797
C5    C     C_R   0.305773 0.604356 0.755341 -0.144436
C6    C     C_R   0.377566 0.596222 0.822060 -0.119574
C7    C     C_R   0.364252 0.659500 0.886584 -0.117371
C8    C     C_R   0.279327 0.731447 0.884858 -0.134664
C9    C     C_R   0.207518 0.742041 0.817698 0.069784
C10   C     C_R   0.220727 0.677066 0.751540 0.064863
C11   C     C_R   0.119801 0.815165 0.816087 -0.158797
C12   C     C_R   0.045124 0.823230 0.748216 0.012466
C13   C     C_R   0.058028 0.758219 0.682127 0.074886
C14   C     C_R   0.145558 0.685027 0.683735 -0.166229
C15   C     C_R   0.960329 0.896001 0.744450 -0.234881
C16   C     C_R   0.891197 0.905045 0.677162 0.509317
C17   C     C_R   0.900833 0.840593 0.613216 -0.179130
C18   C     C_R   0.985202 0.768623 0.615114 -0.220124
H2    H     H_    0.316617 0.552678 0.707168 0.109560
H3    H     H_    0.442438 0.540215 0.823791 0.118485
H4    H     H_    0.418660 0.652621 0.938444 0.115423
H5    H     H_    0.269216 0.778112 0.936961 0.104101
H6    H     H_    0.946529 0.946685 0.793304 0.121831
H7    H     H_    0.993590 0.721640 0.563169 0.129683
C19   C     C_1   0.111555 0.863625 0.132386 -0.218132
C20   C     C_1   0.118702 0.820869 0.175805 -0.001344
C21   C     C_1   0.127708 0.770507 0.227573 -0.008141
C22   C     C_1   0.135582 0.728190 0.271353 -0.006537
C23   C     C_1   0.145301 0.678053 0.323292 0.013249
C24   C     C_1   0.153161 0.635655 0.367000 -0.206694
C25   C     C_1   0.641204 0.363875 0.632518 -0.218348
C26   C     C_1   0.637040 0.321159 0.675987 -0.004929
C27   C     C_1   0.633693 0.270800 0.727771 -0.011337
C28   C     C_1   0.631193 0.228475 0.771590 -0.012501
C29   C     C_1   0.627907 0.178305 0.823540 0.009050
C30   C     C_1   0.623821 0.135805 0.867196 -0.204283
C31   C     C_R   0.555659 0.408095 0.243567 -0.243333
C32   C     C_R   0.511520 0.422763 0.175822 0.460348
C33   C     C_R   0.495202 0.358467 0.111847 -0.185880
C34   C     C_R   0.530527 0.280246 0.114401 -0.217337
C35   C     C_R   0.580253 0.264082 0.181839 0.071117
C36   C     C_R   0.592273 0.329319 0.247815 0.015734
C37   C     C_R   0.621090 0.184724 0.184063 -0.145762
C38   C     C_R   0.674727 0.170841 0.252350 0.069041
C39   C     C_R   0.685603 0.236053 0.318385 0.010364
C40   C     C_R   0.644049 0.315294 0.316160 -0.131585
C41   C     C_R   0.716256 0.092428 0.256460 -0.231064
C42   C     C_R   0.766783 0.078569 0.323596 -0.183173
C43   C     C_R   0.773168 0.141760 0.388719 0.511573
C44   C     C_R   0.735966 0.220150 0.385895 -0.229573
H8    H     H_    0.562633 0.459372 0.292328 0.116553
H9    H     H_    0.457376 0.369314 0.059557 0.134971
H10   H     H_    0.519925 0.232842 0.062757 0.121626
H11   H     H_    0.709767 0.040823 0.207987 0.129713
H12   H     H_    0.799282 0.018071 0.325159 0.140071
H13   H     H_    0.746997 0.268006 0.437199 0.114843
O11   O     O_R   0.775690 0.057750 0.940570 -0.524339
O12   O     O_R   0.441200 0.093570 0.087490 -0.534123
O13   O     O_R   0.265840 0.942320 0.059480 -0.524021
C45   C     C_R   0.610138 0.116422 0.115153 0.695954
O14   O     O_R   0.446270 0.067110 0.942790 -0.527351
O15   O     O_R   0.270950 0.915660 0.913750 -0.532691
C46   C     C_R   0.615255 0.084001 0.919340 0.715938
O16   O     O_R   0.770580 0.084400 0.086300 -0.533096
O17   O     O_3   0.602640 0.950400 0.990690 -0.359643
V3    V     V_3+5 0.329740 0.009200 0.001730 1.420651
O18   O     O_R   0.940900 0.906360 0.912450 -0.535024
C47   C     C_R   0.109841 0.883654 0.884820 0.695644
O19   O     O_R   0.935830 0.932820 0.057160 -0.526348
C48   C     C_R   0.103914 0.915826 0.080512 0.712656
V4    V     V_3+5 0.829130 0.990680 0.998180 1.418894
O20   O     O_3   0.106100 0.049590 0.009310 -0.358826
O21   O     O_3   0.473135 0.499771 0.172508 -0.555211
C49   C     C_3   0.649005 0.541938 0.175346 0.089022
H14   H     H_    0.744118 0.511132 0.128027 0.123694
H15   H     H_    0.725401 0.547694 0.228715 0.118821
C50   C     C_3   0.609159 0.626204 0.169775 -0.681336
H16   H     H_    0.519816 0.659417 0.217638 0.226313
H17   H     H_    0.746924 0.659311 0.170444 0.180447
H18   H     H_    0.532052 0.622974 0.117254 0.219495
O22   O     O_3   0.801525 0.974898 0.673935 -0.555500
C51   C     C_3   0.939562 0.037251 0.684933 -0.239913
H19   H     H_    0.064405 0.019603 0.646440 0.142406
H20   H     H_    0.989018 0.056771 0.743622 0.133599
H21   H     H_    0.871590 0.089849 0.672867 0.169595
O23   O     O_3   0.829375 0.126961 0.454209 -0.554918
C52   C     C_3   0.667089 0.132532 0.500770 -0.233215
H22   H     H_    0.552058 0.089403 0.473320 0.142866
H23   H     H_    0.610119 0.194813 0.518531 0.131441
H24   H     H_    0.710805 0.116654 0.551669 0.175133

loop_
_geom_bond_atom_site_label_1
_geom_bond_atom_site_label_2
_ccdc_geom_bond_type
C49   H14   S    
C36   C40   A    
C19   C48   S    
C31   H8    S    
C22   C23   S    
C51   H19   S    
O18   V4    S    
O12   V3    S    
C38   C39   A    
C51   H21   S    
C34   C35   A    
C25   C26   T    
C12   C15   A    
C13   C14   A    
C16   C17   A    
O14   C46   A    
C15   C16   A    
C3    C24   S    
O5    C3    A    
C17   C18   A    
V2    O10   S    
C37   C38   A    
C5    C6    A    
C35   C36   A    
O8    V2    S    
C28   C29   S    
C41   H11   S    
O1    V2    S    
C10   C14   A    
C4    C14   S    
O11   V4    S    
O7    V1    S    
C1    O6    A    
C7    H4    S    
C13   C18   A    
O9    C4    A    
H1    C17   S    
C42   C43   A    
C32   O21   S    
C2    C40   S    
C35   C37   A    
C32   C33   A    
C44   H13   S    
C11   C12   A    
C6    H3    S    
C20   C21   S    
O12   C45   A    
O17   V3    S    
O15   C47   A    
C38   C41   A    
C1    C25   S    
O16   V4    S    
C12   C13   A    
C26   C27   S    
C52   H24   S    
C5    C10   A    
C18   H7    S    
C41   C42   A    
O2    C1    A    
C11   C47   S    
C43   C44   A    
C50   H17   S    
O23   C52   S    
C52   H23   S    
C31   C32   A    
C30   C46   S    
V4    O20   S    
C34   H10   S    
O3    C4    A    
C21   C22   T    
O6    V2    S    
O19   V4    S    
O14   V3    S    
C49   H15   S    
O11   C46   A    
C16   O22   S    
C9    C11   A    
C5    H2    S    
C23   C24   T    
O2    V1    S    
V3    O20   S    
C33   C34   A    
O21   C49   S    
C50   H18   S    
O4    C2    A    
C39   C44   A    
C27   C28   T    
C29   C30   T    
C37   C45   S    
O1    C2    A    
O18   C47   A    
O5    V1    S    
O8    C3    A    
C51   H20   S    
C8    H5    S    
O13   V3    S    
C31   C36   A    
C6    C7    A    
O9    V2    S    
C39   C40   A    
O4    V1    S    
O3    V1    S    
V1    O10   S    
C42   H12   S    
C50   H16   S    
C19   C20   T    
C52   H22   S    
O7    V2    S    
O22   C51   S    
O13   C48   A    
C43   O23   S    
O17   V4    S    
C7    C8    A    
C15   H6    S    
O19   C48   A    
C49   C50   S    
C45   O16   A    
C9    C10   A    
C8    C9    A    
O15   V3    S    
C33   H9    S    
