data_mof_unit_60709.cif
_audit_creation_date              2012-12-10T19:29:50-0500
_audit_creation_method            fapswitch 2.2
_symmetry_space_group_name_H-M    P1
_symmetry_Int_Tables_number       1
_space_group_crystal_system       triclinic
_cell_length_a                    23.532705
_cell_length_b                    30.875061
_cell_length_c                    30.46809
_cell_angle_alpha                 90.015638
_cell_angle_beta                  90.160925
_cell_angle_gamma                 90.196663
_cell_volume                      22137.0943505

loop_
_atom_site_label
_atom_site_type_symbol
_atom_type_description
_atom_site_fract_x
_atom_site_fract_y
_atom_site_fract_z
_atom_type_partial_charge
C1    C     C_R   0.501180 0.690251 0.310198 0.891213
C2    C     C_R   0.500520 0.589512 0.597405 -0.262074
C3    C     C_R   0.109321 0.749973 0.249973 0.882567
C4    C     C_R   0.390715 0.250989 0.748913 0.883192
C5    C     C_R   0.390690 0.250317 0.250364 0.870074
C6    C     C_R   0.609329 0.250058 0.750060 0.891479
C7    C     C_R   0.609329 0.249991 0.249976 0.899165
C8    C     C_3   0.539134 0.946257 0.161662 0.900918
C9    C     C_3   0.445855 0.944787 0.836668 0.817432
C10   C     C_3   0.036998 0.446784 0.162486 0.898549
C11   C     C_3   0.919217 0.433755 0.848080 0.882522
C12   C     C_3   0.037973 0.946548 0.661962 0.900407
C13   C     C_R   0.001078 0.090150 0.403083 -0.184537
C14   C     C_3   0.949205 0.944618 0.336466 0.890680
C15   C     C_3   0.526021 0.448943 0.663390 0.898773
C16   C     C_3   0.460376 0.445898 0.338367 0.900671
C17   C     C_3   0.535567 0.911198 0.197479 0.668519
C18   C     C_3   0.448018 0.907892 0.802005 0.767307
C19   C     C_3   0.033006 0.411624 0.198163 0.670253
C20   C     C_3   0.920325 0.396645 0.813666 0.706382
C21   C     C_3   0.034287 0.911470 0.697746 0.669681
C22   C     C_3   0.953174 0.908414 0.301579 0.708372
C23   C     C_3   0.523212 0.413787 0.699098 0.676593
C24   C     C_R   0.000056 0.090797 0.595821 -0.195956
C25   C     C_3   0.463972 0.410830 0.302564 0.668376
C26   C     C_R   0.499885 0.940246 0.939587 0.841336
C27   C     C_R   0.500142 0.939828 0.060225 0.908794
C28   C     C_R   0.999853 0.439550 0.940176 0.831856
C29   C     C_R   0.000188 0.440040 0.060430 0.900508
C30   C     C_R   0.999633 0.940540 0.439150 0.852512
C31   C     C_R   0.000155 0.939884 0.560273 0.912212
C32   C     C_R   0.499736 0.439834 0.439759 0.896983
C33   C     C_R   0.500101 0.439914 0.560210 0.889986
C34   C     C_R   0.499937 0.559538 0.439058 0.902964
C35   C     C_R   0.000815 0.591047 0.904277 -0.209734
C36   C     C_R   0.500236 0.559284 0.561373 0.956415
C37   C     C_R   0.000261 0.059859 0.439109 0.906350
C38   C     C_R   0.000194 0.059369 0.561134 0.897502
C39   C     C_R   0.000139 0.558698 0.938171 0.873082
C40   C     C_R   0.000198 0.559435 0.061068 0.914049
C41   C     C_R   0.500266 0.060224 0.939464 0.893957
C42   C     C_R   0.500192 0.059381 0.061119 0.897023
C43   C     C_R   0.499035 0.809776 0.189718 0.915405
C44   C     C_R   0.500488 0.809763 0.810179 0.919660
C45   C     C_R   0.998959 0.309781 0.189702 0.912213
C46   C     C_R   0.000299 0.590488 0.096074 -0.240583
C47   C     C_R   0.000013 0.309692 0.810127 0.901394
C48   C     C_R   0.999015 0.809781 0.689712 0.914131
C49   C     C_R   0.000728 0.809795 0.310217 0.909534
C50   C     C_R   0.499346 0.309842 0.689693 0.916021
C51   C     C_R   0.500952 0.309772 0.310283 0.914871
C52   C     C_1   0.330437 0.749802 0.249821 -0.162997
C53   C     C_1   0.330448 0.749944 0.749918 -0.139199
C54   C     C_1   0.669561 0.750456 0.249836 -0.183293
C55   C     C_1   0.669570 0.749859 0.749910 -0.163581
C56   C     C_1   0.830453 0.250995 0.248789 -0.180517
C57   C     C_R   0.501124 0.090769 0.903672 -0.187091
C58   C     C_1   0.830456 0.250454 0.750545 -0.179778
C59   C     C_1   0.169570 0.250216 0.250196 -0.165240
C60   C     C_1   0.169576 0.250028 0.749854 -0.162910
C61   C     C_1   0.830445 0.749845 0.749734 -0.170011
C62   C     C_1   0.830440 0.750080 0.250041 -0.147692
C63   C     C_1   0.169569 0.750179 0.750076 -0.165989
C64   C     C_1   0.169556 0.749898 0.249879 -0.164716
C65   C     C_1   0.330451 0.250913 0.748865 -0.180202
C66   C     C_1   0.330452 0.250412 0.250503 -0.185345
C67   C     C_1   0.669574 0.250222 0.750212 -0.161922
C68   C     C_R   0.500050 0.090812 0.095794 -0.194859
C69   C     C_1   0.669578 0.250041 0.249843 -0.160438
C70   C     C_1   0.279643 0.749782 0.249785 0.023246
C71   C     C_1   0.279657 0.750027 0.749932 0.023389
C72   C     C_1   0.720352 0.750401 0.249938 0.018696
C73   C     C_1   0.720366 0.749764 0.749863 0.011373
C74   C     C_1   0.779664 0.250695 0.249076 0.010433
C75   C     C_1   0.779667 0.250458 0.750508 0.027194
C76   C     C_1   0.220367 0.250329 0.250323 0.022257
C77   C     C_1   0.220373 0.250242 0.749568 0.021077
C78   C     C_1   0.779656 0.749748 0.749788 0.002491
C79   C     C_R   0.544034 0.621565 0.404175 -0.125162
C80   C     C_1   0.779646 0.750231 0.250020 0.030200
C81   C     C_1   0.220364 0.750143 0.750013 0.018997
C82   C     C_1   0.220349 0.749830 0.249814 0.020996
C83   C     C_1   0.279663 0.250624 0.749137 0.009561
C84   C     C_1   0.279662 0.250410 0.250458 0.014750
C85   C     C_1   0.720372 0.250358 0.750359 0.028458
C86   C     C_1   0.720374 0.250281 0.249535 0.023187
C87   C     C_R   0.544879 0.654485 0.373778 -0.149624
C88   C     C_R   0.451727 0.646207 0.635799 -0.097021
C89   C     C_R   0.948160 0.134031 0.352009 -0.158647
C90   C     C_R   0.450961 0.612495 0.606624 0.003254
C91   C     C_R   0.954530 0.153353 0.627256 -0.145608
C92   C     C_R   0.958390 0.656642 0.876207 -0.130242
C93   C     C_R   0.958806 0.654431 0.126747 -0.100148
C94   C     C_R   0.448269 0.133853 0.851870 -0.165898
C95   C     C_R   0.454603 0.153428 0.127167 -0.145364
C96   C     C_R   0.500952 0.657481 0.343044 -0.133462
C97   C     C_R   0.501282 0.657493 0.657537 -0.195506
C98   C     C_R   0.997769 0.156762 0.341886 -0.114573
C99   C     C_R   0.999247 0.157412 0.657124 -0.131341
C100  C     C_R   0.000490 0.658609 0.844040 -0.137699
C101  C     C_R   0.949708 0.103403 0.384554 -0.052839
C102  C     C_R   0.002232 0.657545 0.157285 -0.212452
C103  C     C_R   0.497743 0.156823 0.841902 -0.108062
C104  C     C_R   0.499250 0.157413 0.157112 -0.131253
C105  C     C_R   0.459944 0.624764 0.340052 -0.185919
C106  C     C_R   0.549165 0.631164 0.653933 -0.214579
C107  C     C_R   0.050284 0.140816 0.355641 -0.178654
C108  C     C_R   0.041127 0.125504 0.659596 -0.182831
C109  C     C_R   0.046137 0.629806 0.844826 -0.187735
C110  C     C_R   0.042708 0.624657 0.160113 -0.216296
C111  C     C_R   0.550273 0.141567 0.856354 -0.180267
C112  C     C_R   0.500088 0.690277 0.689958 0.951952
C113  C     C_R   0.955682 0.120591 0.596741 -0.140569
C114  C     C_R   0.541051 0.125445 0.159633 -0.182841
C115  C     C_R   0.458789 0.591379 0.370540 0.437530
C116  C     C_R   0.549479 0.596878 0.624145 0.430985
C117  C     C_R   0.052614 0.106138 0.384714 0.451272
C118  C     C_R   0.042297 0.092010 0.629184 0.445898
C119  C     C_R   0.046854 0.595636 0.874530 0.439086
C120  C     C_R   0.042977 0.591240 0.129362 0.432291
C121  C     C_R   0.552691 0.107207 0.885770 0.435659
C122  C     C_R   0.542210 0.091957 0.129214 0.445425
C123  C     C_3   0.551845 0.750115 0.446788 -0.189115
C124  C     C_R   0.957882 0.621979 0.904712 -0.178733
C125  C     C_3   0.317951 0.702612 0.617303 -0.191488
C126  C     C_3   0.629617 0.722826 0.358209 -0.258254
C127  C     C_3   0.477846 0.713402 0.570193 -0.261458
C128  C     C_3   0.857552 0.147654 0.292282 -0.253288
C129  C     C_3   0.867171 0.218727 0.644723 -0.272485
C130  C     C_3   0.834563 0.209513 0.384331 -0.195441
C131  C     C_3   0.941078 0.249312 0.555363 -0.144397
C132  C     C_3   0.816242 0.649511 0.824636 -0.197046
C133  C     C_3   0.852362 0.731185 0.087425 -0.172113
C134  C     C_3   0.884691 0.732675 0.875585 -0.246063
C135  C     C_R   0.956465 0.620705 0.097683 -0.040795
C136  C     C_3   0.023314 0.714190 0.074492 -0.229266
C137  C     C_3   0.357919 0.146657 0.791674 -0.269567
C138  C     C_3   0.367370 0.218932 0.144513 -0.272063
C139  C     C_3   0.333953 0.209172 0.883070 -0.196376
C140  C     C_3   0.441568 0.249408 0.055255 -0.143633
C141  C     C_3   0.636885 0.951629 0.140105 -0.235705
C142  C     C_3   0.526917 0.991261 0.838378 -0.325787
C143  C     C_3   0.487444 0.003344 0.193515 -0.205342
C144  C     C_3   0.381711 0.992968 0.869083 -0.073851
C145  C     C_3   0.135092 0.453028 0.142161 -0.242042
C146  C     C_R   0.449794 0.103470 0.884676 -0.073633
C147  C     C_3   0.983364 0.492555 0.838058 -0.325190
C148  C     C_3   0.984118 0.503558 0.193689 -0.193784
C149  C     C_3   0.850769 0.473758 0.886952 -0.057714
C150  C     C_3   0.135897 0.952462 0.641039 -0.237907
C151  C     C_3   0.044329 0.973263 0.339406 -0.346256
C152  C     C_3   0.985589 0.003465 0.693417 -0.203917
C153  C     C_3   0.882643 0.984830 0.376024 -0.143153
C154  C     C_3   0.624941 0.460985 0.648570 -0.273567
C155  C     C_3   0.512110 0.503174 0.306404 -0.206111
C156  C     C_3   0.470545 0.507189 0.686935 -0.152211
C157  C     C_R   0.455748 0.120669 0.096648 -0.140451
C158  C     C_3   0.362693 0.450746 0.360107 -0.237246
C159  C     C_3   0.565280 0.650389 0.440356 0.664322
C160  C     C_3   0.405579 0.632716 0.578678 0.632451
C161  C     C_3   0.894650 0.118300 0.403986 0.685421
C162  C     C_3   0.932801 0.149119 0.561024 0.687219
C163  C     C_3   0.894544 0.616266 0.900085 0.772449
C164  C     C_R   0.997130 0.190160 0.309912 0.908362
C165  C     C_3   0.926405 0.647201 0.063360 0.619505
C166  C     C_3   0.394589 0.118474 0.903821 0.690084
C167  C     C_3   0.433017 0.149225 0.060898 0.686532
C168  C     C_3   0.568154 0.687068 0.406396 0.946884
C169  C     C_3   0.407927 0.671690 0.610947 0.816549
C170  C     C_3   0.889935 0.149745 0.365184 0.873973
C171  C     C_3   0.929001 0.185413 0.595310 0.931176
C172  C     C_3   0.894284 0.657324 0.871384 0.779188
C173  C     C_3   0.930993 0.685784 0.095642 0.901058
C174  C     C_3   0.389874 0.149479 0.864669 0.879101
C175  C     C_R   0.998890 0.190241 0.689842 0.889515
C176  C     C_3   0.429230 0.185526 0.095183 0.931312
C177  C     C_R   0.533015 0.878756 0.161005 -0.089190
C178  C     C_R   0.479891 0.882609 0.835524 -0.085382
C179  C     C_R   0.031964 0.379264 0.161586 -0.087081
C180  C     C_R   0.967782 0.378184 0.839770 -0.038710
C181  C     C_R   0.032519 0.879014 0.661256 -0.089170
C182  C     C_R   0.966563 0.878705 0.338772 -0.065086
C183  C     C_R   0.528666 0.381124 0.662912 -0.088123
C184  C     C_R   0.466675 0.378456 0.339050 -0.087783
C185  C     C_R   0.500366 0.841635 0.155769 -0.127391
C186  C     C_R   0.998263 0.690334 0.810242 0.940008
C187  C     C_R   0.501936 0.842072 0.843446 -0.171778
C188  C     C_R   0.000458 0.341665 0.155744 -0.127098
C189  C     C_R   0.001192 0.341832 0.843330 -0.160624
C190  C     C_R   0.000400 0.841657 0.655760 -0.127346
C191  C     C_R   0.999094 0.841778 0.343927 -0.159817
C192  C     C_R   0.501010 0.341892 0.655782 -0.131540
C193  C     C_R   0.499483 0.341595 0.344254 -0.126897
C194  C     C_R   0.473567 0.833435 0.115425 -0.168275
C195  C     C_R   0.525252 0.833454 0.885008 -0.176903
C196  C     C_R   0.975253 0.333100 0.114837 -0.168092
C197  C     C_R   0.000854 0.690272 0.189906 0.937082
C198  C     C_R   0.035844 0.337074 0.880537 -0.178997
C199  C     C_R   0.974270 0.833279 0.615180 -0.168927
C200  C     C_R   0.026206 0.834293 0.384228 -0.177916
C201  C     C_R   0.478988 0.332323 0.614011 -0.164907
C202  C     C_R   0.526270 0.333556 0.384597 -0.169006
C203  C     C_R   0.473334 0.864911 0.082626 0.451362
C204  C     C_R   0.524948 0.865296 0.917767 0.463646
C205  C     C_R   0.975356 0.364626 0.082054 0.446893
C206  C     C_R   0.035246 0.368430 0.913771 0.470069
C207  C     C_R   0.974128 0.864766 0.582382 0.449171
C208  C     C_R   0.497061 0.190171 0.809903 0.908057
C209  C     C_R   0.026104 0.866049 0.416838 0.467894
C210  C     C_R   0.478244 0.363872 0.581319 0.448757
C211  C     C_R   0.526382 0.365014 0.417420 0.452434
C212  C     C_R   0.501438 0.904864 0.090897 -0.162928
C213  C     C_R   0.500187 0.906363 0.908212 -0.165427
C214  C     C_R   0.001696 0.405078 0.091066 -0.157265
C215  C     C_R   0.000032 0.405639 0.908565 -0.181834
C216  C     C_R   0.001513 0.904934 0.590940 -0.162633
C217  C     C_R   0.997921 0.905893 0.408333 -0.210557
C218  C     C_R   0.501216 0.405306 0.591096 -0.149401
C219  C     C_R   0.498898 0.190241 0.189839 0.891390
C220  C     C_R   0.498188 0.404784 0.409166 -0.158427
C221  C     C_R   0.534759 0.909594 0.128623 -0.206245
C222  C     C_R   0.478395 0.913701 0.866394 -0.226931
C223  C     C_R   0.033893 0.410177 0.129313 -0.208726
C224  C     C_R   0.967283 0.409280 0.870610 -0.202866
C225  C     C_R   0.034312 0.909871 0.628901 -0.207658
C226  C     C_R   0.964573 0.909897 0.370398 -0.211085
C227  C     C_R   0.529800 0.412128 0.630642 -0.206102
C228  C     C_R   0.464851 0.409294 0.371436 -0.205204
C229  C     C_R   0.390674 0.749918 0.249949 0.900511
C230  C     C_R   0.500332 0.590942 0.404417 -0.180432
C231  C     C_R   0.390679 0.749930 0.749939 0.920670
C232  C     C_R   0.609321 0.750332 0.249754 0.871130
C233  C     C_R   0.609326 0.749966 0.749977 0.878920
C234  C     C_R   0.890720 0.251055 0.248847 0.880266
C235  C     C_R   0.890691 0.250328 0.750377 0.858350
C236  C     C_R   0.109328 0.250062 0.250053 0.891108
C237  C     C_R   0.109328 0.249990 0.749978 0.892359
C238  C     C_R   0.890676 0.750065 0.749776 0.906022
C239  C     C_R   0.890677 0.749987 0.249998 0.908906
C240  C     C_R   0.109328 0.750065 0.750032 0.892582
H1    H     H_    0.427778 0.625711 0.314505 0.176353
H2    H     H_    0.543535 0.802069 0.892206 0.187568
H3    H     H_    0.544150 0.021390 0.823640 0.203715
H4    H     H_    0.557089 0.964702 0.830731 0.198532
H5    H     H_    0.523843 0.996746 0.874192 0.139567
H6    H     H_    0.527012 0.006756 0.213358 0.190491
H7    H     H_    0.452141 0.993892 0.215610 0.182997
H8    H     H_    0.476737 0.035605 0.179974 0.178771
H9    H     H_    0.416914 0.002037 0.891452 0.167555
H10   H     H_    0.341780 0.993175 0.888322 0.179195
H11   H     H_    0.377647 0.017368 0.842456 0.212980
H12   H     H_    0.127806 0.453599 0.106161 0.170664
H13   H     H_    0.953573 0.302622 0.108872 0.185300
H14   H     H_    0.144153 0.419606 0.153679 0.181755
H15   H     H_    0.173433 0.472948 0.148926 0.212670
H16   H     H_    0.018765 0.472154 0.825803 0.198049
H17   H     H_    0.986730 0.497685 0.873897 0.128043
H18   H     H_    0.987053 0.524670 0.822013 0.210572
H19   H     H_    0.022568 0.506117 0.214938 0.184642
H20   H     H_    0.947333 0.494655 0.214549 0.183217
H21   H     H_    0.975270 0.536055 0.179922 0.183913
H22   H     H_    0.885949 0.492214 0.902581 0.197726
H23   H     H_    0.816723 0.469841 0.911744 0.160184
H24   H     H_    0.062481 0.308726 0.884232 0.178973
H25   H     H_    0.832803 0.492294 0.858928 0.198375
H26   H     H_    0.128399 0.952869 0.605067 0.170288
H27   H     H_    0.144849 0.919069 0.652688 0.182467
H28   H     H_    0.174391 0.972289 0.647558 0.213224
H29   H     H_    0.058835 0.939437 0.334444 0.197973
H30   H     H_    0.052066 0.983791 0.373618 0.167737
H31   H     H_    0.071066 0.994114 0.318142 0.216589
H32   H     H_    0.024516 0.006362 0.714091 0.188220
H33   H     H_    0.949391 0.994409 0.714813 0.182717
H34   H     H_    0.976037 0.035853 0.679672 0.178871
H35   H     H_    0.951944 0.803009 0.609545 0.183777
H36   H     H_    0.919091 0.006446 0.383869 0.184190
H37   H     H_    0.871323 0.964217 0.404480 0.168446
H38   H     H_    0.845520 0.005800 0.369185 0.218971
H39   H     H_    0.621587 0.459949 0.612232 0.173245
H40   H     H_    0.636193 0.428620 0.661858 0.193762
H41   H     H_    0.660248 0.483417 0.656947 0.217434
H42   H     H_    0.472185 0.507013 0.287127 0.191509
H43   H     H_    0.546688 0.493342 0.283880 0.184127
H44   H     H_    0.524023 0.535336 0.319750 0.178571
H45   H     H_    0.482543 0.498457 0.721092 0.152803
H46   H     H_    0.049188 0.804436 0.389897 0.184018
H47   H     H_    0.425993 0.518779 0.687380 0.189278
H48   H     H_    0.497596 0.534339 0.675474 0.180260
H49   H     H_    0.370693 0.451361 0.396012 0.171224
H50   H     H_    0.353942 0.417213 0.348626 0.182569
H51   H     H_    0.323896 0.470104 0.353860 0.211360
H52   H     H_    0.581149 0.880404 0.240323 0.351994
H53   H     H_    0.458819 0.936594 0.746387 0.363084
H54   H     H_    0.493674 0.929415 0.249000 0.336722
H55   H     H_    0.377601 0.876571 0.816864 0.333915
H56   H     H_    0.077807 0.381369 0.241910 0.351811
H57   H     H_    0.459955 0.300992 0.607278 0.187020
H58   H     H_    0.904210 0.423729 0.757932 0.359864
H59   H     H_    0.989271 0.429699 0.248802 0.336215
H60   H     H_    0.880186 0.345256 0.794196 0.334307
H61   H     H_    0.079566 0.881026 0.741043 0.352809
H62   H     H_    0.986307 0.935999 0.250825 0.362042
H63   H     H_    0.991449 0.929710 0.748785 0.336480
H64   H     H_    0.907709 0.871475 0.263763 0.347724
H65   H     H_    0.567597 0.386895 0.745301 0.352637
H66   H     H_    0.505598 0.428962 0.250805 0.336802
H67   H     H_    0.473724 0.428268 0.747901 0.340700
H68   H     H_    0.549181 0.303618 0.389988 0.181781
H69   H     H_    0.418335 0.379636 0.259852 0.350685
H70   H     H_    0.427804 0.534204 0.381470 0.377289
H71   H     H_    0.586908 0.542163 0.615238 0.369603
H72   H     H_    0.103351 0.058395 0.392335 0.336352
H73   H     H_    0.586545 0.637565 0.673822 0.176064
H74   H     H_    0.074027 0.035259 0.618166 0.377747
H75   H     H_    0.077885 0.537772 0.881077 0.332926
H76   H     H_    0.073512 0.534221 0.117939 0.378679
H77   H     H_    0.604609 0.060280 0.893447 0.334155
H78   H     H_    0.573756 0.035130 0.118280 0.378186
H79   H     H_    0.525387 0.631604 0.492868 0.341845
H80   H     H_    0.326654 0.623237 0.562463 0.324951
H81   H     H_    0.614418 0.610227 0.471534 0.342809
H82   H     H_    0.394619 0.660130 0.522253 0.332255
H83   H     H_    0.855636 0.070208 0.432244 0.343954
H84   H     H_    0.089421 0.155027 0.343520 0.160615
H85   H     H_    0.884923 0.107939 0.529809 0.349369
H86   H     H_    0.863863 0.147458 0.454881 0.356954
H87   H     H_    0.976255 0.130764 0.510127 0.348262
H88   H     H_    0.903407 0.574578 0.851695 0.331619
H89   H     H_    0.853586 0.651082 0.033855 0.348878
H90   H     H_    0.881507 0.644648 0.956815 0.342938
H91   H     H_    0.954946 0.624480 0.008386 0.351926
H92   H     H_    0.355511 0.070743 0.932631 0.345035
H93   H     H_    0.385124 0.108141 0.029561 0.348946
H94   H     H_    0.363574 0.148068 0.954396 0.356267
H95   H     H_    0.073853 0.127152 0.684687 0.175800
H96   H     H_    0.476377 0.130849 0.009959 0.348270
H97   H     H_    0.584682 0.771757 0.432466 0.166216
H98   H     H_    0.569752 0.732838 0.475688 0.189268
H99   H     H_    0.516760 0.770852 0.458774 0.169739
H100  H     H_    0.313460 0.696769 0.581415 0.125736
H101  H     H_    0.329242 0.737068 0.623430 0.200284
H102  H     H_    0.275988 0.696466 0.632624 0.178831
H103  H     H_    0.600296 0.750892 0.357026 0.199580
H104  H     H_    0.622390 0.700804 0.329907 0.142035
H105  H     H_    0.673475 0.735753 0.355314 0.196726
H106  H     H_    0.079932 0.632610 0.820855 0.171605
H107  H     H_    0.503781 0.683582 0.572122 0.179442
H108  H     H_    0.504973 0.740572 0.581739 0.190388
H109  H     H_    0.467198 0.719760 0.535291 0.219673
H110  H     H_    0.883934 0.121857 0.277271 0.189961
H111  H     H_    0.879574 0.179128 0.289810 0.147879
H112  H     H_    0.817187 0.149822 0.273545 0.197268
H113  H     H_    0.875979 0.196721 0.672733 0.144532
H114  H     H_    0.822888 0.230354 0.648311 0.195405
H115  H     H_    0.895372 0.247599 0.645759 0.200373
H116  H     H_    0.808536 0.186618 0.404126 0.163170
H117  H     H_    0.075087 0.625550 0.185491 0.183147
H118  H     H_    0.813104 0.216195 0.352525 0.181887
H119  H     H_    0.837221 0.240481 0.402689 0.181905
H120  H     H_    0.907542 0.269628 0.570440 0.151884
H121  H     H_    0.923307 0.231698 0.526548 0.203718
H122  H     H_    0.974722 0.271412 0.543103 0.178494
H123  H     H_    0.798265 0.682540 0.828184 0.179517
H124  H     H_    0.797030 0.627389 0.849326 0.202338
H125  H     H_    0.803994 0.637396 0.791658 0.181947
H126  H     H_    0.856056 0.724931 0.051578 0.150124
H127  H     H_    0.871383 0.763193 0.095566 0.193828
H128  H     H_    0.589369 0.156111 0.844559 0.162071
H129  H     H_    0.806473 0.732622 0.095487 0.175921
H130  H     H_    0.881455 0.732984 0.839376 0.188239
H131  H     H_    0.928412 0.740902 0.886627 0.186121
H132  H     H_    0.855960 0.758192 0.888170 0.185516
H133  H     H_    0.034838 0.679841 0.069083 0.170115
H134  H     H_    0.048194 0.726850 0.102665 0.178211
H135  H     H_    0.036943 0.732436 0.044971 0.202386
H136  H     H_    0.384737 0.120946 0.776975 0.185895
H137  H     H_    0.379515 0.178291 0.788993 0.153247
H138  H     H_    0.317642 0.148354 0.772773 0.199285
H139  H     H_    0.573718 0.127038 0.184773 0.176023
H140  H     H_    0.395631 0.247769 0.145588 0.199781
H141  H     H_    0.376066 0.196914 0.172534 0.145130
H142  H     H_    0.323105 0.230616 0.148045 0.195718
H143  H     H_    0.308057 0.186362 0.903065 0.163094
H144  H     H_    0.312531 0.215413 0.851157 0.181958
H145  H     H_    0.336295 0.240344 0.901093 0.181995
H146  H     H_    0.408045 0.269770 0.070284 0.150602
H147  H     H_    0.423826 0.231821 0.026413 0.204076
H148  H     H_    0.475297 0.271461 0.043048 0.179223
H149  H     H_    0.452912 0.877590 0.021762 0.333879
H150  H     H_    0.450759 0.803333 0.110009 0.182631
H151  H     H_    0.540908 0.877533 0.979642 0.330851
H152  H     H_    0.958716 0.376563 0.020413 0.328615
H153  H     H_    0.053443 0.377953 0.975491 0.334910
H154  H     H_    0.954883 0.877231 0.521258 0.331314
H155  H     H_    0.043776 0.877892 0.478379 0.334002
H156  H     H_    0.458620 0.376837 0.520287 0.325912
H157  H     H_    0.546606 0.377736 0.478336 0.331217
H158  H     H_    0.629061 0.952047 0.104176 0.170081
H159  H     H_    0.645621 0.918194 0.151729 0.182183
H160  H     H_    0.675631 0.971240 0.146393 0.213437
O1    O     O_R   0.500000 0.730040 0.321670 -0.592262
O2    O     O_R   0.500000 0.678330 0.730060 -0.622174
O3    O     O_3   0.085476 0.062211 0.633148 -0.720181
O4    O     O_3   0.091151 0.566629 0.871398 -0.742913
O5    O     O_3   0.085565 0.560937 0.133063 -0.718055
O6    O     O_3   0.605570 0.092136 0.897363 -0.727790
O7    O     O_3   0.585288 0.062078 0.133237 -0.719301
O8    O     O_3   0.524938 0.657454 0.473577 -0.769574
O9    O     O_3   0.355322 0.608082 0.580679 -0.714662
O10   O     O_3   0.619033 0.638556 0.456639 -0.726313
O11   O     O_3   0.423367 0.640619 0.535465 -0.778779
O12   O     O_3   0.852339 0.086013 0.404048 -0.779641
O13   O     O_R   0.000000 0.178330 0.269940 -0.632029
O14   O     O_3   0.879343 0.135924 0.545108 -0.729771
O15   O     O_3   0.902181 0.138759 0.444803 -0.768583
O16   O     O_3   0.972329 0.157708 0.527525 -0.735921
O17   O     O_3   0.878865 0.577936 0.877935 -0.762006
O18   O     O_3   0.870717 0.632052 0.056449 -0.718362
O19   O     O_3   0.864931 0.620155 0.939975 -0.695971
O20   O     O_3   0.957108 0.652488 0.024195 -0.819731
O21   O     O_3   0.352360 0.086127 0.904186 -0.789561
O22   O     O_3   0.379562 0.136101 0.044911 -0.729494
O23   O     O_3   0.401949 0.139396 0.944425 -0.764722
O24   O     O_R   0.000000 0.178330 0.730060 -0.628921
O25   O     O_3   0.472643 0.157751 0.027452 -0.734616
O26   O     O_3   0.529856 0.721646 0.414541 -0.622553
O27   O     O_3   0.358426 0.675168 0.637162 -0.616259
O28   O     O_3   0.625235 0.700102 0.398131 -0.611908
O29   O     O_3   0.427154 0.713103 0.595256 -0.642507
O30   O     O_3   0.845090 0.137137 0.336159 -0.609908
O31   O     O_3   0.871564 0.196455 0.604548 -0.613706
O32   O     O_3   0.890238 0.194271 0.377035 -0.637370
O33   O     O_3   0.965372 0.221306 0.586913 -0.625001
O34   O     O_3   0.876164 0.650675 0.827339 -0.669075
O35   O     O_R   0.000000 0.678330 0.769940 -0.603735
O36   O     O_3   0.877756 0.698463 0.113162 -0.624899
O37   O     O_3   0.867408 0.692594 0.893114 -0.647012
O38   O     O_3   0.964645 0.722083 0.081366 -0.625522
O39   O     O_3   0.345320 0.136391 0.835596 -0.614634
O40   O     O_3   0.371801 0.196655 0.104342 -0.613878
O41   O     O_3   0.389779 0.194126 0.876040 -0.636595
O42   O     O_3   0.465715 0.221364 0.086838 -0.624515
O43   O     O_3   0.444474 0.855437 0.044223 -0.737475
O44   O     O_3   0.547972 0.854334 0.958039 -0.747785
O45   O     O_3   0.948648 0.354739 0.042846 -0.736678
O46   O     O_R   1.000000 0.678330 0.230060 -0.621281
O47   O     O_3   0.067846 0.360554 0.950672 -0.744153
O48   O     O_3   0.946088 0.855098 0.543670 -0.739563
O49   O     O_3   0.054611 0.856890 0.455434 -0.745814
O50   O     O_3   0.453744 0.352954 0.541522 -0.742330
O51   O     O_3   0.555280 0.355735 0.455810 -0.740494
O52   O     O_3   0.591065 0.970641 0.162919 -0.609998
O53   O     O_3   0.472934 0.983074 0.819958 -0.633814
O54   O     O_3   0.490650 0.973359 0.158455 -0.636000
O55   O     O_3   0.389169 0.951372 0.851104 -0.651903
O56   O     O_3   0.088627 0.471472 0.164677 -0.608978
O57   O     O_R   0.500000 0.178330 0.769940 -0.634644
O58   O     O_3   0.930311 0.474390 0.826899 -0.642443
O59   O     O_3   0.988290 0.473566 0.158699 -0.636116
O60   O     O_3   0.868154 0.432333 0.872980 -0.611773
O61   O     O_3   0.089678 0.971187 0.663617 -0.610274
O62   O     O_3   0.986798 0.980240 0.328108 -0.634007
O63   O     O_3   0.989294 0.973403 0.658456 -0.635641
O64   O     O_3   0.891966 0.958620 0.338978 -0.584764
O65   O     O_3   0.574344 0.477207 0.667267 -0.631418
O66   O     O_3   0.508800 0.473327 0.341575 -0.636909
O67   O     O_3   0.474199 0.471781 0.657724 -0.633195
O68   O     O_R   0.500000 0.178330 0.230060 -0.628459
O69   O     O_3   0.408377 0.469924 0.337084 -0.610225
O70   O     O_3   0.585141 0.907478 0.223074 -0.782765
O71   O     O_3   0.481729 0.917093 0.765258 -0.720426
O72   O     O_3   0.485389 0.911899 0.222427 -0.756065
O73   O     O_3   0.395074 0.889570 0.790287 -0.741195
O74   O     O_3   0.081944 0.408352 0.224546 -0.786801
O75   O     O_3   0.937479 0.409170 0.771410 -0.751277
O76   O     O_3   0.982138 0.411828 0.222279 -0.754595
O77   O     O_3   0.871640 0.370148 0.813676 -0.741248
O78   O     O_3   0.083566 0.908053 0.723723 -0.783138
O79   O     O_R   0.417230 0.775850 0.275860 -0.601120
O80   O     O_3   0.998126 0.913056 0.271700 -0.776557
O81   O     O_3   0.983779 0.911902 0.722305 -0.755536
O82   O     O_3   0.901202 0.898189 0.281106 -0.730559
O83   O     O_3   0.570056 0.413948 0.727869 -0.785957
O84   O     O_3   0.514095 0.411824 0.277553 -0.755912
O85   O     O_3   0.470507 0.410875 0.720638 -0.746754
O86   O     O_3   0.414344 0.406736 0.277043 -0.787590
O87   O     O_R   0.417230 0.775850 0.724140 -0.594055
O88   O     O_R   0.582770 0.775850 0.275860 -0.643426
O89   O     O_R   0.500000 0.730040 0.678330 -0.603180
O90   O     O_R   0.582770 0.775850 0.724140 -0.614293
O91   O     O_R   0.917230 0.275850 0.275860 -0.595131
O92   O     O_R   0.917230 0.275850 0.724140 -0.636252
O93   O     O_R   0.082770 0.275850 0.275860 -0.620736
O94   O     O_R   0.082770 0.275850 0.724140 -0.603359
O95   O     O_R   0.917230 0.775850 0.775860 -0.633872
O96   O     O_R   0.917230 0.775850 0.224140 -0.615183
O97   O     O_R   0.082770 0.775850 0.775860 -0.615578
O98   O     O_R   0.082770 0.775850 0.224140 -0.612059
O99   O     O_R   0.417230 0.275850 0.775860 -0.594393
O100  O     O_R   0.000000 0.230040 0.321670 -0.583743
O101  O     O_R   0.417230 0.275850 0.224140 -0.644382
O102  O     O_R   0.582770 0.275850 0.775860 -0.615731
O103  O     O_R   0.582770 0.275850 0.224140 -0.598515
O104  O     O_R   0.417240 0.724130 0.224140 -0.615472
O105  O     O_R   0.417240 0.724130 0.775860 -0.615019
O106  O     O_R   0.582760 0.724130 0.224140 -0.602016
O107  O     O_R   0.582760 0.724130 0.775860 -0.620366
O108  O     O_R   0.917240 0.224130 0.224140 -0.628420
O109  O     O_R   0.917240 0.224130 0.775860 -0.599956
O110  O     O_R   0.082760 0.224130 0.224140 -0.606748
O111  O     O_R   0.000000 0.230040 0.678330 -0.588225
O112  O     O_R   0.082760 0.224130 0.775860 -0.615925
O113  O     O_R   0.917240 0.724130 0.724140 -0.598835
O114  O     O_R   0.917240 0.724130 0.275860 -0.609295
O115  O     O_R   0.082760 0.724130 0.724140 -0.613999
O116  O     O_R   0.082760 0.724130 0.275860 -0.616977
O117  O     O_R   0.417240 0.224130 0.724140 -0.628969
O118  O     O_R   0.417240 0.224130 0.275860 -0.602012
O119  O     O_R   0.582760 0.224130 0.724140 -0.608507
O120  O     O_R   0.582760 0.224130 0.275860 -0.616024
O121  O     O_R   0.500000 0.821650 0.230050 -0.589521
O122  O     O_R   0.000000 0.730040 0.821670 -0.643608
O123  O     O_R   0.500000 0.821650 0.769950 -0.561428
O124  O     O_R   0.000000 0.321650 0.230050 -0.594618
O125  O     O_R   0.000000 0.321650 0.769950 -0.582570
O126  O     O_R   0.000000 0.821650 0.730050 -0.589471
O127  O     O_R   0.000000 0.821650 0.269950 -0.588349
O128  O     O_R   0.500000 0.321650 0.730050 -0.599599
O129  O     O_R   0.500000 0.321650 0.269950 -0.589599
O130  O     O_R   0.500000 0.769940 0.178330 -0.631599
O131  O     O_R   0.500000 0.769940 0.821670 -0.636683
O132  O     O_R   0.000000 0.269940 0.178330 -0.631563
O133  O     O_R   0.000000 0.730040 0.178330 -0.603811
O134  O     O_R   0.000000 0.269940 0.821670 -0.621052
O135  O     O_R   0.000000 0.769940 0.678330 -0.634750
O136  O     O_R   1.000000 0.769940 0.321670 -0.627838
O137  O     O_R   0.500000 0.269940 0.678330 -0.632218
O138  O     O_R   0.500000 0.269940 0.321670 -0.631173
O139  O     O_R   0.453240 0.954180 0.954180 -0.619143
O140  O     O_R   0.453240 0.954180 0.045820 -0.595581
O141  O     O_R   0.546760 0.954180 0.954180 -0.630365
O142  O     O_R   0.546760 0.954180 0.045820 -0.642958
O143  O     O_R   0.953240 0.454180 0.954180 -0.622856
O144  O     O_R   0.500000 0.230040 0.821670 -0.582253
O145  O     O_R   0.953240 0.454180 0.045820 -0.593973
O146  O     O_R   0.046760 0.454180 0.954180 -0.620685
O147  O     O_R   0.046760 0.454180 0.045820 -0.647383
O148  O     O_R   0.953240 0.954180 0.454180 -0.639961
O149  O     O_R   0.953240 0.954180 0.545820 -0.594024
O150  O     O_R   0.046760 0.954180 0.454180 -0.626722
O151  O     O_R   0.046760 0.954180 0.545820 -0.642282
O152  O     O_R   0.453240 0.454180 0.454180 -0.649968
O153  O     O_R   0.453240 0.454180 0.545820 -0.600723
O154  O     O_R   0.546760 0.454180 0.454180 -0.600359
O155  O     O_R   0.500000 0.230040 0.178330 -0.588036
O156  O     O_R   0.546760 0.454180 0.545820 -0.647291
O157  O     O_R   0.453270 0.545790 0.454180 -0.600632
O158  O     O_R   0.453270 0.545790 0.545820 -0.545884
O159  O     O_R   0.546730 0.545790 0.454180 -0.629580
O160  O     O_R   0.546730 0.545790 0.545820 -0.641402
O161  O     O_R   0.953270 0.045790 0.454180 -0.650557
O162  O     O_R   0.953270 0.045790 0.545820 -0.623586
O163  O     O_R   0.046730 0.045790 0.454180 -0.603075
O164  O     O_R   0.046730 0.045790 0.545820 -0.604635
O165  O     O_R   0.953270 0.545790 0.954180 -0.590378
O166  O     O_R   0.500000 0.678330 0.269940 -0.627683
O167  O     O_R   0.953270 0.545790 0.045820 -0.577317
O168  O     O_R   0.046730 0.545790 0.954180 -0.606732
O169  O     O_R   0.046730 0.545790 0.045820 -0.621897
O170  O     O_R   0.453270 0.045790 0.954180 -0.651330
O171  O     O_R   0.453270 0.045790 0.045820 -0.624266
O172  O     O_R   0.546730 0.045790 0.954180 -0.601595
O173  O     O_R   0.546730 0.045790 0.045820 -0.603337
O174  O     O_3   0.416260 0.560872 0.366136 -0.720828
O175  O     O_3   0.598105 0.572270 0.622072 -0.727705
O176  O     O_3   0.105412 0.090304 0.395470 -0.731843
Zn1   Zn    Zn3+2 0.500000 0.784520 0.284530 0.999633
Zn2   Zn    Zn3+2 0.500000 0.715460 0.784540 0.994986
Zn3   Zn    Zn3+2 0.000000 0.215460 0.215460 0.988180
Zn4   Zn    Zn3+2 0.000000 0.215460 0.784540 0.995251
Zn5   Zn    Zn3+2 1.000000 0.715460 0.715460 1.006201
Zn6   Zn    Zn3+2 1.000000 0.715460 0.284540 0.996090
Zn7   Zn    Zn3+2 0.500000 0.215460 0.715460 0.985807
Zn8   Zn    Zn3+2 0.500000 0.215460 0.284540 0.990640
Zn9   Zn    Zn3+2 0.437600 0.999980 0.000000 0.981738
Zn10  Zn    Zn3+2 0.562400 0.999980 0.000000 1.000141
Zn11  Zn    Zn3+2 0.937600 0.499980 0.000000 1.052922
Zn12  Zn    Zn3+2 0.500000 0.784520 0.715470 1.050527
Zn13  Zn    Zn3+2 0.062400 0.499980 0.000000 0.999691
Zn14  Zn    Zn3+2 0.937600 0.999980 0.500000 0.969621
Zn15  Zn    Zn3+2 0.062400 0.999980 0.500000 1.000743
Zn16  Zn    Zn3+2 0.437600 0.499980 0.500000 1.049849
Zn17  Zn    Zn3+2 0.562400 0.499980 0.500000 0.998317
Zn18  Zn    Zn3+2 0.000000 0.284520 0.284530 1.020772
Zn19  Zn    Zn3+2 0.000000 0.284520 0.715470 1.022441
Zn20  Zn    Zn3+2 0.000000 0.784520 0.784530 0.979371
Zn21  Zn    Zn3+2 1.000000 0.784520 0.215470 1.021870
Zn22  Zn    Zn3+2 0.500000 0.284520 0.784530 1.024554
Zn23  Zn    Zn3+2 0.500000 0.284520 0.215470 1.003981
Zn24  Zn    Zn3+2 0.500000 0.715460 0.215460 0.989607

loop_
_geom_bond_atom_site_label_1
_geom_bond_atom_site_label_2
_ccdc_geom_bond_type
C129  H114  S    
C198  C206  A    
C149  H22   S    
C145  H12   S    
C149  H25   S    
O153  Zn16  S    
C79   C87   A    
C7    O120  A    
C19   O74   S    
O68   Zn8   S    
C40   C46   S    
C211  C220  A    
C144  O55   S    
C149  O60   S    
C23   O85   S    
C114  H139  S    
C164  O13   A    
C35   C124  A    
C41   O170  A    
O146  Zn13  S    
H90   O19   S    
C142  O53   S    
C69   C86   T    
C38   O164  A    
C234  O91   A    
C184  C193  A    
C164  O100  A    
O161  Zn14  S    
C233  O107  A    
H157  O51   S    
C128  H110  S    
O101  Zn23  S    
C2    C116  A    
C155  O66   S    
C162  C171  S    
C10   O56   S    
C174  O39   S    
C132  H125  S    
C36   O158  A    
C22   O82   S    
O126  Zn20  S    
C88   C97   A    
C217  C226  A    
O127  Zn21  S    
C89   C101  A    
C129  H115  S    
C16   O66   S    
C100  C109  A    
C215  C224  A    
O128  Zn22  S    
C33   O156  A    
O98   Zn21  S    
C76   C84   S    
O165  Zn11  S    
C148  H20   S    
C177  C221  A    
O140  Zn9   S    
O162  Zn14  S    
C105  H1    S    
C190  C199  A    
C8    O52   S    
O133  Zn21  S    
C11   C20   S    
C67   C85   T    
C123  O26   S    
C133  H126  S    
C130  H118  S    
O169  Zn13  S    
C159  O10   S    
O46   Zn6   S    
H58   O75   S    
C183  C227  A    
C97   C112  S    
C169  O29   S    
C171  O33   S    
C179  C188  A    
O109  Zn4   S    
C181  C225  A    
O13   Zn3   S    
C196  H13   S    
C203  O43   S    
C62   C239  S    
C15   C227  S    
C153  H38   S    
O151  Zn15  S    
C127  O29   S    
C137  H137  S    
C1    O166  A    
H81   O10   S    
C108  C118  A    
C181  C190  A    
C18   O71   S    
C20   O77   S    
H92   O21   S    
O91   Zn18  S    
O96   Zn21  S    
C15   O67   S    
C163  C172  S    
C42   O173  A    
C170  O30   S    
C195  H2    S    
C205  C214  A    
C145  H14   S    
C127  H109  S    
C53   C71   T    
C19   C179  S    
H151  O44   S    
C233  O90   A    
C17   C177  S    
C16   C25   S    
C16   C228  S    
C88   C169  S    
H56   O74   S    
O129  Zn23  S    
C45   O124  A    
H154  O48   S    
C161  O15   S    
C41   O172  A    
H54   O72   S    
C162  O16   S    
C139  H143  S    
C235  O92   A    
O107  Zn2   S    
C38   O162  A    
C110  H117  S    
C125  H102  S    
C200  C209  A    
C91   C171  S    
C152  H33   S    
C209  C217  A    
C128  H112  S    
C147  H18   S    
C168  O26   S    
C197  O133  A    
O117  Zn7   S    
C8    C17   S    
O166  Zn24  S    
C134  H132  S    
C42   O171  A    
C140  H146  S    
C92   C172  S    
C142  H4    S    
C12   C21   S    
C93   C173  S    
C207  C216  A    
C20   O75   S    
C116  O175  S    
C31   O151  A    
C180  C224  A    
C44   O123  A    
O159  Zn17  S    
C155  H43   S    
C70   C82   S    
C21   O78   S    
C127  H107  S    
C91   C113  A    
C235  O109  A    
C26   O141  A    
O79   Zn1   S    
C126  H103  S    
C234  O108  A    
H70   O174  S    
C130  O32   S    
O114  Zn6   S    
H156  O50   S    
C149  H23   S    
O99   Zn22  S    
C123  H99   S    
C199  H35   S    
C144  H9    S    
C186  O35   A    
O135  Zn5   S    
C202  C211  A    
C229  O79   A    
O136  Zn6   S    
C3    C64   S    
C99   C108  A    
C26   C213  S    
C62   C80   T    
C154  H39   S    
C50   O128  A    
C127  H108  S    
C180  C189  A    
O119  Zn7   S    
H82   O11   S    
C52   C229  S    
C232  O106  A    
C43   C185  S    
C29   O145  A    
O92   Zn19  S    
H62   O80   S    
C143  H8    S    
O131  Zn2   S    
C2    C90   A    
O24   Zn4   S    
C143  O54   S    
C238  O95   A    
H153  O47   S    
C9    C222  S    
O145  Zn11  S    
C147  O58   S    
C39   O168  A    
C5    O101  A    
C68   C157  A    
H88   O17   S    
C36   O160  A    
O104  Zn24  S    
H77   O6    S    
C25   O84   S    
C208  O57   A    
C124  C163  S    
H75   O4    S    
C141  H158  S    
C132  H124  S    
C56   C234  S    
O154  Zn17  S    
C162  O14   S    
O108  Zn3   S    
C54   C232  S    
C156  H45   S    
C112  O2    A    
C16   O69   S    
O124  Zn18  S    
C168  O28   S    
C191  C200  A    
C136  H135  S    
C167  O25   S    
C51   C193  S    
C102  C197  S    
C134  H130  S    
O89   Zn12  S    
O141  Zn10  S    
C140  H148  S    
H93   O22   S    
C139  O41   S    
C18   O73   S    
C31   O149  A    
C148  O59   S    
H91   O20   S    
C104  C219  S    
C23   C183  S    
H67   O85   S    
H64   O82   S    
C126  H105  S    
C160  C169  S    
C40   O167  A    
C167  O22   S    
H85   O14   S    
C131  O33   S    
C46   C120  A    
C158  O69   S    
C158  H50   S    
C32   C220  S    
C145  O56   S    
C137  O39   S    
C123  H97   S    
C6    C67   S    
C144  H11   S    
C53   C231  S    
C136  H133  S    
C154  O65   S    
C131  H122  S    
C210  O50   S    
C209  O49   S    
C160  O9    S    
C160  O11   S    
C150  H28   S    
O105  Zn2   S    
C21   O81   S    
C121  O6    S    
O171  Zn9   S    
O87   Zn12  S    
O100  Zn18  S    
C95   C157  A    
C105  C115  A    
C145  H15   S    
C4    O117  A    
C93   C135  A    
H71   O175  S    
C166  O21   S    
C51   O138  A    
C6    O119  A    
C138  O40   S    
C29   O147  A    
C49   O136  A    
C143  H6    S    
C89   C98   A    
O155  Zn23  S    
C14   C22   S    
C161  O12   S    
C48   O126  A    
C22   C182  S    
O148  Zn14  S    
C39   O165  A    
O106  Zn24  S    
C27   C212  S    
H76   O5    S    
O163  Zn15  S    
C25   O86   S    
C214  C223  A    
C51   O129  A    
C44   C187  S    
O90   Zn12  S    
C55   C73   T    
C9    C18   S    
C99   C175  S    
C18   C178  S    
C141  H160  S    
C32   O154  A    
H60   O77   S    
C91   C99   A    
C119  O4    S    
C171  O31   S    
C59   C76   T    
C156  H47   S    
C106  H73   S    
C71   C81   S    
C141  O52   S    
C206  C215  A    
C94   C146  A    
C96   C105  A    
O2    Zn2   S    
C59   C236  S    
O138  Zn8   S    
O1    Zn1   S    
C204  O44   S    
C185  C194  A    
C183  C192  A    
C157  C167  S    
O116  Zn6   S    
C236  O93   A    
O118  Zn8   S    
H94   O23   S    
C130  H119  S    
H61   O78   S    
C139  H145  S    
C173  O38   S    
C14   C226  S    
O123  Zn12  S    
C92   C124  A    
C79   C159  S    
C37   O163  A    
O150  Zn15  S    
C134  O37   S    
C201  H57   S    
C177  C185  A    
C220  C228  A    
C103  C111  A    
H86   O15   S    
C137  H136  S    
C47   O125  A    
C115  C230  A    
C46   C135  A    
C207  O48   S    
C75   C85   S    
C163  O19   S    
H59   O76   S    
C150  O61   S    
C131  H120  S    
C23   O83   S    
C192  C201  A    
C176  O42   S    
C117  O176  S    
C45   O132  A    
C50   C192  S    
C150  H26   S    
C48   C190  S    
C25   C184  S    
C122  O7    S    
C28   C215  S    
C15   O65   S    
C57   C146  A    
C27   O142  A    
C158  H51   S    
C129  H113  S    
C165  O20   S    
C11   O60   S    
C240  O115  A    
C125  O27   S    
C60   C237  S    
C56   C74   T    
C44   O131  A    
C126  O28   S    
C68   C122  A    
C63   C240  S    
C5    C66   S    
C109  H106  S    
C11   C224  S    
C125  H101  S    
H80   O9    S    
O147  Zn13  S    
O113  Zn5   S    
C193  C202  A    
C106  C116  A    
H83   O12   S    
C66   C84   T    
C147  H17   S    
C35   C39   S    
C95   C176  S    
O103  Zn23  S    
C14   O64   S    
C239  O114  A    
C1    O1    A    
C111  H128  S    
C10   C19   S    
C142  H5    S    
O144  Zn22  S    
C135  C165  S    
C130  H116  S    
C43   O130  A    
C170  O32   S    
C159  O8    S    
O134  Zn4   S    
C120  O5    S    
C10   C223  S    
C49   C191  S    
C178  C187  A    
C118  O3    S    
C125  H100  S    
C88   C90   A    
C94   C103  A    
O156  Zn17  S    
C108  H95   S    
C166  C174  S    
C102  C110  A    
C182  C191  A    
C148  H19   S    
C136  O38   S    
C3    O116  A    
C218  C227  A    
C109  C119  A    
C238  O113  A    
C37   O161  A    
O111  Zn19  S    
C144  H10   S    
O95   Zn20  S    
C133  H127  S    
C229  O104  A    
C172  O37   S    
H55   O73   S    
C182  C226  A    
C93   C102  A    
C13   C117  A    
C47   O134  A    
C151  H30   S    
C195  C204  A    
O173  Zn10  S    
O149  Zn14  S    
O125  Zn19  S    
C4    O99   A    
C216  C225  A    
C219  O155  A    
H152  O45   S    
C236  O110  A    
C186  O122  A    
C154  H40   S    
C137  H138  S    
C41   C57   S    
C156  O67   S    
C198  H24   S    
C29   C214  S    
C163  O17   S    
C8    O54   S    
C9    O53   S    
O157  Zn16  S    
C32   O152  A    
C90   C160  S    
O121  Zn1   S    
C206  O47   S    
C72   C80   S    
C132  O34   S    
C27   O140  A    
C219  O68   A    
C154  H41   S    
C158  H49   S    
O139  Zn9   S    
C107  C117  A    
H155  O49   S    
C11   O58   S    
C189  C198  A    
C111  C121  A    
C153  O64   S    
O132  Zn3   S    
C35   C119  A    
O94   Zn19  S    
C58   C235  S    
C139  H144  S    
C20   C180  S    
C33   C218  S    
C159  C168  S    
C21   C181  S    
H87   O16   S    
C26   O139  A    
O120  Zn8   S    
C63   C81   T    
C49   O127  A    
C128  H111  S    
C107  H84   S    
O115  Zn5   S    
C89   C170  S    
C14   O62   S    
C231  O87   A    
C4    C65   S    
O142  Zn10  S    
C153  H37   S    
C134  H131  S    
C65   C83   T    
C77   C83   S    
C165  C173  S    
C142  H3    S    
C231  O105  A    
C147  H16   S    
C196  C205  A    
C200  H46   S    
O160  Zn17  S    
C30   O150  A    
C213  C222  A    
C48   O135  A    
C172  O34   S    
C155  H44   S    
C176  O40   S    
C5    O118  A    
C151  H29   S    
C152  O63   S    
H52   O70   S    
C113  C162  S    
O143  Zn11  S    
O110  Zn3   S    
C6    O102  A    
C87   C168  S    
C24   C38   S    
C73   C78   S    
O152  Zn16  S    
C133  O36   S    
O137  Zn7   S    
C148  H21   S    
C151  O62   S    
O164  Zn15  S    
O35   Zn5   S    
C13   C37   S    
H66   O84   S    
H69   O86   S    
C140  O42   S    
C12   O61   S    
C15   C23   S    
C146  C166  S    
C28   O146  A    
C24   C113  A    
C138  H142  S    
C131  H121  S    
C42   C68   S    
C34   C230  S    
H96   O25   S    
C55   C233  S    
O57   Zn7   S    
C240  O97   A    
C58   C75   T    
C138  H140  S    
C212  C221  A    
H79   O8    S    
C60   C77   T    
H78   O7    S    
O112  Zn4   S    
C202  H68   S    
C103  C208  S    
C110  C120  A    
C34   O157  A    
H74   O3    S    
C129  O31   S    
C31   C216  S    
C50   O137  A    
C115  O174  S    
C57   C121  A    
C204  C213  A    
O130  Zn24  S    
O168  Zn13  S    
C9    O55   S    
C179  C223  A    
C197  O46   A    
C47   C189  S    
C100  C186  S    
C123  H98   S    
C79   C230  A    
C17   O70   S    
H89   O18   S    
C175  O24   A    
C138  H141  S    
C237  O112  A    
C239  O96   A    
H63   O81   S    
C61   C78   T    
O88   Zn1   S    
C205  O45   S    
C87   C96   A    
C199  C207  A    
O102  Zn22  S    
C74   C86   S    
C175  O111  A    
O122  Zn20  S    
C64   C82   T    
C94   C174  S    
C30   C217  S    
C104  C114  A    
C161  C170  S    
C43   O121  A    
C141  H159  S    
C174  O41   S    
C211  O51   S    
C132  H123  S    
C203  C212  A    
C208  O144  A    
H65   O83   S    
C97   C106  A    
C13   C101  A    
O93   Zn18  S    
C143  H7    S    
C7    O103  A    
C201  C210  A    
C156  H48   S    
C95   C104  A    
C92   C100  A    
C2    C36   S    
C165  O18   S    
C40   O169  A    
C187  C195  A    
C128  O30   S    
C28   O143  A    
O97   Zn20  S    
C7    C69   S    
C98   C164  S    
H72   O176  S    
C45   C188  S    
C34   O159  A    
C140  H147  S    
C17   O72   S    
C10   O59   S    
C24   C118  A    
C210  C218  A    
C30   O148  A    
C33   O153  A    
C155  H42   S    
C101  C161  S    
O167  Zn11  S    
C19   O76   S    
C152  H34   S    
C237  O94   A    
O158  Zn16  S    
C169  O27   S    
C151  H31   S    
C12   C225  S    
C126  H104  S    
C152  H32   S    
C1    C96   S    
C61   C238  S    
C194  C203  A    
O172  Zn10  S    
C153  H36   S    
C166  O23   S    
C232  O88   A    
C52   C70   T    
H149  O43   S    
C136  H134  S    
C114  C122  A    
C12   O63   S    
C54   C72   T    
C188  C196  A    
C184  C228  A    
C178  C222  A    
C173  O36   S    
C133  H129  S    
C194  H150  S    
C22   O80   S    
C150  H27   S    
H53   O71   S    
C8    C221  S    
C112  O89   A    
O170  Zn9   S    
C167  C176  S    
C98   C107  A    
C3    O98   A    
