data_mof_unit_54879.cif
_audit_creation_date              2012-12-10T18:47:06-0500
_audit_creation_method            fapswitch 2.2
_symmetry_space_group_name_H-M    P1
_symmetry_Int_Tables_number       1
_space_group_crystal_system       triclinic
_cell_length_a                    10.705984
_cell_length_b                    9.844154
_cell_length_c                    14.919785
_cell_angle_alpha                 90.370486
_cell_angle_beta                  89.931053
_cell_angle_gamma                 90.014717
_cell_volume                      1572.38230085

loop_
_atom_site_label
_atom_site_type_symbol
_atom_type_description
_atom_site_fract_x
_atom_site_fract_y
_atom_site_fract_z
_atom_type_partial_charge
C1    C     C_R   0.259896 0.499993 0.500040 0.862036
C2    C     C_R   0.127457 0.499987 0.500012 -0.004715
C3    C     C_R   0.581133 0.072482 0.552968 -0.066654
C4    C     C_R   0.418867 0.927517 0.447032 -0.066649
C5    C     C_R   0.418877 0.071408 0.447025 -0.071736
C6    C     C_R   0.581123 0.928592 0.552975 -0.071738
C7    C     C_R   0.497277 0.499524 0.327221 0.899871
C8    C     C_R   0.502720 0.500475 0.672778 0.899798
C9    C     C_R   0.619619 0.530999 0.813821 0.100443
C10   C     C_R   0.380391 0.468974 0.186176 0.100452
C11   C     C_R   0.507599 0.501987 0.767950 -0.085955
C12   C     C_R   0.740104 0.500007 0.499963 0.861980
C13   C     C_R   0.492403 0.498016 0.232050 -0.085906
C14   C     C_R   0.396602 0.473659 0.811922 -0.298580
C15   C     C_R   0.603384 0.526407 0.188076 -0.298607
C16   C     C_R   0.392708 0.474125 0.904145 0.129504
C17   C     C_R   0.607278 0.525936 0.095854 0.129509
C18   C     C_R   0.502562 0.500630 0.953082 0.029808
C19   C     C_R   0.497431 0.499396 0.046915 0.029826
C20   C     C_R   0.617251 0.528151 0.908354 0.098071
C21   C     C_R   0.382744 0.471872 0.091644 0.098005
C22   C     C_R   0.279849 0.448725 0.947675 -0.212049
C23   C     C_R   0.274481 0.448179 0.040359 -0.223598
C24   C     C_R   0.720123 0.551396 0.052324 -0.212066
C25   C     C_3   0.739167 0.562146 0.761775 -0.424832
C26   C     C_3   0.819949 0.435336 0.750910 -0.875708
C27   C     C_3   0.260860 0.437784 0.238226 -0.424910
C28   C     C_3   0.180185 0.564643 0.249252 -0.875710
C29   C     C_R   0.725496 0.551927 0.959642 -0.223595
C30   C     C_R   0.063878 0.379050 0.517362 -0.207938
C31   C     C_R   0.936122 0.620953 0.482654 -0.207932
C32   C     C_R   0.935991 0.379060 0.517358 -0.202049
C33   C     C_R   0.064009 0.620943 0.482659 -0.202098
C34   C     C_R   0.872543 0.500015 0.500000 -0.004721
H1    H     H_    0.312473 0.452541 0.773602 0.143538
H2    H     H_    0.112793 0.714833 0.468393 0.155280
H3    H     H_    0.645998 0.127436 0.595323 0.121987
H4    H     H_    0.354001 0.872564 0.404677 0.121979
H5    H     H_    0.354041 0.125508 0.404656 0.122611
H6    H     H_    0.645958 0.874492 0.595345 0.122627
H7    H     H_    0.844844 0.392478 0.817146 0.259584
H8    H     H_    0.769149 0.357098 0.711211 0.261106
H9    H     H_    0.907398 0.461803 0.714933 0.256568
H10   H     H_    0.719178 0.602190 0.694083 0.212191
H11   H     H_    0.792859 0.645198 0.794307 0.197937
H12   H     H_    0.687504 0.547577 0.226395 0.143548
H13   H     H_    0.092706 0.538155 0.285187 0.256584
H14   H     H_    0.231046 0.642712 0.289053 0.261111
H15   H     H_    0.155348 0.607722 0.183066 0.259605
H16   H     H_    0.207078 0.354862 0.205627 0.197945
H17   H     H_    0.280876 0.397537 0.305862 0.212224
H18   H     H_    0.195151 0.429551 0.909857 0.145401
H19   H     H_    0.804810 0.570636 0.090142 0.145404
H20   H     H_    0.184276 0.429707 0.070269 0.159035
H21   H     H_    0.815687 0.570482 0.929732 0.159048
H22   H     H_    0.112545 0.285102 0.531482 0.158657
H23   H     H_    0.887455 0.714900 0.468531 0.158661
H24   H     H_    0.887206 0.285171 0.531624 0.155273
N1    N     N_R   0.500000 0.857200 0.500000 -0.080693
N2    N     N_R   0.500000 0.142800 0.500000 -0.080695
O1    O     O_R   0.316770 0.614620 0.499990 -0.627246
O2    O     O_R   0.683230 0.385380 0.500010 -0.627215
O3    O     O_R   0.683230 0.614620 0.500010 -0.636291
O4    O     O_R   0.316770 0.385380 0.499990 -0.636278
O5    O     O_R   0.499980 0.614680 0.367850 -0.613451
O6    O     O_R   0.500020 0.385320 0.632150 -0.613428
O7    O     O_R   0.500020 0.614680 0.632150 -0.625536
O8    O     O_R   0.499980 0.385320 0.367850 -0.625547
Zn1   Zn    Zn3+2 0.500000 0.653120 0.500000 0.943451
Zn2   Zn    Zn3+2 0.500000 0.346880 0.500000 0.943467

loop_
_geom_bond_atom_site_label_1
_geom_bond_atom_site_label_2
_ccdc_geom_bond_type
C10   C27   S    
C31   C33   A    
C28   H13   S    
C8    O6    A    
O4    Zn2   S    
C7    O5    A    
C12   O2    A    
C28   H15   S    
C9    C20   A    
C15   H12   S    
C27   H16   S    
C32   H24   S    
C2    C30   A    
C3    C6    A    
C3    N2    A    
C31   H23   S    
C5    H5    S    
C7    O8    A    
C31   C34   A    
C9    C25   S    
C16   C18   A    
C8    O7    A    
C25   C26   S    
C30   C32   A    
C9    C11   A    
C32   C34   A    
C26   H8    S    
N2    Zn2   S    
O6    Zn2   S    
N1    Zn1   S    
C8    C11   S    
O5    Zn1   S    
C6    N1    A    
C4    N1    A    
C22   H18   S    
C17   C19   A    
C27   H17   S    
C26   H9    S    
C1    C2    S    
C18   C20   A    
C20   C29   A    
C13   C15   A    
C10   C21   A    
C25   H10   S    
C11   C14   A    
C14   C16   A    
C17   C24   A    
C26   H7    S    
C12   C34   S    
C33   H2    S    
C1    O4    A    
C25   H11   S    
C7    C13   S    
C6    H6    S    
O2    Zn2   S    
C23   H20   S    
O8    Zn2   S    
C18   C19   A    
O1    Zn1   S    
C27   C28   S    
C15   C17   A    
C12   O3    A    
C24   C29   A    
C28   H14   S    
C16   C22   A    
C29   H21   S    
C5    N2    A    
C19   C21   A    
C24   H19   S    
C4    H4    S    
C30   H22   S    
C21   C23   A    
C14   H1    S    
C22   C23   A    
O3    Zn1   S    
C3    H3    S    
C2    C33   A    
C4    C5    A    
O7    Zn1   S    
C10   C13   A    
C1    O1    A    
