data_mof_unit_38909.cif
_audit_creation_date              2012-12-10T18:34:24-0500
_audit_creation_method            fapswitch 2.2
_symmetry_space_group_name_H-M    P1
_symmetry_Int_Tables_number       1
_space_group_crystal_system       triclinic
_cell_length_a                    15.00176
_cell_length_b                    15.491004
_cell_length_c                    15.728263
_cell_angle_alpha                 89.739931
_cell_angle_beta                  104.927141
_cell_angle_gamma                 82.431666
_cell_volume                      3498.190805

loop_
_atom_site_label
_atom_site_type_symbol
_atom_type_description
_atom_site_fract_x
_atom_site_fract_y
_atom_site_fract_z
_atom_type_partial_charge
C1    C     C_R   0.441811 0.662166 0.485589 0.861940
C2    C     C_R   0.547506 0.103613 0.460311 0.091107
C3    C     C_R   0.346419 0.931274 0.420948 0.178867
C4    C     C_R   0.642055 0.072627 0.465934 0.178103
C5    C     C_R   0.508354 0.956738 0.438585 0.067933
C6    C     C_R   0.478982 0.047127 0.437876 0.070197
C7    C     C_R   0.382322 0.077865 0.415685 -0.232568
C8    C     C_R   0.602580 0.927328 0.441101 -0.233376
C9    C     C_R   0.317038 0.020348 0.405665 -0.239879
C10   C     C_R   0.667935 0.985045 0.452763 -0.240199
C11   C     C_R   0.842833 0.635990 0.632198 -0.331081
C12   C     C_R   0.557987 0.337849 0.510278 0.863454
C13   C     C_R   0.160127 0.357140 0.375318 -0.332401
C14   C     C_R   0.753661 0.613697 0.609239 0.027075
C15   C     C_R   0.248208 0.381984 0.395507 0.026916
C16   C     C_R   0.501386 0.500086 0.662181 0.905789
C17   C     C_R   0.498737 0.499662 0.337881 0.903747
C18   C     C_R   0.793988 0.511341 0.509591 -0.050164
C19   C     C_R   0.205175 0.490458 0.488336 -0.047903
C20   C     C_R   0.887154 0.529314 0.531074 -0.010032
C21   C     C_R   0.114293 0.467215 0.472656 -0.010050
C22   C     C_R   0.911283 0.594462 0.593507 0.104459
C23   C     C_R   0.281296 0.874094 0.421340 -0.206577
C24   C     C_R   0.091401 0.399229 0.413354 0.106398
C25   C     C_R   0.955691 0.485254 0.492335 0.022857
C26   C     C_R   0.046613 0.509295 0.513573 0.022271
C27   C     C_R   0.068149 0.573546 0.576298 -0.228950
C28   C     C_R   0.935918 0.416984 0.434063 -0.229209
C29   C     C_R   0.002619 0.616678 0.616385 0.161826
C30   C     C_R   0.001280 0.374184 0.393590 0.162687
C31   C     C_3   0.481440 0.580559 0.023700 -0.210071
C32   C     C_3   0.521504 0.415150 0.977242 -0.210232
C33   C     C_3   0.567659 0.545451 0.990413 -0.210924
C34   C     C_R   0.709437 0.129579 0.486124 -0.208038
C35   C     C_3   0.435285 0.450273 0.010569 -0.209011
C36   C     C_1   0.504511 0.499773 0.751966 -0.189580
C37   C     C_1   0.496418 0.498409 0.248361 -0.185883
C38   C     C_3   0.418965 0.532990 0.950589 0.237671
C39   C     C_3   0.583971 0.462732 0.050469 0.236677
C40   C     C_3   0.504192 0.498300 0.918269 0.115329
C41   C     C_3   0.498672 0.497469 0.082648 0.115063
C42   C     C_1   0.505525 0.499105 0.827575 -0.072466
C43   C     C_1   0.496416 0.497698 0.173039 -0.072704
C44   C     C_R   0.406672 0.754420 0.464859 -0.057104
C45   C     C_R   0.311298 0.785775 0.442888 -0.198065
C46   C     C_R   0.591092 0.246064 0.501841 -0.056189
C47   C     C_3   0.677363 0.422703 0.111152 -0.427251
C48   C     C_3   0.748475 0.394413 0.059281 -0.865554
C49   C     C_3   0.325242 0.573117 0.890672 -0.429943
C50   C     C_3   0.254730 0.600659 0.943424 -0.865129
C51   C     C_3   0.028667 0.686520 0.683631 -0.404643
C52   C     C_3   0.128314 0.708515 0.702782 -0.909721
C53   C     C_3   0.976242 0.301864 0.329058 -0.405984
C54   C     C_3   0.876200 0.280672 0.309046 -0.906551
C55   C     C_R   0.683807 0.216463 0.502943 -0.200087
C56   C     C_R   0.471011 0.811041 0.462354 -0.265120
C57   C     C_R   0.524822 0.188947 0.482889 -0.266075
C58   C     C_R   0.442563 0.899054 0.438449 0.090837
H1    H     H_    0.622053 0.583657 0.980499 0.144347
H2    H     H_    0.869712 0.394417 0.420497 0.155126
H3    H     H_    0.464318 0.647846 0.044276 0.145252
H4    H     H_    0.538636 0.347874 0.956652 0.145015
H5    H     H_    0.243636 0.046011 0.389854 0.142491
H6    H     H_    0.739566 0.960404 0.454882 0.145945
H7    H     H_    0.455337 0.211605 0.487912 0.161993
H8    H     H_    0.544081 0.786051 0.482819 0.162411
H9    H     H_    0.735994 0.260229 0.516232 0.155586
H10   H     H_    0.260295 0.742481 0.443308 0.156950
H11   H     H_    0.207531 0.897968 0.406672 0.135175
H12   H     H_    0.380925 0.412041 0.020517 0.144704
H13   H     H_    0.781666 0.106925 0.488911 0.135361
H14   H     H_    0.355357 0.146230 0.403935 0.143213
H15   H     H_    0.627086 0.860181 0.432028 0.150591
H16   H     H_    0.723310 0.344569 0.011788 0.259145
H17   H     H_    0.761022 0.451293 0.022920 0.259634
H18   H     H_    0.815338 0.365764 0.105320 0.255317
H19   H     H_    0.704375 0.471423 0.159256 0.210154
H20   H     H_    0.666727 0.365260 0.148023 0.207944
H21   H     H_    0.242795 0.543426 0.979693 0.259775
H22   H     H_    0.280101 0.650297 0.991085 0.259555
H23   H     H_    0.229055 0.542362 0.529304 0.123011
H24   H     H_    0.187455 0.629298 0.898086 0.256117
H25   H     H_    0.335467 0.630931 0.854082 0.207454
H26   H     H_    0.298006 0.524647 0.842365 0.210420
H27   H     H_    0.179309 0.650395 0.730830 0.262192
H28   H     H_    0.142421 0.733600 0.641938 0.260685
H29   H     H_    0.137302 0.760023 0.751958 0.257078
H30   H     H_    0.981396 0.748125 0.659807 0.207086
H31   H     H_    0.017468 0.665212 0.747223 0.206223
H32   H     H_    0.861283 0.255505 0.369468 0.257995
H33   H     H_    0.825741 0.339169 0.280840 0.262843
H34   H     H_    0.767389 0.465701 0.461652 0.124854
H35   H     H_    0.867200 0.229289 0.259734 0.255744
H36   H     H_    0.988434 0.320691 0.265122 0.206656
H37   H     H_    0.023377 0.240788 0.355323 0.204527
H38   H     H_    0.301221 0.349114 0.367054 0.129676
H39   H     H_    0.701297 0.645042 0.639358 0.133521
H40   H     H_    0.856737 0.685292 0.680408 0.138494
H41   H     H_    0.147598 0.304696 0.330581 0.135867
H42   H     H_    0.137058 0.590055 0.596586 0.156341
N1    N     N_R   0.731710 0.552730 0.549140 -0.101215
N2    N     N_R   0.268290 0.447270 0.450860 -0.099921
O1    O     O_R   0.383110 0.605620 0.475230 -0.620821
O2    O     O_R   0.616890 0.394380 0.524770 -0.618868
O3    O     O_R   0.531900 0.639510 0.506760 -0.624730
O4    O     O_R   0.468100 0.360490 0.493240 -0.624590
O5    O     O_R   0.425620 0.483070 0.607460 -0.612682
O6    O     O_R   0.574380 0.516930 0.392540 -0.616707
O7    O     O_R   0.574400 0.516960 0.638990 -0.612725
O8    O     O_R   0.425600 0.483040 0.361010 -0.612867
Zn1   Zn    Zn3+2 0.400660 0.477370 0.478940 0.940827
Zn2   Zn    Zn3+2 0.599340 0.522630 0.521060 0.939342

loop_
_geom_bond_atom_site_label_1
_geom_bond_atom_site_label_2
_ccdc_geom_bond_type
C38   C40   S    
C21   C26   A    
C37   C43   T    
C23   C45   A    
C22   C29   A    
C27   C29   A    
C31   H3    S    
C3    C23   A    
C17   O8    A    
C2    C57   A    
C39   C41   S    
C38   C49   S    
C53   C54   S    
N1    Zn2   S    
C26   C27   A    
C33   C39   S    
C5    C58   A    
C11   H40   S    
C49   H26   S    
C52   H27   S    
C19   C21   A    
C54   H32   S    
C5    C6    A    
C19   N2    A    
C53   H37   S    
C20   C25   A    
O1    Zn1   S    
C32   C39   S    
C48   H18   S    
O8    Zn1   S    
C54   H35   S    
C16   O5    A    
C36   C42   T    
C35   H12   S    
C46   C55   A    
C31   C33   S    
C1    O1    A    
C40   C42   S    
C34   C55   A    
C33   H1    S    
C50   H21   S    
C41   C43   S    
C48   H17   S    
N2    Zn1   S    
C2    C6    A    
C16   O7    A    
O4    Zn1   S    
C28   H2    S    
C30   C53   S    
C4    C34   A    
C27   H42   S    
C33   C40   S    
C51   C52   S    
C32   C35   S    
C48   H16   S    
C35   C38   S    
C12   C46   S    
O7    Zn2   S    
C7    H14   S    
O2    Zn2   S    
C14   N1    A    
C25   C26   A    
C23   H11   S    
O6    Zn2   S    
C13   C24   A    
C25   C28   A    
C18   N1    A    
C13   H41   S    
C2    C4    A    
C3    C9    A    
C44   C56   A    
C1    C44   S    
C47   C48   S    
C45   H10   S    
C17   C37   S    
O3    Zn2   S    
C20   C22   A    
C13   C15   A    
C46   C57   A    
C17   O6    A    
C47   H19   S    
C4    C10   A    
C15   H38   S    
C44   C45   A    
C50   H24   S    
C14   H39   S    
C39   C47   S    
C29   C51   S    
C7    C9    A    
C31   C41   S    
C53   H36   S    
C9    H5    S    
O5    Zn1   S    
C52   H29   S    
C10   H6    S    
C57   H7    S    
C50   H22   S    
C51   H30   S    
C5    C8    A    
C55   H9    S    
C12   O2    A    
C6    C7    A    
C11   C22   A    
C31   C38   S    
C18   H34   S    
C49   H25   S    
C52   H28   S    
C32   H4    S    
C54   H33   S    
C16   C36   S    
C12   O4    A    
C56   H8    S    
C28   C30   A    
C8    H15   S    
C11   C14   A    
C56   C58   A    
C18   C20   A    
C32   C40   S    
C15   N2    A    
C35   C41   S    
C24   C30   A    
C3    C58   A    
C8    C10   A    
C49   C50   S    
C21   C24   A    
C47   H20   S    
C19   H23   S    
C34   H13   S    
C51   H31   S    
C1    O3    A    
