data_mof_unit_37866.cif
_audit_creation_date              2012-12-10T17:32:17-0500
_audit_creation_method            fapswitch 2.2
_symmetry_space_group_name_H-M    P1
_symmetry_Int_Tables_number       1
_space_group_crystal_system       triclinic
_cell_length_a                    12.345066
_cell_length_b                    13.313651
_cell_length_c                    15.006502
_cell_angle_alpha                 76.860837
_cell_angle_beta                  101.122135
_cell_angle_gamma                 117.11652
_cell_volume                      2126.48456197

loop_
_atom_site_label
_atom_site_type_symbol
_atom_type_description
_atom_site_fract_x
_atom_site_fract_y
_atom_site_fract_z
_atom_type_partial_charge
C1    C     C_R   0.854789 0.286635 0.510800 0.756641
C2    C     C_R   0.110718 0.577436 0.094183 -0.001702
C3    C     C_R   0.790805 0.361099 0.042706 -0.181775
C4    C     C_R   0.788119 0.362432 0.949099 -0.210081
C5    C     C_R   0.893476 0.431406 0.903958 0.115564
C6    C     C_R   0.002727 0.499680 0.953333 0.084216
C7    C     C_R   0.110406 0.566026 0.909196 0.111037
C8    C     C_R   0.218253 0.633142 0.958381 -0.232191
C9    C     C_R   0.218542 0.638823 0.049912 -0.114935
C10   C     C_R   0.891910 0.433424 0.810297 -0.247927
C11   C     C_R   0.999298 0.499116 0.767245 -0.045510
C12   C     C_R   0.999006 0.498862 0.670845 0.777729
C13   C     C_R   0.108471 0.563672 0.816585 -0.239567
C14   C     C_R   0.287943 0.987221 0.581417 -0.183353
C15   C     C_R   0.228120 0.830468 0.500037 -0.027266
C16   C     C_R   0.811203 0.109885 0.455581 -0.190128
C17   C     C_R   0.728371 0.005792 0.428822 -0.140723
C18   C     C_R   0.606499 0.958349 0.446130 -0.160097
C19   C     C_R   0.566175 0.011843 0.495527 0.078040
C20   C     C_R   0.654330 0.112484 0.529984 0.093528
C21   C     C_R   0.441814 0.969507 0.512145 0.050119
C22   C     C_R   0.410177 0.024762 0.566591 0.162425
C23   C     C_R   0.145103 0.712471 0.490928 0.897304
C24   C     C_R   0.501287 0.113743 0.609218 -0.216083
C25   C     C_R   0.621978 0.156447 0.591902 -0.200060
C26   C     C_R   0.347946 0.872484 0.478641 -0.180071
C27   C     C_R   0.197009 0.890460 0.547936 -0.220516
C28   C     C_R   0.774183 0.165896 0.503489 -0.087315
C29   C     C_R   0.354619 0.344141 0.657543 -0.305345
C30   C     C_R   0.758894 0.642000 0.372402 0.084661
C31   C     C_R   0.663107 0.673814 0.344580 -0.255946
C32   C     C_R   0.560776 0.621951 0.393416 -0.188079
C33   C     C_R   0.553323 0.537693 0.471301 -0.008266
C34   C     C_R   0.001903 0.502784 0.328858 0.911990
C35   C     C_R   0.654833 0.509559 0.497924 0.297264
C36   C     C_R   0.449771 0.480338 0.523908 -0.035165
C37   C     C_R   0.454023 0.402308 0.604841 0.184059
C38   C     C_R   0.556919 0.381612 0.632149 -0.287211
C39   C     C_R   0.651950 0.429617 0.577247 -0.172825
C40   C     C_R   0.341535 0.496495 0.500294 0.023069
C41   C     C_R   0.250693 0.363117 0.630056 0.079773
C42   C     C_R   0.105832 0.588548 0.184426 0.321195
C43   C     C_R   0.004266 0.507421 0.231409 -0.189132
C44   C     C_R   0.900610 0.431113 0.184681 -0.305702
C45   C     C_R   0.897763 0.431380 0.091489 0.118562
C46   C     C_R   0.004034 0.502312 0.046608 0.004991
Cu1   Cu    Cu3+1 0.098270 0.475420 0.521130 0.967349
Cu2   Cu    Cu3+1 0.901730 0.524580 0.478870 0.946742
H1    H     H_    0.478543 0.148664 0.657322 0.138922
H2    H     H_    0.263557 0.029934 0.622260 0.139307
H3    H     H_    0.365658 0.823879 0.439625 0.184868
H4    H     H_    0.903048 0.149217 0.435119 0.157044
H5    H     H_    0.547022 0.879491 0.420616 0.148532
H6    H     H_    0.757632 0.963698 0.391097 0.148927
H7    H     H_    0.691065 0.221984 0.629328 0.121228
H8    H     H_    0.173909 0.319381 0.670806 0.130042
H9    H     H_    0.562835 0.325186 0.695566 0.136192
H10   H     H_    0.357196 0.284141 0.719378 0.136227
H11   H     H_    0.821298 0.372801 0.220941 0.162684
H12   H     H_    0.331013 0.555116 0.440784 0.169362
H13   H     H_    0.837961 0.682572 0.334086 0.135969
H14   H     H_    0.489968 0.650410 0.369692 0.187137
H15   H     H_    0.668221 0.738884 0.285078 0.156596
H16   H     H_    0.721560 0.401219 0.598800 0.193485
H17   H     H_    0.708767 0.306345 0.076688 0.153049
H18   H     H_    0.704046 0.309000 0.912178 0.143503
H19   H     H_    0.808438 0.382229 0.771353 0.122768
H20   H     H_    0.190999 0.613924 0.782123 0.144932
H21   H     H_    0.302329 0.682053 0.925834 0.150826
H22   H     H_    0.304738 0.689013 0.086089 0.205359
H23   H     H_    0.104547 0.857598 0.565649 0.155210
N1    N     N_R   0.246280 0.438190 0.553160 -0.189875
N2    N     N_R   0.754320 0.561190 0.447410 -0.211782
O1    O     O_R   0.972510 0.318130 0.526570 -0.586428
O2    O     O_R   0.806530 0.359650 0.490890 -0.589030
O3    O     O_R   0.082980 0.479210 0.647590 -0.587924
O4    O     O_R   0.917000 0.520730 0.611900 -0.606488
O5    O     O_R   0.193470 0.640350 0.509110 -0.577491
O6    O     O_R   0.027490 0.681870 0.473430 -0.582697
O7    O     O_R   0.083000 0.479270 0.388100 -0.558969
O8    O     O_R   0.917020 0.520790 0.352410 -0.586408
S1    S     S_3+6 0.210241 0.714519 0.231208 -0.033259
O9    O     O_2   0.309715 0.691843 0.293851 -0.342029
O10   O     O_2   0.266830 0.813811 0.157158 -0.296853
O11   O     O_3   0.136612 0.751735 0.291397 -0.550720
H24   H     H_    0.072123 0.764586 0.246543 0.338498

loop_
_geom_bond_atom_site_label_1
_geom_bond_atom_site_label_2
_ccdc_geom_bond_type
C16   C28   A    
C21   C26   A    
C40   H12   S    
C19   C20   A    
C42   S1    S    
C7    C8    A    
C14   H2    S    
O11   H24   S    
C2    C46   A    
C39   H16   S    
C8    H21   S    
C1    O1    A    
Cu2   O6    S    
C36   C37   A    
C19   C21   A    
Cu1   O3    S    
C5    C6    A    
C20   C25   A    
C44   H11   S    
C33   C36   A    
Cu2   O8    S    
C18   C19   A    
C18   H5    S    
C34   O7    A    
Cu1   Cu2   S    
C8    C9    A    
C1    C28   S    
C34   O8    A    
C14   C27   A    
C40   N1    A    
C15   C23   S    
C21   C22   A    
Cu2   O2    S    
C3    H17   S    
Cu1   O7    S    
C38   C39   A    
C1    O2    A    
C31   H15   S    
C36   C40   A    
C24   C25   A    
C16   H4    S    
C30   N2    A    
C16   C17   A    
C15   C26   A    
C20   C28   A    
C10   H19   S    
C3    C45   A    
Cu2   O4    S    
C35   C39   A    
C43   C44   A    
C41   H8    S    
C37   C38   A    
C38   H9    S    
C15   C27   A    
C31   C32   A    
C12   O4    A    
C17   C18   A    
C9    H22   S    
C41   N1    A    
S1    O10   D    
C12   O3    A    
C22   C24   A    
C42   C43   A    
C3    C4    A    
C27   H23   S    
C44   C45   A    
C24   H1    S    
C35   N2    A    
C6    C46   A    
C29   C41   A    
Cu2   N2    S    
C34   C43   S    
C25   H7    S    
Cu1   O1    S    
C4    C5    A    
C11   C12   S    
C6    C7    A    
S1    O11   S    
C32   C33   A    
C14   C22   A    
C32   H14   S    
C5    C10   A    
C26   H3    S    
C4    H18   S    
C11   C13   A    
C30   C31   A    
C2    C42   A    
C33   C35   A    
C23   O5    A    
Cu1   N1    S    
C10   C11   A    
C45   C46   A    
C7    C13   A    
C29   H10   S    
S1    O9    D    
C30   H13   S    
C29   C37   A    
Cu1   O5    S    
C23   O6    A    
C2    C9    A    
C17   H6    S    
C13   H20   S    
