data_mof_unit_12324.cif
_audit_creation_date              2012-12-10T21:31:17-0500
_audit_creation_method            fapswitch 2.2
_symmetry_space_group_name_H-M    P1
_symmetry_Int_Tables_number       1
_space_group_crystal_system       triclinic
_cell_length_a                    14.924632
_cell_length_b                    16.340404
_cell_length_c                    16.748377
_cell_angle_alpha                 87.065689
_cell_angle_beta                  91.298268
_cell_angle_gamma                 91.282981
_cell_volume                      4077.17787027

loop_
_atom_site_label
_atom_site_type_symbol
_atom_type_description
_atom_site_fract_x
_atom_site_fract_y
_atom_site_fract_z
_atom_type_partial_charge
C1    C     C_R   0.500086 0.488934 0.652790 0.829807
C2    C     C_R   0.498607 0.511893 0.347075 0.819877
C3    C     C_R   0.953017 0.399232 0.619176 -0.006507
C4    C     C_R   0.039582 0.496265 0.341764 -0.021460
C5    C     C_R   0.511023 0.482552 0.739200 -0.146070
C6    C     C_R   0.507711 0.522433 0.260807 -0.151077
C7    C     C_R   0.465493 0.534634 0.788512 -0.044503
C8    C     C_R   0.457319 0.474720 0.207738 -0.047560
C9    C     C_R   0.486006 0.530733 0.869978 -0.173939
C10   C     C_R   0.479924 0.478459 0.127606 -0.160354
C11   C     C_R   0.551744 0.477833 0.902640 0.234195
C12   C     C_R   0.549445 0.530780 0.099310 0.233801
C13   C     C_R   0.597093 0.426404 0.853564 0.083629
C14   C     C_R   0.594203 0.583764 0.150808 0.088619
C15   C     C_R   0.577433 0.430741 0.771767 -0.210346
C16   C     C_R   0.573287 0.578646 0.231674 -0.204094
C17   C     C_R   0.457554 0.763812 0.458249 0.036307
C18   C     C_R   0.543298 0.238978 0.543325 0.062867
C19   C     C_R   0.447437 0.849497 0.467440 0.030377
C20   C     C_R   0.551348 0.152070 0.540807 -0.067399
C21   C     C_R   0.509731 0.891133 0.516486 0.167855
C22   C     C_R   0.505991 0.110108 0.479190 0.235459
C23   C     C_R   0.672848 0.498696 0.500231 0.857885
C24   C     C_R   0.326562 0.500480 0.498630 0.841577
C25   C     C_R   0.573634 0.844254 0.559958 -0.108269
C26   C     C_R   0.452165 0.156525 0.424224 -0.127042
C27   C     C_R   0.569015 0.756855 0.561347 0.174816
C28   C     C_R   0.438038 0.241316 0.435320 0.116435
C29   C     C_R   0.183354 0.513092 0.421341 -0.009618
C30   C     C_R   0.817736 0.471714 0.566081 -0.011377
C31   C     C_R   0.229173 0.498040 0.495982 -0.092672
C32   C     C_R   0.768537 0.493331 0.495500 -0.095928
C33   C     C_R   0.184745 0.462417 0.563499 0.034860
C34   C     C_R   0.807419 0.491494 0.419348 0.026767
C35   C     C_R   0.092592 0.443948 0.556536 0.054305
C36   C     C_R   0.901321 0.487547 0.416180 0.062421
C37   C     C_R   0.044983 0.466532 0.485537 0.022150
C38   C     C_R   0.950653 0.465608 0.486273 0.021544
C39   C     C_R   0.090606 0.491490 0.414853 -0.002916
C40   C     C_R   0.905794 0.443884 0.557941 -0.012588
C41   C     C_R   0.046200 0.401172 0.618478 -0.235302
C42   C     C_R   0.946627 0.499578 0.344112 -0.229483
H1    H     H_    0.081771 0.369389 0.667218 0.203001
H2    H     H_    0.910371 0.508743 0.287965 0.192989
H3    H     H_    0.440915 0.442964 0.085739 0.200121
H4    H     H_    0.449255 0.567888 0.909266 0.201222
H5    H     H_    0.617502 0.396593 0.732932 0.188168
H6    H     H_    0.610131 0.616993 0.272565 0.170579
N1    N     N_2   0.563004 0.469938 0.986155 -0.195315
N2    N     N_2   0.564713 0.537801 0.016770 -0.203657
N3    N     N_R   0.511030 0.716920 0.509720 -0.157025
N4    N     N_R   0.488970 0.283080 0.490280 -0.141518
N5    N     N_2   0.503970 0.977466 0.529243 -0.214102
N6    N     N_2   0.515214 0.023512 0.467999 -0.102481
O1    O     O_R   0.496050 0.422540 0.612660 -0.580048
O2    O     O_R   0.503950 0.577460 0.387340 -0.612502
O3    O     O_R   0.503140 0.561840 0.618900 -0.647705
O4    O     O_R   0.496860 0.438160 0.381100 -0.631726
O5    O     O_R   0.628610 0.430340 0.496900 -0.641179
O6    O     O_R   0.371390 0.569660 0.503100 -0.647184
O7    O     O_R   0.635690 0.569650 0.503140 -0.627628
O8    O     O_R   0.364310 0.430350 0.496860 -0.629130
Zn1   Zn    Zn3+2 0.495270 0.406980 0.495830 0.934591
Zn2   Zn    Zn3+2 0.504730 0.593020 0.504170 0.920590
C43   C     C_3   0.232060 0.558031 0.352042 -0.432983
C44   C     C_3   0.195805 0.644555 0.333999 -0.323293
C45   C     C_3   0.227742 0.680276 0.253284 -0.784801
H7    H     H_    0.301468 0.675584 0.248939 0.283750
H8    H     H_    0.195361 0.646460 0.204125 0.282131
H9    H     H_    0.209429 0.745747 0.245789 0.252227
H10   H     H_    0.121442 0.644047 0.332698 0.246436
H11   H     H_    0.218533 0.685140 0.382021 0.204162
H12   H     H_    0.304766 0.563241 0.363130 0.173955
H13   H     H_    0.230375 0.522487 0.298267 0.187325
C46   C     C_3   0.779552 0.485633 0.648534 -0.424902
C47   C     C_3   0.838430 0.545957 0.695826 -0.301020
C48   C     C_3   0.832537 0.528060 0.785973 -0.872255
H14   H     H_    0.761876 0.525650 0.804967 0.258407
H15   H     H_    0.863596 0.468384 0.802997 0.287633
H16   H     H_    0.869081 0.576874 0.818004 0.257672
H17   H     H_    0.910103 0.543657 0.679976 0.235875
H18   H     H_    0.816396 0.609505 0.680665 0.216689
H19   H     H_    0.711586 0.511671 0.644140 0.172281
H20   H     H_    0.769025 0.426908 0.682831 0.186379
C49   C     C_3   0.613957 0.107308 0.600390 -0.356219
C50   C     C_3   0.566237 0.083173 0.679175 -0.292342
C51   C     C_3   0.632978 0.073184 0.749306 -0.864175
H21   H     H_    0.684373 0.027748 0.736852 0.262642
H22   H     H_    0.666962 0.132840 0.760348 0.282193
H23   H     H_    0.596990 0.051898 0.804095 0.249065
H24   H     H_    0.517018 0.129758 0.693687 0.266345
H25   H     H_    0.527262 0.025174 0.673317 0.202298
H26   H     H_    0.642230 0.052804 0.574526 0.215679
H27   H     H_    0.674194 0.146445 0.612136 0.191712
C52   C     C_3   0.367676 0.894488 0.429107 -0.346305
C53   C     C_3   0.301320 0.918718 0.492138 -0.399464
C54   C     C_3   0.222029 0.964179 0.453338 -0.852211
H28   H     H_    0.245616 0.021413 0.421020 0.251974
H29   H     H_    0.185447 0.924821 0.410750 0.266672
H30   H     H_    0.175128 0.980568 0.500213 0.258277
H31   H     H_    0.275892 0.862570 0.525324 0.226893
H32   H     H_    0.334421 0.958972 0.535828 0.245601
H33   H     H_    0.391378 0.949018 0.393446 0.262693
H34   H     H_    0.329529 0.856491 0.386592 0.217399
C55   C     C_2   0.645139 0.887385 0.604699 0.378042
H35   H     H_    0.628111 0.924349 0.653455 0.066065
O9    O     O_2   0.723506 0.881839 0.586797 -0.560400
C56   C     C_2   0.411987 0.116753 0.353513 0.382642
H36   H     H_    0.344071 0.129489 0.333128 0.072819
O10   O     O_2   0.456282 0.071377 0.315096 -0.538778
C57   C     C_3   0.627110 0.710160 0.622968 -0.365688
C58   C     C_3   0.594294 0.721062 0.708083 -0.371356
C59   C     C_3   0.649140 0.671326 0.770235 -0.852206
H37   H     H_    0.645521 0.605672 0.756879 0.266587
H38   H     H_    0.720183 0.693007 0.770201 0.266234
H39   H     H_    0.621885 0.678319 0.830601 0.264398
H40   H     H_    0.598762 0.786203 0.723504 0.215017
H41   H     H_    0.522982 0.701410 0.711643 0.249664
H42   H     H_    0.628411 0.644936 0.613081 0.254781
H43   H     H_    0.698131 0.731010 0.618089 0.220288
C60   C     C_3   0.363753 0.283724 0.388482 -0.383702
C61   C     C_3   0.272220 0.260774 0.424375 -0.375676
C62   C     C_3   0.196074 0.295019 0.371468 -0.846712
H44   H     H_    0.206040 0.361937 0.360413 0.254386
H45   H     H_    0.193901 0.265278 0.313272 0.274901
H46   H     H_    0.131105 0.283357 0.401473 0.250566
H47   H     H_    0.262962 0.193183 0.431592 0.207765
H48   H     H_    0.268366 0.286020 0.484583 0.248688
H49   H     H_    0.372890 0.349731 0.389651 0.256506
H50   H     H_    0.365545 0.269476 0.324467 0.209597
C63   C     C_3   0.234160 0.446513 0.643921 -0.422295
C64   C     C_3   0.198324 0.499217 0.709631 -0.364866
C65   C     C_3   0.223394 0.463322 0.792917 -0.782616
H51   H     H_    0.185416 0.404969 0.805215 0.262776
H52   H     H_    0.296108 0.450859 0.797862 0.257842
H53   H     H_    0.206336 0.507059 0.838557 0.270906
H54   H     H_    0.225564 0.562627 0.701431 0.231136
H55   H     H_    0.124508 0.504900 0.706397 0.239066
H56   H     H_    0.228654 0.380132 0.661447 0.208913
H57   H     H_    0.307130 0.459462 0.640957 0.190847
C66   C     C_3   0.749506 0.487475 0.343087 -0.417006
C67   C     C_3   0.752804 0.401284 0.310283 -0.335573
C68   C     C_3   0.699318 0.395157 0.232136 -0.823159
H58   H     H_    0.626823 0.399874 0.243207 0.275582
H59   H     H_    0.720827 0.444134 0.187789 0.260777
H60   H     H_    0.710455 0.334748 0.206973 0.252319
H61   H     H_    0.822978 0.384542 0.299389 0.224741
H62   H     H_    0.725070 0.355605 0.355193 0.235402
H63   H     H_    0.678800 0.500548 0.353679 0.207835
H64   H     H_    0.770577 0.535642 0.297850 0.189195
C69   C     C_2   0.907552 0.342439 0.677866 0.400844
H65   H     H_    0.842597 0.315468 0.663010 0.045002
O11   O     O_2   0.943087 0.323306 0.742330 -0.579892
C70   C     C_2   0.077207 0.485226 0.262099 0.393458
H66   H     H_    0.127971 0.439879 0.255107 0.076033
O12   O     O_2   0.049388 0.524414 0.202958 -0.565032
C71   C     C_2   0.377395 0.426005 0.233389 0.394069
H67   H     H_    0.347461 0.436651 0.289770 0.022649
O13   O     O_2   0.342723 0.375028 0.190937 -0.574983
C72   C     C_2   0.396696 0.593040 0.756902 0.358736
H68   H     H_    0.375608 0.594723 0.694651 0.093487
O14   O     O_2   0.362336 0.640707 0.800358 -0.578404
C73   C     C_3   0.667960 0.368396 0.886312 -0.420589
C74   C     C_3   0.629746 0.280650 0.895116 -0.319388
C75   C     C_3   0.701524 0.220797 0.924993 -0.847804
H69   H     H_    0.757096 0.220955 0.881931 0.273874
H70   H     H_    0.728573 0.237820 0.984372 0.269345
H71   H     H_    0.671837 0.157907 0.930918 0.253314
H72   H     H_    0.574035 0.278199 0.938220 0.236039
H73   H     H_    0.602799 0.261207 0.836493 0.265336
H74   H     H_    0.725591 0.370586 0.845227 0.208153
H75   H     H_    0.694479 0.387391 0.945248 0.221664
C76   C     C_3   0.666137 0.643458 0.120879 -0.423073
C77   C     C_3   0.624631 0.718957 0.077676 -0.308655
C78   C     C_3   0.696972 0.778453 0.045470 -0.844988
H76   H     H_    0.740703 0.799662 0.095179 0.269042
H77   H     H_    0.738490 0.748351 0.001703 0.262306
H78   H     H_    0.665030 0.832580 0.014907 0.254363
H79   H     H_    0.581014 0.700264 0.026835 0.234292
H80   H     H_    0.582767 0.750912 0.119943 0.246146
H81   H     H_    0.709038 0.663659 0.171695 0.200187
H82   H     H_    0.710595 0.612358 0.080070 0.215562
C79   C     C_2   0.592918 0.281808 0.605922 0.458849
H83   H     H_    0.651837 0.319037 0.592043 0.051648
O15   O     O_2   0.570026 0.272120 0.675184 -0.631524
C80   C     C_2   0.415556 0.726260 0.389010 0.412212
H84   H     H_    0.376118 0.671411 0.396871 0.106578
O16   O     O_2   0.426916 0.756501 0.321716 -0.586607

loop_
_geom_bond_atom_site_label_1
_geom_bond_atom_site_label_2
_ccdc_geom_bond_type
C68   H60   S    
C4    C70   S    
C51   H21   S    
C34   C66   S    
C75   H69   S    
C53   H32   S    
C28   N4    A    
C74   H73   S    
C52   C53   S    
C15   H5    S    
C60   H50   S    
C79   H83   S    
C16   H6    S    
C54   H28   S    
C25   C55   S    
C62   H44   S    
C78   H77   S    
C49   C50   S    
C23   O5    A    
C55   O9    D    
C71   H67   S    
C1    C5    S    
C74   C75   S    
C35   C37   A    
C14   C76   S    
C50   H24   S    
C79   O15   D    
C58   H40   S    
C46   H20   S    
C62   H45   S    
C64   H55   S    
C68   H58   S    
C68   H59   S    
C43   H12   S    
C56   H36   S    
C57   H42   S    
C61   H47   S    
C77   C78   S    
C63   H57   S    
C17   C19   A    
C49   H26   S    
C44   H11   S    
C57   C58   S    
C52   H33   S    
C64   C65   S    
O1    Zn1   S    
C65   H53   S    
C69   H65   S    
O2    Zn2   S    
C30   C32   A    
C73   H74   S    
C70   O12   D    
C59   H39   S    
C33   C63   S    
C44   C45   S    
C76   H81   S    
C9    H4    S    
C75   H70   S    
C76   C77   S    
C53   H31   S    
C53   C54   S    
C29   C31   A    
C41   H1    S    
C17   N3    A    
C74   H72   S    
C2    C6    S    
C42   H2    S    
C10   H3    S    
C8    C71   S    
C58   C59   S    
C54   H29   S    
C27   N3    A    
C66   H64   S    
C13   C73   S    
C78   H78   S    
C61   C62   S    
C48   H15   S    
C66   H63   S    
C45   H7    S    
C67   H62   S    
C47   C48   S    
C22   N6    S    
C26   C56   S    
C5    C7    A    
C28   C60   S    
C62   H46   S    
C6    C8    A    
C7    C72   S    
C64   H54   S    
C48   H14   S    
C43   H13   S    
C57   H43   S    
C45   H8    S    
C72   O14   D    
C18   N4    A    
O7    Zn2   S    
C46   C47   S    
C37   C38   A    
C11   N1    S    
C1    O3    A    
C21   N5    S    
C49   H27   S    
C44   H10   S    
C4    C39   A    
C17   C80   S    
C24   O6    A    
C20   C49   S    
C29   C39   A    
O8    Zn1   S    
C31   C33   A    
C70   H66   S    
C30   C40   A    
C73   H75   S    
C9    C11   A    
C60   C61   S    
C10   C12   A    
C29   C43   S    
C8    C10   A    
C12   C14   A    
C3    C40   A    
C43   C44   S    
C75   H71   S    
C13   C15   A    
C65   H51   S    
C14   C16   A    
O5    Zn1   S    
C20   C22   A    
C47   H18   S    
C63   C64   S    
C77   H80   S    
C54   H30   S    
C19   C52   S    
C52   H34   S    
O3    Zn2   S    
C59   H37   S    
C48   H16   S    
O4    Zn1   S    
C7    C9    A    
C21   C25   A    
C3    C41   A    
C24   O8    A    
C19   C21   A    
C50   C51   S    
C3    C69   S    
C67   H61   S    
N3    Zn2   S    
C60   H49   S    
N4    Zn1   S    
C36   C42   A    
C76   H82   S    
C12   N2    S    
C2    O4    A    
N5    N6    D    
C25   C27   A    
C55   H35   S    
C26   C28   A    
C47   H17   S    
O6    Zn2   S    
C45   H9    S    
C23   C32   S    
C36   C38   A    
C1    O1    A    
C24   C31   S    
C37   C39   A    
C78   H76   S    
C50   H25   S    
C66   C67   S    
C72   H68   S    
C38   C40   A    
C30   C46   S    
C11   C13   A    
C46   H19   S    
C4    C42   A    
C18   C79   S    
C33   C35   A    
C34   C36   A    
C56   O10   D    
C18   C20   A    
C69   O11   D    
C61   H48   S    
C35   C41   A    
C5    C15   A    
C73   C74   S    
C63   H56   S    
C6    C16   A    
C23   O7    A    
C71   O13   D    
N1    N2    D    
C22   C26   A    
C51   H23   S    
C65   H52   S    
C51   H22   S    
C58   H41   S    
C67   C68   S    
C2    O2    A    
C80   H84   S    
C80   O16   D    
C77   H79   S    
C27   C57   S    
C32   C34   A    
C59   H38   S    
