data_mof_unit_31735.cif
_audit_creation_date              2012-12-11T17:04:57-0500
_audit_creation_method            fapswitch 2.2
_symmetry_space_group_name_H-M    P1
_symmetry_Int_Tables_number       1
_space_group_crystal_system       triclinic
_cell_length_a                    17.427607
_cell_length_b                    24.34385
_cell_length_c                    14.8496
_cell_angle_alpha                 89.395121
_cell_angle_beta                  125.166685
_cell_angle_gamma                 90.805077
_cell_volume                      5149.6063042

loop_
_atom_site_label
_atom_site_type_symbol
_atom_type_description
_atom_site_fract_x
_atom_site_fract_y
_atom_site_fract_z
_atom_type_partial_charge
C1    C     C_R   0.853423 0.652330 0.905986 -0.167657
C2    C     C_R   0.151633 0.651996 0.093638 -0.118603
C3    C     C_R   0.338611 0.147387 0.905984 -0.087793
C4    C     C_R   0.651413 0.152132 0.093136 -0.120674
C5    C     C_R   0.818560 0.358189 0.007254 -0.088439
C6    C     C_R   0.170207 0.349744 0.992018 -0.060449
C7    C     C_R   0.316940 0.860158 0.008055 -0.094268
C8    C     C_R   0.663359 0.842889 0.990704 -0.033354
C9    C     C_R   0.065926 0.504155 0.368910 0.066660
C10   C     C_R   0.044825 0.504678 0.718822 0.063800
C11   C     C_R   0.565836 0.004077 0.369046 0.067536
C12   C     C_R   0.547009 0.004546 0.721255 0.065192
C13   C     C_R   0.685698 0.502799 0.652146 0.008852
C14   C     C_R   0.324978 0.502071 0.293115 0.017535
C15   C     C_R   0.188364 0.003008 0.647323 0.008733
C16   C     C_R   0.825005 0.001929 0.293114 0.015123
C17   C     C_3   0.517424 0.464905 0.537640 -0.142175
C18   C     C_3   0.488256 0.453154 0.420077 -0.154188
C19   C     C_3   0.019178 0.967554 0.538540 -0.134931
C20   C     C_3   0.987333 0.952024 0.421434 -0.148178
C21   C     C_3   0.451003 0.514190 0.496606 -0.147783
C22   C     C_3   0.566325 0.492137 0.436922 -0.148554
C23   C     C_3   0.954518 0.017699 0.494405 -0.148220
C24   C     C_3   0.065833 0.988491 0.432740 -0.148884
C25   C     C_3   0.422883 0.502592 0.380120 0.170679
C26   C     C_3   0.593459 0.503783 0.552675 0.184561
C27   C     C_3   0.923609 0.002331 0.378302 0.171261
C28   C     C_3   0.095694 0.003906 0.548097 0.183277
C29   C     C_3   0.498660 0.541616 0.394696 -0.155539
C30   C     C_3   0.528188 0.553215 0.512774 -0.154605
C31   C     C_3   0.999794 0.038835 0.387305 -0.158781
C32   C     C_3   0.032090 0.054204 0.504996 -0.157163
C33   C     C_R   0.766420 0.311173 0.111039 0.015770
C34   C     C_R   0.211712 0.299112 0.885822 0.033703
C35   C     C_R   0.266849 0.811266 0.112272 0.013678
C36   C     C_R   0.726702 0.802044 0.887707 0.057805
C37   C     C_R   0.741641 0.336133 0.013006 0.049973
C38   C     C_R   0.242252 0.326340 0.983057 0.026226
C39   C     C_R   0.240407 0.837150 0.014428 0.055640
C40   C     C_R   0.738664 0.819915 0.985079 -0.005072
C41   C     C_R   0.649703 0.326315 0.918415 0.186643
C42   C     C_R   0.333994 0.317122 0.076418 0.195617
C43   C     C_R   0.147499 0.827226 0.920929 0.210153
C44   C     C_R   0.831590 0.814754 0.081533 0.185025
C45   C     C_R   0.910613 0.369497 0.096949 0.137588
C46   C     C_R   0.080858 0.363032 0.903382 0.114009
C47   C     C_R   0.409997 0.870293 0.097182 0.141771
C48   C     C_R   0.576347 0.860075 0.902610 0.107855
C49   C     C_R   0.104258 0.776859 0.915421 -0.183341
C50   C     C_R   0.884408 0.769808 0.088025 -0.141631
C51   C     C_R   0.605835 0.276207 0.912594 -0.124945
C52   C     C_R   0.374525 0.266547 0.084580 -0.096719
C53   C     C_R   0.146534 0.742617 0.008658 0.105702
C54   C     C_R   0.855451 0.741016 0.991652 0.001186
C55   C     C_R   0.646369 0.242503 0.006699 0.123044
C56   C     C_R   0.330246 0.231629 0.992761 0.092187
C57   C     C_R   0.220791 0.763630 0.109793 -0.046854
C58   C     C_R   0.789195 0.766753 0.891941 0.095037
C59   C     C_R   0.719324 0.263931 0.108152 -0.065816
C60   C     C_R   0.255099 0.251018 0.890814 -0.052165
C61   C     C_3   0.214644 0.784311 0.200275 0.380282
C62   C     C_3   0.723640 0.751065 0.773653 0.338765
C63   C     C_3   0.710308 0.285461 0.195865 0.394799
C64   C     C_3   0.259038 0.267885 0.796196 0.394540
C65   C     C_3   0.759353 0.336965 0.196919 -0.540027
C66   C     C_3   0.216676 0.321304 0.794696 -0.564533
C67   C     C_3   0.262930 0.836094 0.201107 -0.535226
C68   C     C_3   0.654206 0.789809 0.768027 -0.599502
C69   C     C_R   0.097336 0.557851 0.619681 0.152179
C70   C     C_R   0.102953 0.557586 0.530835 0.145618
C71   C     C_R   0.598248 0.057694 0.620676 0.157655
C72   C     C_R   0.603004 0.057378 0.531190 0.149700
C73   C     C_R   0.093065 0.508162 0.665018 0.039365
C74   C     C_R   0.104329 0.507645 0.485714 0.032786
C75   C     C_R   0.595112 0.008060 0.667108 0.028102
C76   C     C_R   0.604294 0.007469 0.486012 0.023475
C77   C     C_R   0.121674 0.460259 0.640578 -0.207064
C78   C     C_R   0.127194 0.459863 0.550340 -0.191762
C79   C     C_R   0.623774 0.960191 0.642428 -0.191276
C80   C     C_R   0.627923 0.959747 0.551084 -0.186465
C81   C     C_3   0.039463 0.606048 0.478832 -0.494320
C82   C     C_3   0.033219 0.606272 0.575826 -0.492033
C83   C     C_3   0.539197 0.105679 0.479240 -0.495985
C84   C     C_3   0.533684 0.105945 0.576762 -0.496892
C85   C     C_R   0.047992 0.548229 0.301827 -0.140637
C86   C     C_R   0.018361 0.548752 0.751514 -0.134197
C87   C     C_R   0.547981 0.048171 0.301947 -0.140769
C88   C     C_R   0.519233 0.048649 0.752470 -0.138776
C89   C     C_R   0.737885 0.456417 0.701338 -0.112089
C90   C     C_R   0.269844 0.455841 0.264908 -0.153101
C91   C     C_R   0.239801 0.956685 0.698484 -0.093835
C92   C     C_R   0.769735 0.955696 0.264146 -0.150639
C93   C     C_R   0.053122 0.457510 0.308870 -0.134751
C94   C     C_R   0.012661 0.457547 0.741339 -0.139962
C95   C     C_R   0.553119 0.957510 0.308930 -0.133189
C96   C     C_R   0.515291 0.957405 0.744378 -0.131356
C97   C     C_R   0.736770 0.548116 0.708951 -0.128584
C98   C     C_R   0.269538 0.547752 0.259401 -0.126323
C99   C     C_R   0.238302 0.048107 0.705997 -0.134889
C100  C     C_R   0.769636 0.047685 0.259524 -0.127399
C101  C     C_R   0.814705 0.371159 0.912784 0.377718
C102  C     C_R   0.178315 0.365136 0.087041 0.364810
C103  C     C_R   0.312975 0.873197 0.913446 0.380621
C104  C     C_R   0.673191 0.860993 0.085727 0.357904
C105  C     C_R   0.940914 0.652616 0.089223 -0.090998
C106  C     C_R   0.058761 0.653632 0.910782 -0.143186
C107  C     C_R   0.432367 0.148933 0.090750 -0.112150
C108  C     C_R   0.558550 0.153491 0.910279 -0.121268
C109  C     C_R   0.881182 0.684097 0.996041 0.098460
C110  C     C_R   0.121671 0.684663 0.003106 0.084812
C111  C     C_R   0.363064 0.177072 0.997743 0.093796
C112  C     C_R   0.621410 0.184632 0.002169 0.094554
H1    H     H_    0.825592 0.666038 0.823628 0.132238
H2    H     H_    0.189731 0.665489 0.178235 0.095436
H3    H     H_    0.295256 0.159959 0.820766 0.101179
H4    H     H_    0.689739 0.165780 0.177661 0.094620
H5    H     H_    0.528176 0.433523 0.598582 0.143866
H6    H     H_    0.470157 0.412215 0.380347 0.138461
H7    H     H_    0.029876 0.938522 0.602944 0.144147
H8    H     H_    0.967303 0.910225 0.385335 0.137774
H9    H     H_    0.487700 0.572592 0.333007 0.120887
H10   H     H_    0.546225 0.594093 0.552919 0.114394
H11   H     H_    0.988580 0.067635 0.322367 0.120068
H12   H     H_    0.051879 0.096046 0.541042 0.107322
H13   H     H_    0.038700 0.764930 0.839693 0.145843
H14   H     H_    0.947115 0.758306 0.166749 0.170463
H15   H     H_    0.541949 0.263809 0.835612 0.162934
H16   H     H_    0.440976 0.255714 0.159673 0.152608
H17   H     H_    0.257268 0.759669 0.277139 0.055693
H18   H     H_    0.696668 0.708107 0.757667 0.048638
H19   H     H_    0.751739 0.261349 0.273594 0.047280
H20   H     H_    0.211788 0.242609 0.721428 0.046325
H21   H     H_    0.829210 0.342896 0.276011 0.158461
H22   H     H_    0.146501 0.327195 0.716523 0.148604
H23   H     H_    0.333656 0.841487 0.279173 0.160673
H24   H     H_    0.593520 0.764372 0.748598 0.168209
H25   H     H_    0.714871 0.374302 0.166231 0.227014
H26   H     H_    0.264625 0.357512 0.820628 0.224504
H27   H     H_    0.218743 0.873522 0.172985 0.228015
H28   H     H_    0.637514 0.826001 0.713785 0.223868
H29   H     H_    0.127182 0.421824 0.680570 0.128964
H30   H     H_    0.136766 0.420858 0.524088 0.130331
H31   H     H_    0.630705 0.921771 0.683421 0.132835
H32   H     H_    0.637561 0.920776 0.524782 0.145275
H33   H     H_    0.970999 0.596076 0.400325 0.205647
H34   H     H_    0.066527 0.643226 0.628585 0.204762
H35   H     H_    0.470606 0.095522 0.401044 0.204556
H36   H     H_    0.566853 0.143033 0.629133 0.204410
H37   H     H_    0.076463 0.642853 0.475857 0.199037
H38   H     H_    0.961233 0.596346 0.551794 0.203349
H39   H     H_    0.575805 0.142535 0.475707 0.199283
H40   H     H_    0.461908 0.095849 0.553257 0.201830
H41   H     H_    0.067317 0.590587 0.326239 0.103579
H42   H     H_    0.033373 0.591551 0.749187 0.111852
H43   H     H_    0.567342 0.090507 0.326520 0.103662
H44   H     H_    0.534089 0.091442 0.749918 0.109561
H45   H     H_    0.722673 0.416613 0.663462 0.175903
H46   H     H_    0.294239 0.415334 0.296237 0.177591
H47   H     H_    0.226025 0.917028 0.660300 0.171276
H48   H     H_    0.793866 0.914941 0.293583 0.176399
H49   H     H_    0.079830 0.417944 0.345209 0.109677
H50   H     H_    0.016870 0.416941 0.718872 0.112350
H51   H     H_    0.579958 0.918010 0.345442 0.111207
H52   H     H_    0.523259 0.916609 0.726161 0.104872
H53   H     H_    0.720834 0.590834 0.685305 0.106139
H54   H     H_    0.291686 0.590260 0.277823 0.097372
H55   H     H_    0.222973 0.090759 0.681771 0.094772
H56   H     H_    0.791864 0.090193 0.277612 0.096782
H57   H     H_    0.985031 0.666849 0.173406 0.103263
H58   H     H_    0.012423 0.668954 0.827506 0.111445
H59   H     H_    0.474342 0.163220 0.174970 0.102101
H60   H     H_    0.512107 0.168628 0.826877 0.115037
H61   H     H_    0.401365 0.523046 0.518610 0.124865
H62   H     H_    0.617496 0.483375 0.417309 0.125013
H63   H     H_    0.906621 0.029475 0.517446 0.122514
H64   H     H_    0.115889 0.976940 0.412938 0.122636
N1    N     N_R   0.892620 0.603790 0.941770 -0.041777
N2    N     N_R   0.107380 0.603790 0.058230 -0.042370
N3    N     N_R   0.392620 0.103790 0.941770 -0.046251
N4    N     N_R   0.607380 0.103790 0.058230 -0.043281
N5    N     N_R   0.952270 0.397640 0.058010 -0.082199
N6    N     N_R   0.047730 0.397640 0.941990 -0.078557
N7    N     N_R   0.452270 0.897640 0.058010 -0.081825
N8    N     N_R   0.547730 0.897640 0.941990 -0.079084
N9    N     N_R   0.026310 0.529110 0.206760 -0.042232
N10   N     N_R   0.973690 0.529110 0.793240 -0.040170
N11   N     N_R   0.526310 0.029110 0.206760 -0.042477
N12   N     N_R   0.473690 0.029110 0.793240 -0.041294
N13   N     N_R   0.818570 0.472310 0.793020 -0.046711
N14   N     N_R   0.181430 0.472310 0.206980 -0.040291
N15   N     N_R   0.318570 0.972310 0.793020 -0.047923
N16   N     N_R   0.681430 0.972310 0.206980 -0.038636
N17   N     N_R   0.026930 0.472300 0.207330 -0.042194
N18   N     N_R   0.973070 0.472300 0.792670 -0.046336
N19   N     N_R   0.526930 0.972300 0.207330 -0.042299
N20   N     N_R   0.473070 0.972300 0.792670 -0.045442
N21   N     N_R   0.817960 0.529130 0.792460 -0.040978
N22   N     N_R   0.182040 0.529130 0.207540 -0.039745
N23   N     N_R   0.317960 0.029130 0.792460 -0.042786
N24   N     N_R   0.682040 0.029130 0.207540 -0.039337
N25   N     N_R   0.894850 0.397640 0.943830 -0.096550
N26   N     N_R   0.105150 0.397640 0.056170 -0.090943
N27   N     N_R   0.394850 0.897640 0.943830 -0.100787
N28   N     N_R   0.605150 0.897640 0.056170 -0.092482
N29   N     N_R   0.950040 0.603780 0.055950 -0.046066
N30   N     N_R   0.049960 0.603780 0.944050 -0.041586
N31   N     N_R   0.450040 0.103780 0.055950 -0.045392
N32   N     N_R   0.549960 0.103780 0.944050 -0.044476
Ni1   Ni    Ni4+2 0.934160 0.565860 0.869070 0.218452
Ni2   Ni    Ni4+2 0.065840 0.565860 0.130930 0.210556
Ni3   Ni    Ni4+2 0.434160 0.065860 0.869070 0.221535
Ni4   Ni    Ni4+2 0.565840 0.065860 0.130930 0.214326
Ni5   Ni    Ni4+2 0.067260 0.435560 0.132230 0.214211
Ni6   Ni    Ni4+2 0.932740 0.435560 0.867770 0.207818
Ni7   Ni    Ni4+2 0.567260 0.935560 0.132230 0.214731
Ni8   Ni    Ni4+2 0.432740 0.935560 0.867770 0.204782
C113  C     C_3   0.595464 0.369695 0.830350 -0.395072
C114  C     C_3   0.523294 0.396921 0.842852 -0.244952
C115  C     C_3   0.466723 0.440084 0.753510 -0.931094
H65   H     H_    0.426587 0.420678 0.670815 0.269200
H66   H     H_    0.416245 0.459529 0.765980 0.261086
H67   H     H_    0.514016 0.472485 0.757261 0.260928
H68   H     H_    0.474100 0.365628 0.837318 0.272288
H69   H     H_    0.560017 0.416880 0.924940 0.205999
H70   H     H_    0.643072 0.402748 0.837259 0.208988
H71   H     H_    0.559552 0.350697 0.747485 0.229586
C116  C     C_3   0.393577 0.363479 0.153327 -0.391071
C117  C     C_3   0.413642 0.405619 0.091419 -0.229767
C118  C     C_3   0.477687 0.451897 0.166629 -0.912331
H72   H     H_    0.544911 0.435028 0.237508 0.274182
H73   H     H_    0.493091 0.480432 0.120006 0.252599
H74   H     H_    0.442509 0.475241 0.196769 0.262256
H75   H     H_    0.447521 0.385008 0.056487 0.260350
H76   H     H_    0.346674 0.423738 0.022113 0.186359
H77   H     H_    0.358290 0.384244 0.185737 0.201029
H78   H     H_    0.461188 0.347370 0.225222 0.216203
C119  C     C_3   0.091008 0.870571 0.833816 -0.399929
C120  C     C_3   0.011314 0.891447 0.839782 -0.261628
C121  C     C_3   0.953230 0.934782 0.751382 -0.889482
H79   H     H_    0.920081 0.916968 0.668022 0.269592
H80   H     H_    0.896914 0.949504 0.758534 0.260684
H81   H     H_    0.998242 0.970357 0.761627 0.252236
H82   H     H_    0.964008 0.856838 0.827866 0.247397
H83   H     H_    0.041379 0.909679 0.922260 0.208778
H84   H     H_    0.136401 0.906280 0.845776 0.206767
H85   H     H_    0.060601 0.852867 0.750901 0.239970
C122  C     C_3   0.885093 0.864027 0.152963 -0.379980
C123  C     C_3   0.906562 0.903782 0.088887 -0.244304
C124  C     C_3   0.966601 0.952327 0.159210 -0.906382
H86   H     H_    0.034677 0.937591 0.231997 0.273094
H87   H     H_    0.980623 0.979955 0.110160 0.251877
H88   H     H_    0.929185 0.975896 0.186152 0.262213
H89   H     H_    0.944302 0.881881 0.060169 0.250754
H90   H     H_    0.839768 0.919648 0.015263 0.192336
H91   H     H_    0.845510 0.886206 0.177944 0.199303
H92   H     H_    0.951986 0.850632 0.229780 0.212682
Cl1   Cl    Cl    0.097756 0.796420 0.158640 -0.742872
Cl2   Cl    Cl    0.765902 0.774120 0.694945 -0.702668
Cl3   Cl    Cl    0.592039 0.297380 0.149934 -0.704383
Cl4   Cl    Cl    0.375162 0.275453 0.830943 -0.716422
C125  C     C_3   0.964932 0.336554 0.203195 -0.482705
C126  C     C_3   0.065002 0.323328 0.240496 -0.194099
C127  C     C_3   0.119248 0.293703 0.351561 -0.871934
H93   H     H_    0.124915 0.319931 0.415946 0.242555
H94   H     H_    0.083451 0.254458 0.345954 0.249264
H95   H     H_    0.191117 0.284436 0.376134 0.292110
H96   H     H_    0.061177 0.296399 0.177979 0.237517
H97   H     H_    0.104081 0.361152 0.247429 0.226492
H98   H     H_    0.963622 0.357700 0.267928 0.191023
H99   H     H_    0.931457 0.295692 0.190320 0.203827
C128  C     C_3   0.019366 0.324397 0.806691 -0.483056
C129  C     C_3   0.915208 0.327437 0.758854 -0.189385
C130  C     C_3   0.856939 0.290376 0.658262 -0.868368
H100  H     H_    0.865037 0.303604 0.592302 0.243735
H101  H     H_    0.879327 0.246981 0.680834 0.254224
H102  H     H_    0.781636 0.293023 0.625847 0.288786
H103  H     H_    0.906418 0.313281 0.823572 0.247514
H104  H     H_    0.889726 0.370143 0.734160 0.209656
H105  H     H_    0.029809 0.331108 0.740776 0.186163
H106  H     H_    0.041213 0.281466 0.836104 0.206171
C131  C     C_3   0.463921 0.837274 0.203461 -0.480058
C132  C     C_3   0.563913 0.823636 0.241399 -0.251102
C133  C     C_3   0.617704 0.794424 0.352965 -0.768137
H107  H     H_    0.623277 0.821042 0.416829 0.254323
H108  H     H_    0.581623 0.755375 0.347778 0.244938
H109  H     H_    0.689629 0.784840 0.378103 0.290861
H110  H     H_    0.559956 0.796219 0.179405 0.242105
H111  H     H_    0.603207 0.861243 0.247822 0.233342
H112  H     H_    0.462558 0.858498 0.268065 0.192555
H113  H     H_    0.430539 0.796403 0.190430 0.204969
C134  C     C_3   0.508732 0.822288 0.808234 -0.502997
C135  C     C_3   0.407942 0.823394 0.773273 -0.181776
C136  C     C_3   0.346057 0.784802 0.675793 -0.858545
H114  H     H_    0.346967 0.797552 0.604349 0.245321
H115  H     H_    0.371287 0.741888 0.698970 0.249541
H116  H     H_    0.272460 0.785998 0.650127 0.297624
H117  H     H_    0.406967 0.809377 0.843950 0.238540
H118  H     H_    0.380047 0.865621 0.748092 0.217041
H119  H     H_    0.507278 0.832060 0.734675 0.198030
H120  H     H_    0.532664 0.779449 0.835759 0.209913
Cl5   Cl    Cl    0.741762 0.336210 0.787018 -0.793062
Cl6   Cl    Cl    0.235210 0.323165 0.205602 -0.774139
Cl7   Cl    Cl    0.234282 0.841283 0.785859 -0.801561
Cl8   Cl    Cl    0.731779 0.821759 0.207949 -0.769025

loop_
_geom_bond_atom_site_label_1
_geom_bond_atom_site_label_2
_ccdc_geom_bond_type
C63   C65   S    
N8    N28   A    
C22   C29   S    
C5    C37   S    
C134  C135  S    
C107  H59   S    
N28   Ni7   S    
C132  C133  S    
C105  H57   S    
C104  N28   A    
C55   C59   A    
C11   C76   S    
C10   C94   A    
C44   C50   A    
C128  C129  S    
C130  H102  S    
C14   C90   A    
C19   C20   S    
C129  C130  S    
C70   C74   A    
C62   Cl2   S    
C107  N31   A    
C113  H71   S    
C65   H25   S    
C128  H105  S    
C33   C59   A    
C34   C60   A    
C135  H117  S    
C18   C25   S    
C1    H1    S    
C117  C118  S    
C99   H55   S    
C25   C29   S    
C5    C101  A    
C27   C31   S    
C28   C32   S    
C47   N7    A    
C48   N8    A    
C91   N15   A    
C17   C21   S    
C64   C66   S    
C19   C23   S    
C118  H72   S    
C95   H51   S    
N15   Ni8   S    
C102  Cl6   S    
C116  C117  S    
C68   H24   S    
C119  H84   S    
C50   C54   A    
N17   Ni5   S    
C8    C104  A    
C21   H61   S    
C68   H28   S    
C24   H64   S    
C20   H8    S    
N13   N21   A    
C127  H94   S    
C129  H104  S    
C94   N18   A    
N5    N25   A    
C106  N30   A    
C36   C68   S    
C57   C61   S    
C18   H6    S    
C59   C63   S    
C62   C68   S    
C60   C64   S    
C86   H42   S    
C48   C134  S    
C101  N25   A    
C2    H2    S    
C49   C53   A    
N2    N30   A    
C51   C55   A    
C6    C102  A    
C13   C97   A    
C69   C70   A    
C77   H29   S    
N25   Ni6   S    
C15   C91   A    
C12   C75   S    
C73   C77   A    
C8    C40   S    
C75   C79   A    
C41   C51   A    
C42   C52   A    
C62   H18   S    
C108  N32   A    
C34   C66   S    
C114  H68   S    
C124  H86   S    
C136  H114  S    
C118  H74   S    
C125  C126  S    
C81   H37   S    
N2    Ni2   S    
N4    Ni4   S    
C69   C82   S    
C43   C119  S    
C44   C122  S    
C9    C85   A    
C66   H22   S    
C79   H31   S    
C31   C32   S    
C11   C87   A    
C80   H32   S    
C6    C38   S    
C67   H27   S    
C125  H98   S    
C61   H17   S    
C122  H92   S    
C16   C27   S    
N16   N24   A    
C132  H110  S    
C14   C25   S    
C7    C103  A    
C119  C120  S    
C133  H109  S    
C106  H58   S    
C14   C98   A    
C85   N9    A    
C12   C88   A    
C97   N21   A    
C126  H96   S    
C123  H89   S    
C16   C100  A    
C87   N11   A    
C113  C114  S    
C120  H82   S    
C96   H52   S    
C29   C30   S    
C19   C28   S    
C63   Cl3   S    
C61   C67   S    
C45   C125  S    
C83   C84   S    
C66   H26   S    
C35   C67   S    
C17   C18   S    
C121  H80   S    
C134  H120  S    
C117  H75   S    
C98   H54   S    
C100  N24   A    
C26   C30   S    
C108  H60   S    
C74   C78   A    
C13   C26   S    
N10   Ni1   S    
C9    C74   S    
C90   N14   A    
C105  C109  A    
C10   C86   A    
C124  H88   S    
C7    C39   S    
C56   C111  S    
C18   C22   S    
C107  C111  A    
N10   N18   A    
C24   C28   S    
C41   C113  S    
C126  C127  S    
C46   N6    A    
C71   C72   A    
C115  H67   S    
N29   Ni2   S    
C30   H10   S    
C130  H101  S    
C37   C41   A    
N22   Ni2   S    
N14   Ni5   S    
C40   C44   A    
C104  Cl8   S    
C133  H107  S    
N5    Ni5   S    
C2    N2    A    
C113  H70   S    
C58   C62   S    
C135  H118  S    
C121  H79   S    
C61   Cl1   S    
C52   H16   S    
C45   N5    A    
C127  H93   S    
C77   C78   A    
C116  H78   S    
C46   C128  S    
C88   H44   S    
C136  H116  S    
C78   H30   S    
C106  C110  A    
N20   Ni8   S    
C10   C73   S    
N8    Ni8   S    
C23   H63   S    
C21   C25   S    
C47   C131  S    
C1    C109  A    
C64   H20   S    
C3    C111  A    
C29   H9    S    
C69   C73   A    
C63   H19   S    
N16   Ni7   S    
N19   Ni7   S    
C17   H5    S    
C131  H113  S    
N11   N19   A    
C19   H7    S    
N7    Ni7   S    
C4    N4    A    
C82   H34   S    
C83   H39   S    
C84   H36   S    
C76   C80   A    
N27   Ni8   S    
C15   C99   A    
C115  H65   S    
C53   C57   A    
C5    C45   A    
C33   C37   A    
C108  C112  A    
C7    C47   A    
C67   H23   S    
C8    C48   A    
N3    N31   A    
C91   H47   S    
C128  H106  S    
C93   H49   S    
C86   N10   A    
C123  C124  S    
N14   N22   A    
C120  C121  S    
C2    C110  A    
C95   N19   A    
N6    N26   A    
C4    H4    S    
C93   N17   A    
C92   H48   S    
N18   Ni6   S    
C105  N29   A    
C20   C27   S    
C49   H13   S    
C21   C30   S    
C35   C57   A    
C51   H15   S    
C23   C32   S    
C102  N26   A    
C24   C31   S    
C118  H73   S    
C3    H3    S    
C15   C28   S    
N32   Ni3   S    
C97   H53   S    
N1    N29   A    
C119  H85   S    
N26   Ni5   S    
C72   C83   S    
C56   C60   A    
C96   N20   A    
N11   Ni4   S    
C22   C26   S    
C99   N23   A    
C89   N13   A    
N9    Ni2   S    
C12   C96   A    
C92   N16   A    
C122  H91   S    
C53   C110  S    
C127  H95   S    
C132  H111  S    
C129  H103  S    
N3    Ni3   S    
C55   C112  S    
C133  H108  S    
C32   H12   S    
C35   C39   A    
C72   C76   A    
C81   C82   S    
C33   C65   S    
C42   C116  S    
N24   Ni4   S    
C17   C26   S    
C135  C136  S    
N15   N23   A    
C38   C42   A    
C36   C58   A    
C126  H97   S    
N12   Ni3   S    
C123  H90   S    
C120  H83   S    
N1    Ni1   S    
C70   C81   S    
C3    N3    A    
C1    N1    A    
C20   C24   S    
C50   H14   S    
C23   C27   S    
C134  H119  S    
C94   H50   S    
C117  H76   S    
C103  Cl7   S    
C4    C112  A    
C22   H62   S    
C124  H87   S    
C98   N22   A    
C36   C40   A    
C43   C49   A    
C39   C43   A    
C131  C132  S    
C54   C109  S    
C90   H46   S    
C115  H66   S    
C130  H100  S    
C85   H41   S    
C89   H45   S    
C125  H99   S    
C82   H38   S    
C83   H35   S    
C84   H40   S    
C81   H33   S    
N31   Ni4   S    
C87   H43   S    
C9    C93   A    
C71   C84   S    
C54   C58   A    
C11   C95   A    
C6    C46   A    
C13   C89   A    
C34   C38   A    
C101  Cl5   S    
N9    N17   A    
C122  C123  S    
C16   C92   A    
C116  H77   S    
C100  H56   S    
N7    N27   A    
C31   H11   S    
C136  H115  S    
C71   C75   A    
N30   Ni1   S    
C114  C115  S    
C121  H81   S    
N23   Ni3   S    
C114  H69   S    
C103  N27   A    
N21   Ni1   S    
N13   Ni6   S    
C79   C80   A    
C52   C56   A    
C88   N12   A    
N12   N20   A    
N6    Ni6   S    
N4    N32   A    
C65   H21   S    
C64   Cl4   S    
C131  H112  S    
