data_mof_unit_34265.cif
_audit_creation_date              2012-10-26T19:04:44-0400
_audit_creation_method            fapswitch 2.2
_symmetry_space_group_name_H-M    P1
_symmetry_Int_Tables_number       1
_space_group_crystal_system       triclinic
_cell_length_a                    9.656421
_cell_length_b                    10.857096
_cell_length_c                    13.367582
_cell_angle_alpha                 94.413815
_cell_angle_beta                  73.414377
_cell_angle_gamma                 88.818841
_cell_volume                      1337.84359904

loop_
_atom_site_label
_atom_site_type_symbol
_atom_type_description
_atom_site_fract_x
_atom_site_fract_y
_atom_site_fract_z
_atom_type_partial_charge
C1    C     C_R   0.500170 0.737134 0.493901 0.548514
C2    C     C_R   0.387664 0.439782 0.804972 -0.028181
C3    C     C_R   0.243458 0.893084 0.475316 -0.076835
C4    C     C_R   0.425055 0.481429 0.696917 0.572041
C5    C     C_R   0.111627 0.962111 0.502905 0.104672
C6    C     C_R   0.100780 0.078246 0.557126 -0.084070
C7    C     C_R   0.223611 0.130487 0.573028 -0.111078
C8    C     C_R   0.360962 0.068880 0.531164 0.013575
C9    C     C_R   0.366667 0.942083 0.498490 0.006459
C10   C     C_R   0.496747 0.871735 0.487741 -0.012086
C11   C     C_R   0.624144 0.933013 0.483091 -0.139538
C12   C     C_R   0.448551 0.445323 0.970156 -0.022761
C13   C     C_R   0.623430 0.060790 0.493490 -0.151930
C14   C     C_R   0.492808 0.130097 0.516748 -0.018559
C15   C     C_R   0.903011 0.327879 0.367897 -0.109839
C16   C     C_R   0.497552 0.263593 0.507875 0.516195
C17   C     C_R   0.988140 0.228736 0.310188 0.184141
C18   C     C_R   0.129725 0.221131 0.307958 -0.081623
C19   C     C_R   0.191092 0.312017 0.359978 0.074615
C20   C     C_R   0.101561 0.411115 0.432154 0.132712
C21   C     C_R   0.951153 0.414383 0.433575 0.046048
C22   C     C_R   0.897394 0.577966 0.567187 0.190770
C23   C     C_R   0.493865 0.433376 0.859690 -0.015941
C24   C     C_R   0.046509 0.578582 0.566672 0.191457
C25   C     C_R   0.576883 0.504716 0.300541 0.539427
C26   C     C_R   0.800751 0.525381 0.020658 0.269408
C27   C     C_R   0.619171 0.509634 0.186414 -0.058964
C28   C     C_R   0.245872 0.406098 0.855418 0.296280
C29   C     C_R   0.206623 0.389052 0.963517 0.285231
C30   C     C_R   0.304557 0.417669 0.020994 -0.139757
C31   C     C_R   0.551937 0.476300 0.024496 0.005404
C32   C     C_R   0.699116 0.487295 0.967327 0.014379
C33   C     C_R   0.743732 0.446702 0.860748 -0.104058
C34   C     C_R   0.643516 0.408553 0.809401 0.128037
C35   C     C_R   0.513670 0.496109 0.133826 -0.153386
C36   C     C_R   0.761884 0.528249 0.129673 -0.049022
Cu1   Cu    Cu3+1 0.359340 0.500010 0.500010 1.012818
Cu2   Cu    Cu3+1 0.640660 0.499990 0.499990 0.941728
H1    H     H_    0.842722 0.548042 0.169938 0.158522
H2    H     H_    0.267951 0.409516 0.104162 0.091177
H3    H     H_    0.725482 0.881360 0.468644 0.166656
H4    H     H_    0.008218 0.823779 0.444511 0.228085
H5    H     H_    0.905824 0.913815 0.547880 0.208668
H6    H     H_    0.791114 0.637783 0.717293 0.205753
H7    H     H_    0.818451 0.749023 0.632780 0.198241
H8    H     H_    0.832403 0.156837 0.262276 0.322196
H9    H     H_    0.376155 0.210053 0.338610 0.221596
H10   H     H_    0.380759 0.306538 0.246998 0.200249
H11   H     H_    0.036097 0.640065 0.715391 0.217266
H12   H     H_    0.249393 0.805112 0.430576 0.147680
H13   H     H_    0.061922 0.751268 0.630506 0.205478
H14   H     H_    0.938230 0.587092 0.900838 0.318801
H15   H     H_    0.065575 0.343681 0.837646 0.368382
H16   H     H_    0.061175 0.340978 0.087105 0.332846
H17   H     H_    0.762057 0.362403 0.657897 0.266576
H18   H     H_    0.608594 0.281531 0.696933 0.243549
H19   H     H_    0.997837 0.129907 0.584122 0.135069
H20   H     H_    0.209608 0.219694 0.617309 0.182011
H21   H     H_    0.725561 0.105114 0.482635 0.165790
H22   H     H_    0.798617 0.332189 0.358844 0.193148
H23   H     H_    0.197460 0.146144 0.258346 0.156355
H24   H     H_    0.857165 0.433068 0.818692 0.138382
H25   H     H_    0.402156 0.498633 0.179865 0.138732
N1    N     N_R   0.852480 0.498790 0.499000 -0.236821
N2    N     N_R   0.148360 0.498710 0.498970 -0.207500
N3    N     N_3   0.987428 0.915251 0.477342 -0.624843
N4    N     N_3   0.790917 0.657502 0.642096 -0.549102
N5    N     N_3   0.344623 0.299828 0.327845 -0.530344
N6    N     N_3   0.090978 0.660575 0.639559 -0.546033
N7    N     N_3   0.694291 0.319939 0.719770 -0.620152
O1    O     O_R   0.381190 0.680360 0.500010 -0.492096
O2    O     O_3   0.937869 0.560038 0.969930 -0.663078
O3    O     O_3   0.150676 0.385355 0.796531 -0.703460
O4    O     O_3   0.071577 0.347257 0.011715 -0.671999
O5    O     O_R   0.618760 0.680340 0.500000 -0.471155
O6    O     O_R   0.323240 0.499990 0.650990 -0.412815
O7    O     O_R   0.560820 0.499960 0.650980 -0.484334
O8    O     O_R   0.381240 0.319660 0.500000 -0.479500
O9    O     O_R   0.618810 0.319640 0.499990 -0.553057
O10   O     O_R   0.439180 0.500040 0.349020 -0.472127
O11   O     O_R   0.676760 0.500010 0.349010 -0.532918
O12   O     O_3   0.937189 0.139967 0.251559 -0.676156

loop_
_geom_bond_atom_site_label_1
_geom_bond_atom_site_label_2
_ccdc_geom_bond_type
C26   C32   A    
C25   O10   A    
C26   O2    S    
C15   H22   S    
C19   C20   A    
C7    C8    A    
C12   C23   A    
C1    O1    A    
C3    C9    A    
C22   C24   A    
C28   C29   A    
Cu1   Cu2   S    
C17   O12   S    
C5    C6    A    
Cu2   O9    S    
C18   C19   A    
C21   N1    A    
H8    O12   S    
C8    C9    A    
Cu1   N2    S    
H7    N4    S    
H16   O4    S    
C9    C10   A    
C34   N7    S    
C7    H20   S    
C16   O8    A    
H11   N6    S    
C13   C14   A    
C25   O11   A    
C6    H19   S    
C28   O3    S    
C3    H12   S    
C24   N6    S    
C33   C34   A    
Cu2   N1    S    
Cu2   O5    S    
Cu1   O10   S    
C1    O5    A    
C20   N2    A    
C33   H24   S    
C29   O4    S    
C27   C35   A    
C2    C4    S    
C29   C30   A    
H14   O2    S    
C31   C32   A    
C23   C34   A    
C17   C18   A    
C30   H2    S    
C19   N5    S    
H10   N5    S    
C24   N2    A    
C26   C36   A    
Cu1   O6    S    
H18   N7    S    
Cu1   O1    S    
Cu2   O11   S    
C14   C16   S    
H9    N5    S    
C15   C17   A    
C8    C14   A    
C12   C30   A    
C36   H1    S    
H15   O3    S    
C1    C10   S    
C5    N3    S    
C3    C5    A    
C35   H25   S    
C18   H23   S    
C6    C7    A    
C13   H21   S    
Cu2   O7    S    
C27   C36   A    
C25   C27   S    
Cu1   O8    S    
C16   O9    A    
C32   C33   A    
C4    O7    A    
C12   C31   A    
C11   C13   A    
H5    N3    S    
C11   H3    S    
C31   C35   A    
C22   N4    S    
C4    O6    A    
H17   N7    S    
C10   C11   A    
C22   N1    A    
C15   C21   A    
C20   C21   A    
C2    C23   A    
H4    N3    S    
H6    N4    S    
C2    C28   A    
H13   N6    S    
