data_mof_unit_51239.cif
_audit_creation_date              2013-03-05T15:51:39-0500
_audit_creation_method            fapswitch 2.2
_symmetry_space_group_name_H-M    P1
_symmetry_Int_Tables_number       1
_space_group_crystal_system       triclinic
_cell_length_a                    30.145607
_cell_length_b                    22.491133
_cell_length_c                    18.21528
_cell_angle_alpha                 90.000724
_cell_angle_beta                  123.400347
_cell_angle_gamma                 90.002106
_cell_volume                      10310.4310741

loop_
_atom_site_label
_atom_site_type_symbol
_atom_site_description
_atom_site_fract_x
_atom_site_fract_y
_atom_site_fract_z
_atom_type_partial_charge
C1    C     C_R   0.534239 0.606488 0.711235 0.338477
C2    C     C_R   0.456830 0.419131 0.258955 0.303360
C3    C     C_R   0.465763 0.606493 0.288774 0.338486
C4    C     C_R   0.543148 0.419088 0.741001 0.303227
C5    C     C_R   0.034236 0.106497 0.711220 0.338453
C6    C     C_R   0.956828 0.919144 0.258948 0.303345
C7    C     C_R   0.965760 0.106505 0.288785 0.338402
C8    C     C_R   0.043169 0.919129 0.741041 0.303357
N1    N     N_R   0.532910 0.558440 0.665240 -0.054524
N2    N     N_R   0.467090 0.441560 0.334760 -0.055879
N3    N     N_R   0.467090 0.558440 0.334760 -0.054522
N4    N     N_R   0.532910 0.441560 0.665240 -0.055870
N5    N     N_R   0.032910 0.058440 0.665240 -0.054527
N6    N     N_R   0.967090 0.941560 0.334760 -0.055881
N7    N     N_R   0.967090 0.058440 0.334760 -0.054525
N8    N     N_R   0.032910 0.941560 0.665240 -0.055878
C9    C     C_R   0.645366 0.579646 0.574497 -0.031042
C10   C     C_R   0.371415 0.393536 0.424874 -0.039058
C11   C     C_R   0.354635 0.579643 0.425505 -0.031103
C12   C     C_R   0.628608 0.393559 0.575117 -0.039049
C13   C     C_R   0.145367 0.079643 0.574496 -0.031103
C14   C     C_R   0.871418 0.893534 0.424874 -0.038996
C15   C     C_R   0.854629 0.079620 0.425506 -0.031728
C16   C     C_R   0.128585 0.893540 0.575120 -0.039062
H1    H     H_    0.679237 0.573854 0.641184 0.117116
H2    H     H_    0.344344 0.382094 0.356618 0.122168
H3    H     H_    0.320764 0.573848 0.358818 0.117124
H4    H     H_    0.655704 0.382128 0.643370 0.122021
H5    H     H_    0.179238 0.073849 0.641183 0.117121
H6    H     H_    0.844349 0.882091 0.356619 0.122172
H7    H     H_    0.820765 0.073773 0.358828 0.117935
H8    H     H_    0.155657 0.882099 0.643374 0.122161
N9    N     N_R   0.597030 0.558910 0.545540 -0.055124
N10   N     N_R   0.402970 0.441090 0.454460 -0.052986
N11   N     N_R   0.402970 0.558910 0.454460 -0.055115
N12   N     N_R   0.597030 0.441090 0.545540 -0.052971
N13   N     N_R   0.097030 0.058910 0.545540 -0.055122
N14   N     N_R   0.902970 0.941090 0.454460 -0.052965
N15   N     N_R   0.902970 0.058910 0.454460 -0.055141
N16   N     N_R   0.097030 0.941090 0.545540 -0.052985
C17   C     C_R   0.598028 0.579616 0.429438 -0.123555
C18   C     C_R   0.420673 0.391601 0.571732 -0.141528
C19   C     C_R   0.401974 0.579618 0.570564 -0.123553
C20   C     C_R   0.579337 0.391619 0.428255 -0.141461
C21   C     C_R   0.098028 0.079615 0.429438 -0.123592
C22   C     C_R   0.920677 0.891599 0.571733 -0.141439
C23   C     C_R   0.901969 0.079597 0.570563 -0.123438
C24   C     C_R   0.079323 0.891604 0.428260 -0.141446
H9    H     H_    0.590592 0.573164 0.365094 0.110596
H10   H     H_    0.437906 0.377626 0.638576 0.126022
H11   H     H_    0.409411 0.573168 0.634908 0.110595
H12   H     H_    0.562106 0.377648 0.361407 0.126025
H13   H     H_    0.090591 0.073166 0.365092 0.110606
H14   H     H_    0.937915 0.877622 0.638579 0.126002
H15   H     H_    0.909416 0.073136 0.634911 0.110573
H16   H     H_    0.062086 0.877631 0.361411 0.125990
N17   N     N_R   0.566200 0.559270 0.454460 -0.044368
N18   N     N_R   0.433800 0.440730 0.545540 -0.047667
N19   N     N_R   0.433800 0.559270 0.545540 -0.044364
N20   N     N_R   0.566200 0.440730 0.454460 -0.047670
N21   N     N_R   0.066200 0.059270 0.454460 -0.044370
N22   N     N_R   0.933800 0.940730 0.545540 -0.047656
N23   N     N_R   0.933800 0.059270 0.545540 -0.044356
N24   N     N_R   0.066200 0.940730 0.454460 -0.047665
C25   C     C_R   0.394398 0.609690 0.296884 -0.184181
C26   C     C_R   0.617073 0.414843 0.741042 -0.214392
C27   C     C_R   0.605605 0.609692 0.703123 -0.184173
C28   C     C_R   0.382909 0.414894 0.258923 -0.214382
C29   C     C_R   0.894394 0.109682 0.296893 -0.184331
C30   C     C_R   0.117088 0.914893 0.741072 -0.214372
C31   C     C_R   0.105601 0.109696 0.703110 -0.184193
C32   C     C_R   0.882907 0.914905 0.258915 -0.214338
H17   H     H_    0.358949 0.622841 0.293417 0.151351
H18   H     H_    0.658693 0.414381 0.764513 0.130445
H19   H     H_    0.641054 0.622844 0.706593 0.151331
H20   H     H_    0.341292 0.414468 0.235469 0.130465
H21   H     H_    0.858949 0.122838 0.293442 0.151475
H22   H     H_    0.158705 0.914464 0.764524 0.130462
H23   H     H_    0.141050 0.122847 0.706575 0.151344
H24   H     H_    0.841290 0.914481 0.235463 0.130501
N25   N     N_R   0.421050 0.559750 0.334770 -0.057628
N26   N     N_R   0.578950 0.440250 0.665230 -0.057107
N27   N     N_R   0.578950 0.559750 0.665230 -0.057628
N28   N     N_R   0.421050 0.440250 0.334770 -0.057140
N29   N     N_R   0.921050 0.059750 0.334770 -0.057605
N30   N     N_R   0.078950 0.940250 0.665230 -0.057135
N31   N     N_R   0.078950 0.059750 0.665230 -0.057625
N32   N     N_R   0.921050 0.940250 0.334770 -0.057143
C33   C     C_R   0.578197 0.641361 0.731920 0.013242
C34   C     C_R   0.404657 0.399191 0.210895 0.022792
C35   C     C_R   0.421806 0.641361 0.268091 0.013246
C36   C     C_R   0.595298 0.399102 0.789015 0.022773
C37   C     C_R   0.078192 0.141369 0.731897 0.013236
C38   C     C_R   0.904652 0.899212 0.210879 0.022779
C39   C     C_R   0.921794 0.141349 0.268093 0.013248
C40   C     C_R   0.095339 0.899187 0.789097 0.022791
C41   C     C_R   0.647229 0.594726 0.503318 0.097173
C42   C     C_R   0.381577 0.361233 0.496957 0.085700
C43   C     C_R   0.352774 0.594726 0.496685 0.097130
C44   C     C_R   0.618448 0.361269 0.503023 0.085803
C45   C     C_R   0.147230 0.094723 0.503317 0.097160
C46   C     C_R   0.881582 0.861230 0.496958 0.085636
C47   C     C_R   0.852756 0.094680 0.496686 0.096580
C48   C     C_R   0.118421 0.861239 0.503032 0.085676
Ni1   Ni    Ni4+2 0.483090 0.500000 0.604440 0.209706
Ni2   Ni    Ni4+2 0.516910 0.500000 0.395560 0.209716
Ni3   Ni    Ni4+2 0.983090 1.000000 0.604440 0.209703
Ni4   Ni    Ni4+2 0.016910 0.000000 0.395560 0.209696
Ni5   Ni    Ni4+2 0.586780 0.500000 0.604440 0.225026
Ni6   Ni    Ni4+2 0.413220 0.500000 0.395560 0.225000
Ni7   Ni    Ni4+2 0.086780 1.000000 0.604440 0.224995
Ni8   Ni    Ni4+2 0.913220 0.000000 0.395560 0.225095
C49   C     C_R   0.218861 0.661344 0.419981 -0.246694
C50   C     C_R   0.716085 0.234393 0.576998 -0.254140
C51   C     C_R   0.781144 0.661347 0.580018 -0.246672
C52   C     C_R   0.284014 0.234249 0.422918 -0.253995
C53   C     C_R   0.718748 0.161067 0.419907 -0.246685
C54   C     C_R   0.215993 0.734277 0.577067 -0.253999
C55   C     C_R   0.281146 0.161341 0.580016 -0.246698
C56   C     C_R   0.784019 0.734245 0.422920 -0.253989
H25   H     H_    0.190269 0.690936 0.368458 0.163509
H26   H     H_    0.757896 0.226095 0.625167 0.170443
H27   H     H_    0.809735 0.690948 0.631533 0.163505
H28   H     H_    0.242220 0.225905 0.374683 0.170409
H29   H     H_    0.690083 0.190529 0.368241 0.163020
H30   H     H_    0.257788 0.725941 0.625301 0.170412
H31   H     H_    0.309738 0.190940 0.631533 0.163506
H32   H     H_    0.742225 0.725901 0.374684 0.170405
C57   C     C_R   0.263416 0.644383 0.420423 0.380401
C58   C     C_R   0.695550 0.290349 0.574680 0.347434
C59   C     C_R   0.736587 0.644391 0.579574 0.380393
C60   C     C_R   0.304533 0.290210 0.425197 0.347450
C61   C     C_R   0.763275 0.144074 0.420299 0.380807
C62   C     C_R   0.195471 0.790235 0.574783 0.347448
C63   C     C_R   0.236590 0.144384 0.579574 0.380398
C64   C     C_R   0.804539 0.790205 0.425198 0.347426
C65   C     C_R   0.304072 0.611148 0.492276 -0.042009
C66   C     C_R   0.642351 0.303574 0.506848 -0.032668
C67   C     C_R   0.695932 0.611144 0.507728 -0.042003
C68   C     C_R   0.357698 0.303510 0.493118 -0.032645
C69   C     C_R   0.804042 0.111038 0.492294 -0.041766
C70   C     C_R   0.142304 0.803522 0.506865 -0.032647
C71   C     C_R   0.195933 0.111140 0.507726 -0.042016
C72   C     C_R   0.857703 0.803506 0.493120 -0.032641
C73   C     C_R   0.297747 0.594007 0.560238 -0.169836
C74   C     C_R   0.611087 0.260139 0.443657 -0.197358
C75   C     C_R   0.702262 0.593985 0.439778 -0.169723
C76   C     C_R   0.388948 0.260128 0.556417 -0.197313
C77   C     C_R   0.797825 0.094067 0.560434 -0.169789
C78   C     C_R   0.111056 0.760134 0.443571 -0.197301
C79   C     C_R   0.202260 0.093985 0.439771 -0.169813
C80   C     C_R   0.888952 0.760126 0.556422 -0.197299
H33   H     H_    0.327432 0.567352 0.614864 0.134720
H34   H     H_    0.570082 0.269120 0.392059 0.134275
H35   H     H_    0.672578 0.567320 0.385159 0.134726
H36   H     H_    0.429929 0.269157 0.608082 0.134222
H37   H     H_    0.827584 0.067550 0.615178 0.134665
H38   H     H_    0.070074 0.769154 0.391907 0.134245
H39   H     H_    0.172574 0.067323 0.385150 0.134724
H40   H     H_    0.929932 0.769155 0.608089 0.134239
C81   C     C_R   0.254374 0.614156 0.561155 -0.151846
C82   C     C_R   0.633077 0.205549 0.444303 -0.157255
C83   C     C_R   0.745637 0.614129 0.438862 -0.151826
C84   C     C_R   0.366965 0.205540 0.555809 -0.157304
C85   C     C_R   0.754470 0.114239 0.561382 -0.152023
C86   C     C_R   0.133042 0.705549 0.444182 -0.157310
C87   C     C_R   0.245634 0.114130 0.438853 -0.151834
C88   C     C_R   0.866968 0.705539 0.555817 -0.157299
H41   H     H_    0.753117 0.106044 0.618729 0.134995
H42   H     H_    0.109906 0.674629 0.390583 0.134955
H43   H     H_    0.247077 0.105768 0.381630 0.134988
H44   H     H_    0.890104 0.674627 0.609424 0.134963
H45   H     H_    0.252933 0.605803 0.618380 0.134985
H46   H     H_    0.609913 0.174575 0.390795 0.134945
H47   H     H_    0.747083 0.605763 0.381643 0.134983
H48   H     H_    0.390102 0.174627 0.609413 0.134956
C89   C     C_R   0.216091 0.650266 0.492874 0.077326
C90   C     C_R   0.686220 0.193268 0.509501 0.082706
C91   C     C_R   0.783919 0.650252 0.507133 0.077325
C92   C     C_R   0.313846 0.193202 0.490543 0.082617
C93   C     C_R   0.716103 0.150211 0.492975 0.077496
C94   C     C_R   0.186162 0.693221 0.509449 0.082616
C95   C     C_R   0.283918 0.150250 0.507127 0.077329
C96   C     C_R   0.813850 0.693201 0.490550 0.082609
C97   C     C_R   0.406290 0.701211 0.226992 0.133225
C98   C     C_R   0.623513 0.373558 0.878196 0.141343
C99   C     C_R   0.593708 0.701217 0.773012 0.133220
C100  C     C_R   0.376378 0.373769 0.121615 0.141296
C101  C     C_R   0.906240 0.201173 0.226963 0.133215
C102  C     C_R   0.123614 0.873754 0.878367 0.141304
C103  C     C_R   0.093704 0.201227 0.772982 0.133231
C104  C     C_R   0.876370 0.873804 0.121588 0.141288
C105  C     C_R   0.423448 0.794569 0.179083 -0.194402
C106  C     C_R   0.621499 0.313663 0.986858 -0.201734
C107  C     C_R   0.576547 0.794557 0.820957 -0.194398
C108  C     C_R   0.378283 0.314170 0.012600 -0.201687
C109  C     C_R   0.923387 0.294684 0.179393 -0.194389
C110  C     C_R   0.121701 0.814130 0.987352 -0.201708
C111  C     C_R   0.076546 0.294579 0.820905 -0.194404
C112  C     C_R   0.878269 0.814230 0.012546 -0.201694
C113  C     C_R   0.441346 0.739651 0.221876 -0.153498
C114  C     C_R   0.595406 0.340133 0.904737 -0.156467
C115  C     C_R   0.558654 0.739637 0.778161 -0.153495
C116  C     C_R   0.404434 0.340499 0.094826 -0.156564
C117  C     C_R   0.941312 0.239733 0.222084 -0.153449
C118  C     C_R   0.095554 0.840476 0.905141 -0.156573
C119  C     C_R   0.058650 0.239657 0.778112 -0.153562
C120  C     C_R   0.904424 0.840555 0.094775 -0.156608
C121  C     C_R   0.355063 0.721292 0.195847 -0.222985
C122  C     C_R   0.678783 0.378900 0.934644 -0.243634
C123  C     C_R   0.644924 0.721325 0.804118 -0.222985
C124  C     C_R   0.321092 0.379068 0.065297 -0.243467
C125  C     C_R   0.854948 0.221111 0.195600 -0.223221
C126  C     C_R   0.178901 0.879046 0.934684 -0.243475
C127  C     C_R   0.144925 0.221324 0.804104 -0.222980
C128  C     C_R   0.821083 0.879091 0.065287 -0.243449
C129  C     C_R   0.337977 0.778001 0.159732 0.088356
C130  C     C_R   0.706583 0.348133 0.015185 0.083682
C131  C     C_R   0.662004 0.778035 0.840241 0.088340
C132  C     C_R   0.293240 0.348417 0.984654 0.083710
C133  C     C_R   0.837837 0.277845 0.159649 0.088491
C134  C     C_R   0.206749 0.848381 0.015312 0.083714
C135  C     C_R   0.162010 0.278035 0.840222 0.088336
C136  C     C_R   0.793228 0.848444 0.984640 0.083708
C137  C     C_R   0.371085 0.812988 0.144869 0.172622
C138  C     C_R   0.676803 0.315481 0.040828 0.154812
C139  C     C_R   0.628902 0.812999 0.855143 0.172607
C140  C     C_R   0.322974 0.315950 0.958757 0.154548
C141  C     C_R   0.870981 0.313001 0.145062 0.172621
C142  C     C_R   0.177011 0.815904 0.041194 0.154563
C143  C     C_R   0.128905 0.313010 0.855106 0.172634
C144  C     C_R   0.822959 0.815993 0.958723 0.154558
C145  C     C_R   0.286275 0.797493 0.129728 0.033148
C146  C     C_R   0.762821 0.342698 0.065566 0.072361
C147  C     C_R   0.713699 0.797550 0.870224 0.033147
C148  C     C_R   0.237005 0.342912 0.934391 0.072393
C149  C     C_R   0.786094 0.297219 0.129560 0.033360
C150  C     C_R   0.262983 0.842875 0.065573 0.072385
C151  C     C_R   0.213709 0.297537 0.870220 0.033142
C152  C     C_R   0.736994 0.842925 0.934396 0.072363
C153  C     C_R   0.796393 0.377859 0.051399 -0.183875
C154  C     C_R   0.256758 0.771364 0.160053 -0.159218
C155  C     C_R   0.203465 0.377894 0.948834 -0.183771
C156  C     C_R   0.743206 0.771449 0.839864 -0.159227
C157  C     C_R   0.296527 0.877867 0.051148 -0.183767
C158  C     C_R   0.756523 0.270879 0.159644 -0.159224
C159  C     C_R   0.703455 0.877894 0.948857 -0.183741
C160  C     C_R   0.243221 0.271422 0.839878 -0.159241
C161  C     C_R   0.850430 0.364452 0.093855 -0.196223
C162  C     C_R   0.202820 0.781586 0.117269 -0.186665
C163  C     C_R   0.149452 0.364395 0.906480 -0.196134
C164  C     C_R   0.797142 0.781687 0.882630 -0.186633
C165  C     C_R   0.350541 0.864375 0.093506 -0.196125
C166  C     C_R   0.702572 0.281032 0.116774 -0.186945
C167  C     C_R   0.649445 0.864383 0.906519 -0.196088
C168  C     C_R   0.297160 0.281645 0.882664 -0.186642
H49   H     H_    0.875317 0.392278 0.082226 0.142651
H50   H     H_    0.180669 0.758654 0.139560 0.176003
H51   H     H_    0.124589 0.392082 0.918330 0.142696
H52   H     H_    0.819288 0.758776 0.860313 0.176006
H53   H     H_    0.375407 0.892071 0.081671 0.142700
H54   H     H_    0.680389 0.257943 0.138878 0.175602
H55   H     H_    0.624583 0.892061 0.918382 0.142730
H56   H     H_    0.319308 0.258722 0.860362 0.176012
H57   H     H_    0.699685 0.403602 0.912094 0.123320
H58   H     H_    0.326922 0.690932 0.194208 0.131554
H59   H     H_    0.300220 0.403645 0.088010 0.123286
H60   H     H_    0.673064 0.690984 0.805724 0.131584
H61   H     H_    0.199776 0.903628 0.911981 0.123287
H62   H     H_    0.826796 0.190626 0.193696 0.131480
H63   H     H_    0.800212 0.903654 0.088014 0.123309
H64   H     H_    0.173066 0.190975 0.805727 0.131581
H65   H     H_    0.553505 0.331526 0.860731 0.130085
H66   H     H_    0.482261 0.727770 0.249843 0.146456
H67   H     H_    0.446342 0.331902 0.138699 0.130273
H68   H     H_    0.517745 0.727740 0.750219 0.146452
H69   H     H_    0.053643 0.831886 0.861266 0.130259
H70   H     H_    0.982258 0.227920 0.250177 0.146400
H71   H     H_    0.946337 0.831971 0.138631 0.130297
H72   H     H_    0.017738 0.227767 0.750159 0.146440
H73   H     H_    0.450210 0.822106 0.171600 0.138959
H74   H     H_    0.598697 0.287727 0.005141 0.131300
H75   H     H_    0.549788 0.822077 0.828467 0.138955
H76   H     H_    0.401053 0.288364 0.994123 0.131301
H77   H     H_    0.950168 0.322337 0.172107 0.138936
H78   H     H_    0.098928 0.788318 0.005818 0.131293
H79   H     H_    0.049786 0.322107 0.828401 0.138952
H80   H     H_    0.901037 0.788439 0.994052 0.131294
H81   H     H_    0.781947 0.416421 0.009144 0.136881
H82   H     H_    0.274999 0.742225 0.216396 0.215748
H83   H     H_    0.217914 0.416384 0.991234 0.136902
H84   H     H_    0.724961 0.742318 0.783509 0.215745
H85   H     H_    0.282081 0.916362 0.008762 0.136905
H86   H     H_    0.774723 0.241619 0.215851 0.215589
H87   H     H_    0.717902 0.916383 0.991258 0.136952
H88   H     H_    0.224977 0.242290 0.783524 0.215756
C169  C     C_3   0.505161 0.611065 0.756184 -1.062571
H89   H     H_    0.532570 0.626816 0.824781 0.262267
H90   H     H_    0.471633 0.642746 0.721005 0.251926
H91   H     H_    0.490555 0.566933 0.760270 0.256034
C170  C     C_3   0.488687 0.436572 0.221581 -1.063213
H92   H     H_    0.507925 0.397518 0.213472 0.239844
H93   H     H_    0.462843 0.459142 0.157248 0.269742
H94   H     H_    0.520863 0.467581 0.266995 0.252105
C171  C     C_3   0.494851 0.611090 0.243843 -1.062559
H95   H     H_    0.467449 0.626854 0.175253 0.262261
H96   H     H_    0.528380 0.642773 0.279046 0.251942
H97   H     H_    0.509455 0.566966 0.239735 0.256036
C172  C     C_3   0.511313 0.436516 0.778423 -1.062987
H98   H     H_    0.492095 0.397458 0.786568 0.239858
H99   H     H_    0.537175 0.459087 0.842753 0.269729
H100  H     H_    0.479130 0.467522 0.733032 0.252057
C173  C     C_3   0.005150 0.111093 0.756155 -1.062606
H101  H     H_    0.032552 0.126868 0.824741 0.262279
H102  H     H_    0.971617 0.142765 0.720947 0.251908
H103  H     H_    0.990553 0.066966 0.760274 0.256040
C174  C     C_3   0.988686 0.936601 0.221580 -1.063206
H104  H     H_    0.007942 0.897556 0.213495 0.239822
H105  H     H_    0.962837 0.959157 0.157237 0.269732
H106  H     H_    0.020846 0.967630 0.266986 0.252123
C175  C     C_3   0.994866 0.111160 0.243892 -1.062389
H107  H     H_    0.967473 0.126956 0.175317 0.262253
H108  H     H_    0.028383 0.142854 0.279138 0.251970
H109  H     H_    0.009478 0.067049 0.239745 0.255995
C176  C     C_3   0.011312 0.936565 0.778418 -1.063227
H110  H     H_    0.992071 0.897510 0.786519 0.239835
H111  H     H_    0.037158 0.959133 0.842756 0.269742
H112  H     H_    0.979139 0.967575 0.733010 0.252110
N33   N     N_R   0.269370 0.667693 0.353031 0.208973
O1    O     O_R   0.311012 0.699290 0.374451 -0.439931
O2    O     O_R   0.229280 0.666731 0.271430 -0.453136
N34   N     N_R   0.731074 0.334775 0.635390 0.220858
O3    O     O_R   0.734610 0.386296 0.606443 -0.395939
O4    O     O_R   0.766300 0.320442 0.716692 -0.403885
N35   N     N_R   0.730626 0.667717 0.646952 0.208978
O5    O     O_R   0.688978 0.699304 0.625514 -0.439952
O6    O     O_R   0.770715 0.666779 0.728556 -0.453105
N36   N     N_R   0.269008 0.334574 0.364359 0.220788
O7    O     O_R   0.265329 0.386079 0.393187 -0.395946
O8    O     O_R   0.233902 0.320182 0.283025 -0.403957
N37   N     N_R   0.769094 0.167178 0.352676 0.208709
O9    O     O_R   0.810419 0.199283 0.373751 -0.440086
O10   O     O_R   0.729144 0.165283 0.270975 -0.452499
N38   N     N_R   0.230995 0.834608 0.635615 0.220793
O11   O     O_R   0.234665 0.886114 0.606780 -0.395938
O12   O     O_R   0.266106 0.820225 0.716948 -0.403962
N39   N     N_R   0.230632 0.167706 0.646957 0.208977
O13   O     O_R   0.188988 0.199297 0.625526 -0.439976
O14   O     O_R   0.270722 0.166761 0.728560 -0.453121
N40   N     N_R   0.769013 0.834569 0.364356 0.220799
O15   O     O_R   0.765332 0.886073 0.393182 -0.395817
O16   O     O_R   0.733911 0.820175 0.283022 -0.403914

loop_
_geom_bond_atom_site_label_1
_geom_bond_atom_site_label_2
_geom_bond_distance
_ccdc_geom_bond_type
C49   C89   1.397891 A    
C108  C140  1.393955 A    
C10   C42   1.379450 A    
C110  C118  1.383987 A    
C169  H90   1.107661 S    
C53   C61   1.391904 A    
C18   N18   1.346476 A    
C170  H92   1.106330 S    
C22   N22   1.346468 A    
C19   C43   1.388815 A    
N15   N23   1.385165 A    
C107  C115  1.400493 A    
C165  H53   1.083636 S    
C89   C94   1.462352 S    
C14   N14   1.332185 A    
C105  C113  1.400500 A    
C98   C114  1.402771 A    
C2    C34   1.387527 A    
C111  C143  1.403096 A    
C126  C134  1.407142 A    
C140  C168  1.390841 A    
C102  C118  1.402766 A    
C15   C47   1.370970 A    
C116  H67   1.077306 S    
C6    C38   1.387531 A    
C28   C34   1.396907 A    
C144  C164  1.390846 A    
C4    N4    1.336503 A    
C75   H35   1.081676 S    
C5    N5    1.354419 A    
N7    N29   1.388318 A    
C32   C38   1.396916 A    
C71   C79   1.406198 A    
C8    N8    1.336603 A    
C50   C58   1.392878 A    
C17   H9    1.075055 S    
C54   C94   1.399585 A    
C85   H41   1.083367 S    
C121  H58   1.076508 S    
C51   H27   1.084500 S    
C153  C161  1.398447 A    
C129  C145  1.407947 A    
N35   O6    1.301025 A    
C11   C43   1.370905 A    
C87   H43   1.083334 S    
C124  C132  1.407142 A    
C108  H76   1.084275 S    
C157  C165  1.398406 A    
C158  H86   1.078849 S    
C118  H69   1.077304 S    
C133  C149  1.407885 A    
C151  C160  1.408303 A    
C146  C149  1.413154 A    
C15   H7    1.081424 S    
N7    Ni4   1.838110 S    
C174  H106  1.108197 S    
C128  C136  1.407144 A    
C4    C172  1.503165 S    
C26   N26   1.344270 A    
C114  H65   1.077381 S    
C74   H34   1.083078 S    
C61   N37   1.433854 S    
C109  H77   1.083559 S    
C3    C171  1.496515 S    
C77   C85   1.392550 A    
N1    N27   1.388319 A    
C34   C100  1.473763 S    
C99   C123  1.395056 A    
C168  H56   1.084086 S    
C97   C121  1.395042 A    
C81   C89   1.399356 A    
C58   C66   1.416158 A    
C164  H52   1.084089 S    
C170  H94   1.108189 S    
C1    C169  1.496515 S    
C25   C35   1.393628 A    
C105  H73   1.083530 S    
C112  H80   1.084277 S    
C29   C39   1.393471 A    
C7    C39   1.401065 A    
C31   C37   1.393639 A    
C107  C139  1.403088 A    
C9    H1    1.081455 S    
C105  C137  1.403099 A    
C135  C151  1.407942 A    
C100  C124  1.400671 A    
C106  C138  1.393955 A    
C73   C81   1.392572 A    
C79   C87   1.392572 A    
C150  C157  1.415430 A    
N40   O15   1.301554 A    
N13   Ni7   1.834947 S    
C3    N3    1.354426 A    
N6    N32   1.388316 A    
N35   O5    1.301444 A    
C57   C65   1.417012 A    
N25   Ni6   1.837262 S    
C137  C165  1.398844 A    
C175  H107  1.110314 S    
N10   N18   1.385166 A    
C11   N11   1.331435 A    
C112  C144  1.393957 A    
C130  C138  1.423033 A    
C141  C161  1.398859 A    
C122  C130  1.407097 A    
C79   H39   1.081676 S    
C121  C129  1.397078 A    
N14   N22   1.385166 A    
C27   N27   1.331564 A    
C7    C175  1.496496 S    
C147  C152  1.413205 A    
C29   H21   1.076677 S    
C86   C94   1.399484 A    
N29   Ni8   1.837264 S    
C143  C163  1.398849 A    
C31   H23   1.076634 S    
C27   H19   1.076634 S    
N11   N19   1.385165 A    
C36   C98   1.473503 S    
C173  H102  1.107666 S    
N1    Ni1   1.838011 S    
C26   H18   1.080054 S    
C40   C102  1.473760 S    
C176  H111  1.110302 S    
C78   H38   1.083074 S    
C50   C90   1.399625 A    
C152  C159  1.415429 A    
C54   C62   1.392891 A    
C5    C173  1.496515 S    
C163  H51   1.083637 S    
C20   H12   1.074637 S    
C63   C71   1.417006 A    
N17   Ni2   1.838643 S    
C21   H13   1.075052 S    
N33   O2    1.301024 A    
C46   C72   1.467336 S    
C47   C69   1.472740 S    
N24   Ni4   1.838743 S    
N37   O10   1.301411 A    
C155  C163  1.398409 A    
N4    N26   1.388321 A    
C76   C84   1.392303 A    
N26   Ni5   1.837264 S    
C131  C147  1.407948 A    
C62   N38   1.436696 S    
N34   O3    1.301547 A    
C26   C36   1.396905 A    
C153  H81   1.079472 S    
C100  C116  1.402769 A    
N32   Ni8   1.837257 S    
C30   C40   1.396905 A    
C6    N6    1.336595 A    
C136  C152  1.420770 A    
C52   C60   1.392893 A    
C175  H109  1.104824 S    
N5    N31   1.388319 A    
C103  C119  1.407582 A    
C56   C96   1.399585 A    
C8    C176  1.503150 S    
C101  C125  1.394912 A    
C18   H10   1.074631 S    
C86   H42   1.083294 S    
N36   O8    1.301316 A    
C83   C91   1.399357 A    
N10   Ni6   1.834948 S    
C17   C41   1.388805 A    
N2    Ni2   1.838012 S    
C108  C116  1.383987 A    
N14   Ni8   1.834948 S    
N20   Ni2   1.838743 S    
C91   C96   1.462353 S    
C14   H6    1.077444 S    
C109  C141  1.403205 A    
C115  H68   1.077233 S    
C28   H20   1.080035 S    
C123  C131  1.397093 A    
C148  C151  1.413202 A    
N18   Ni1   1.838643 S    
N30   Ni7   1.837265 S    
C32   H24   1.080036 S    
C75   C83   1.392569 A    
C20   C44   1.393943 A    
C66   C74   1.404646 A    
C7    N7    1.354476 A    
C171  H96   1.107665 S    
C82   C90   1.399474 A    
C59   C67   1.417006 A    
C145  C154  1.408306 A    
C58   N34   1.436729 S    
N38   O11   1.301555 A    
C134  C142  1.422933 A    
C112  C120  1.383995 A    
C106  H74   1.084302 S    
C43   C65   1.472597 S    
C110  H78   1.084275 S    
C9    C41   1.370901 A    
C41   C67   1.472583 S    
C129  C137  1.409303 A    
C119  H72   1.077238 S    
C55   H31   1.084500 S    
C120  H71   1.077302 S    
C109  C117  1.400580 A    
C10   H2    1.077441 S    
C29   N29   1.331409 A    
C74   C82   1.392291 A    
N19   Ni1   1.838740 S    
C148  C155  1.415432 A    
C65   C73   1.406198 A    
C18   C42   1.394008 A    
C23   N23   1.348750 A    
N4    Ni1   1.838111 S    
C24   N24   1.346463 A    
N31   Ni7   1.837256 S    
C106  C114  1.383966 A    
C99   C115  1.407581 A    
C132  C140  1.422936 A    
C3    C35   1.401176 A    
C169  H89   1.110313 S    
C97   C113  1.407574 A    
C174  H105  1.110304 S    
N8    Ni3   1.838111 S    
C103  C127  1.395048 A    
C125  C133  1.396903 A    
C101  C117  1.407555 A    
C125  H62   1.076618 S    
C37   C103  1.485185 S    
C1    C33   1.401179 A    
C127  H64   1.076504 S    
C128  H63   1.076655 S    
C84   C92   1.399483 A    
N6    Ni4   1.838012 S    
C35   C97   1.485170 S    
C83   H47   1.083335 S    
N8    N30   1.388321 A    
C33   C99   1.485193 S    
C9    N9    1.331437 A    
C80   C88   1.392305 A    
C135  C143  1.409300 A    
C170  H93   1.110303 S    
C23   C47   1.388868 A    
C28   N28   1.344236 A    
C1    N1    1.354394 A    
N39   O13   1.301445 A    
N22   Ni3   1.838643 S    
C158  C166  1.381599 A    
C172  H98   1.106322 S    
C55   C63   1.392010 A    
C56   C64   1.392890 A    
C154  C162  1.381663 A    
C145  C150  1.413204 A    
C62   C70   1.416215 A    
C81   H45   1.083335 S    
C25   N25   1.331550 A    
C12   C44   1.379454 A    
C22   H14   1.074632 S    
N3    Ni2   1.838110 S    
C110  C142  1.393955 A    
N40   O16   1.301317 A    
N11   Ni6   1.834943 S    
C44   C66   1.467208 S    
C31   N31   1.331556 A    
N15   Ni8   1.834943 S    
C122  H57   1.076730 S    
C55   C95   1.397896 A    
C98   C122  1.400555 A    
C48   C70   1.467330 S    
C64   N40   1.436695 S    
C155  H83   1.079450 S    
C52   H28   1.084349 S    
C161  H49   1.083672 S    
N16   N24   1.385165 A    
C56   H32   1.084349 S    
C60   C68   1.416213 A    
C12   H4    1.077462 S    
C61   C69   1.416991 A    
C63   N39   1.434083 S    
C70   C78   1.404667 A    
C17   N17   1.348772 A    
C64   C72   1.416217 A    
C19   H11   1.075049 S    
C173  H101  1.110311 S    
C13   H5    1.081455 S    
C20   N20   1.346437 A    
C21   N21   1.348774 A    
C149  C158  1.408435 A    
C84   H48   1.083294 S    
C2    C170  1.503149 S    
C176  H110  1.106330 S    
C147  C156  1.408306 A    
C90   C93   1.462378 S    
C12   N12   1.332187 A    
C88   H44   1.083295 S    
C13   N13   1.331438 A    
C72   C80   1.404672 A    
C171  H95   1.110312 S    
C133  C141  1.409352 A    
C76   H36   1.083075 S    
C131  C139  1.409305 A    
C77   H37   1.081671 S    
C4    C36   1.387342 A    
C78   C86   1.392307 A    
C80   H40   1.083074 S    
C30   H22   1.080037 S    
N33   O1    1.301448 A    
C8    C40   1.387529 A    
N5    Ni3   1.838011 S    
C57   N33   1.434081 S    
C68   C76   1.404671 A    
C16   H8    1.077442 S    
C69   C77   1.406240 A    
C51   C59   1.392013 A    
N37   O9    1.301607 A    
N3    N25   1.388318 A    
C22   C46   1.394016 A    
C67   C75   1.406197 A    
C49   C57   1.392010 A    
N34   O4    1.301295 A    
C136  C144  1.422929 A    
C53   C93   1.397949 A    
C24   C48   1.394020 A    
C159  H87   1.079449 S    
C27   C33   1.393661 A    
C25   H17   1.076637 S    
C160  H88   1.078834 S    
C107  H75   1.083533 S    
N21   Ni4   1.838643 S    
C156  H84   1.078835 S    
C87   C95   1.399357 A    
C124  H59   1.076659 S    
C157  H85   1.079447 S    
C88   C96   1.399482 A    
C117  H70   1.077338 S    
N27   Ni5   1.837256 S    
C11   H3    1.081453 S    
C92   C95   1.462353 S    
C113  H66   1.077243 S    
C73   H33   1.081674 S    
C5    C37   1.401175 A    
C104  C120  1.402774 A    
C32   N32   1.344236 A    
N16   Ni7   1.834946 S    
C130  C146  1.420714 A    
C173  H103  1.104810 S    
C139  C167  1.398844 A    
C175  H108  1.107681 S    
C134  C150  1.420773 A    
N28   Ni6   1.837257 S    
C126  H61   1.076657 S    
C42   C68   1.467334 S    
C16   C48   1.379458 A    
C176  H112  1.108190 S    
N39   O14   1.301024 A    
C159  C167  1.398401 A    
C171  H97   1.104802 S    
C111  C119  1.400500 A    
C49   H25   1.084501 S    
C10   N10   1.332186 A    
C166  H54   1.084149 S    
C21   C45   1.388802 A    
C30   N30   1.344230 A    
C6    C174  1.503152 S    
N38   O12   1.301316 A    
C102  C126  1.400671 A    
C169  H91   1.104825 S    
N9    Ni5   1.834947 S    
N23   Ni3   1.838740 S    
C2    N2    1.336602 A    
C23   H15   1.075032 S    
C172  H100  1.108197 S    
C24   H16   1.074642 S    
N9    N17   1.385166 A    
C156  C164  1.381669 A    
C132  C148  1.420769 A    
C167  H55   1.083638 S    
N12   N20   1.385165 A    
C127  C135  1.397084 A    
N13   N21   1.385166 A    
C160  C168  1.381664 A    
C82   H46   1.083292 S    
C19   N19   1.348775 A    
C111  H79   1.083532 S    
C14   C46   1.379457 A    
C85   C93   1.399405 A    
C52   C92   1.399585 A    
C60   N36   1.436694 S    
C13   C45   1.370902 A    
C59   N35   1.434084 S    
C45   C71   1.472583 S    
C172  H99   1.110303 S    
C53   H29   1.084532 S    
C15   N15   1.331408 A    
N2    N28   1.388316 A    
C123  H60   1.076502 S    
C16   N16   1.332178 A    
C104  C128  1.400674 A    
C174  H104  1.106335 S    
C38   C104  1.473783 S    
C39   C101  1.484872 S    
C146  C153  1.415508 A    
C50   H26   1.084340 S    
C138  C166  1.390839 A    
N36   O7    1.301556 A    
N12   Ni5   1.834946 S    
C54   H30   1.084348 S    
C154  H82   1.078833 S    
C142  C162  1.390840 A    
C162  H50   1.084086 S    
C51   C91   1.397897 A    
