data_mof_unit_43047.cif
_audit_creation_date              2012-10-26T18:25:42-0400
_audit_creation_method            fapswitch 2.2
_symmetry_space_group_name_H-M    P1
_symmetry_Int_Tables_number       1
_space_group_crystal_system       triclinic
_cell_length_a                    7.579319
_cell_length_b                    8.698374
_cell_length_c                    11.047908
_cell_angle_alpha                 86.932384
_cell_angle_beta                  72.207913
_cell_angle_gamma                 103.555143
_cell_volume                      668.020033712

loop_
_atom_site_label
_atom_site_type_symbol
_atom_type_description
_atom_site_fract_x
_atom_site_fract_y
_atom_site_fract_z
_atom_type_partial_charge
C1    C     C_R   0.451533 0.199671 0.503844 0.544790
C2    C     C_2   0.575509 0.969449 0.490667 -0.103382
C3    C     C_2   0.265738 0.372066 0.152175 0.592491
C4    C     C_2   0.605724 0.717259 0.889626 0.615312
C5    C     C_2   0.889156 0.362472 0.648243 0.773507
C6    C     C_2   0.091634 0.669106 0.359769 0.759208
C7    C     C_R   0.548845 0.800433 0.494956 0.586874
C8    C     C_R   0.422946 0.491567 0.741610 0.581969
C9    C     C_R   0.574783 0.501237 0.257939 0.587853
C10   C     C_2   0.378277 0.463228 0.878467 -0.079766
C11   C     C_2   0.608401 0.508512 0.119669 -0.081671
C12   C     C_2   0.483065 0.549846 0.942412 0.000087
C13   C     C_2   0.458299 0.479009 0.073811 -0.004857
C14   C     C_2   0.425426 0.030840 0.505774 -0.106240
Cu1   Cu    Cu3+1 0.688910 0.517800 0.485820 1.128265
Cu2   Cu    Cu3+1 0.311090 0.482200 0.514180 1.112371
H1    H     H_    0.753975 0.561927 0.055993 0.166061
H2    H     H_    0.273804 0.350498 0.923239 0.121055
H3    H     H_    0.281553 0.956727 0.520457 0.152491
H4    H     H_    0.719624 0.043489 0.474925 0.164820
H5    H     H_    0.116840 0.169269 0.273694 0.348094
H6    H     H_    0.692329 0.906015 0.751075 0.363696
H7    H     H_    0.766401 0.344572 0.839939 0.318558
H8    H     H_    0.346369 0.811954 0.246564 0.332820
N1    N     N_2   0.027170 0.455360 0.535550 -0.150316
N2    N     N_2   0.972830 0.544640 0.464450 -0.169400
O1    O     O_R   0.622710 0.286400 0.490790 -0.500479
O2    O     O_R   0.254250 0.230707 0.224390 -0.677866
O3    O     O_2   0.699301 0.792222 0.950133 -0.509469
O4    O     O_R   0.605470 0.793341 0.774945 -0.673695
O5    O     O_2   0.810734 0.223542 0.646064 -0.555561
O6    O     O_R   0.861596 0.424283 0.764811 -0.673799
O7    O     O_2   0.011692 0.736692 0.301747 -0.476102
O8    O     O_R   0.289650 0.722800 0.321560 -0.668277
O9    O     O_R   0.377290 0.713600 0.509210 -0.474739
O10   O     O_R   0.303660 0.256330 0.514730 -0.501186
O11   O     O_R   0.696340 0.743670 0.485270 -0.472013
O12   O     O_R   0.600900 0.509520 0.671740 -0.480895
O13   O     O_R   0.399100 0.490480 0.328260 -0.450504
O14   O     O_R   0.281840 0.479450 0.695690 -0.483317
O15   O     O_R   0.718160 0.520550 0.304310 -0.455287
O16   O     O_2   0.118854 0.407644 0.152168 -0.501502

loop_
_geom_bond_atom_site_label_1
_geom_bond_atom_site_label_2
_ccdc_geom_bond_type
C3    O16   D    
C4    C12   S    
C9    C11   S    
C9    O15   A    
C4    O3    D    
C3    C13   S    
C6    O7    D    
C5    O6    S    
H7    O6    S    
C7    O11   A    
Cu1   O12   S    
H6    O4    S    
Cu2   O10   S    
C11   C13   D    
C6    N2    S    
C10   C12   D    
C10   H2    S    
C5    N1    S    
C7    O9    A    
C3    O2    S    
H5    O2    S    
Cu2   O14   S    
C8    O12   A    
Cu2   O9    S    
C2    C14   D    
C4    O4    S    
Cu2   O13   S    
C2    H4    S    
Cu1   Cu2   S    
C9    O13   A    
C12   C13   S    
Cu1   O15   S    
C8    C10   S    
Cu2   N1    S    
C1    O1    A    
Cu1   O11   S    
Cu1   N2    S    
C1    C14   S    
C8    O14   A    
C2    C7    S    
N1    N2    D    
Cu1   O1    S    
C14   H3    S    
H8    O8    S    
C6    O8    S    
C1    O10   A    
C5    O5    D    
C11   H1    S    
