data_mof_unit_32881.cif
_audit_creation_date              2013-03-05T16:03:41-0500
_audit_creation_method            fapswitch 2.2
_symmetry_space_group_name_H-M    P1
_symmetry_Int_Tables_number       1
_space_group_crystal_system       triclinic
_cell_length_a                    8.751821
_cell_length_b                    10.920088
_cell_length_c                    9.577458
_cell_angle_alpha                 90.951539
_cell_angle_beta                  97.461295
_cell_angle_gamma                 92.708342
_cell_volume                      906.320925915

loop_
_atom_site_label
_atom_site_type_symbol
_atom_site_description
_atom_site_fract_x
_atom_site_fract_y
_atom_site_fract_z
_atom_type_partial_charge
O1    O     O_R   0.499990 0.319660 0.618740 -0.536906
O2    O     O_R   0.500010 0.680340 0.381260 -0.536895
O3    O     O_R   0.499990 0.319630 0.381170 -0.522899
O4    O     O_R   0.500010 0.680370 0.618830 -0.522899
C1    C     C_R   0.509927 0.262660 0.499790 0.912795
C2    C     C_R   0.490074 0.737340 0.500209 0.912798
O5    O     O_R   0.274840 0.500010 0.591370 -0.559695
O6    O     O_R   0.725160 0.499990 0.408630 -0.559702
O7    O     O_R   0.274830 0.499980 0.353800 -0.520843
O8    O     O_R   0.725170 0.500020 0.646200 -0.520842
C3    C     C_R   0.204303 0.496745 0.465020 0.851231
C4    C     C_R   0.795697 0.503255 0.534980 0.851230
Cu1   Cu    Cu3+1 0.500000 0.500020 0.640660 1.154769
Cu2   Cu    Cu3+1 0.500000 0.499980 0.359340 1.154770
N1    N     N_R   0.500040 0.500030 0.852080 -0.307065
N2    N     N_R   0.499960 0.499970 0.147920 -0.307064
C5    C     C_2   0.040007 0.475500 0.451555 0.154449
C6    C     C_2   0.959992 0.524501 0.548444 0.154452
C7    C     C_R   0.487900 0.059478 0.370378 0.342492
C8    C     C_R   0.512103 0.940522 0.629621 0.342493
C9    C     C_R   0.457590 0.933377 0.372955 0.337765
C10   C     C_R   0.542415 0.066623 0.627043 0.337763
C11   C     C_R   0.481445 0.871600 0.501681 -0.353755
C12   C     C_R   0.518558 0.128401 0.498318 -0.353755
C13   C     C_R   0.393680 0.428876 0.059709 0.409326
C14   C     C_R   0.606320 0.571123 0.940291 0.409326
C15   C     C_R   0.393405 0.428962 0.911488 0.333321
C16   C     C_R   0.606598 0.571035 0.088512 0.333322
Cl1   Cl    Cl    0.960153 0.360780 0.326240 -0.415199
Cl2   Cl    Cl    0.039847 0.639220 0.673760 -0.415197
Cl3   Cl    Cl    0.503498 0.123331 0.203563 -0.308538
Cl4   Cl    Cl    0.496503 0.876670 0.796436 -0.308538
Cl5   Cl    Cl    0.371414 0.858339 0.213889 -0.334178
Cl6   Cl    Cl    0.628598 0.141661 0.786107 -0.334179
Cl7   Cl    Cl    0.254766 0.333209 0.127100 -0.314573
Cl8   Cl    Cl    0.745231 0.666793 0.872898 -0.314574
N3    N     N_R   0.278802 0.354464 0.824489 0.179381
O9    O     O_R   0.136888 0.387481 0.809368 -0.262402
O10   O     O_R   0.303868 0.239828 0.802412 -0.239477
N4    N     N_R   0.721216 0.645520 0.175511 0.179384
O11   O     O_R   0.696151 0.760148 0.197634 -0.239505
O12   O     O_R   0.863130 0.612507 0.190594 -0.262383

loop_
_geom_bond_atom_site_label_1
_geom_bond_atom_site_label_2
_geom_bond_distance
_ccdc_geom_bond_type
N2    C16   1.371534 A    
O7    Cu2   1.964463 S    
N3    O9    1.300340 A    
C6    Cl2   1.774193 S    
C13   C15   1.419284 A    
C5    Cl1   1.774192 S    
N1    C15   1.371530 A    
C8    C11   1.415912 A    
O6    C4    1.284217 A    
C7    Cl3   1.772577 S    
N4    O12   1.300332 A    
C5    C6    1.351105 D    
N3    O10   1.299665 A    
Cu1   Cu2   2.694323 S    
C10   Cl6   1.778451 S    
O5    C3    1.284216 A    
O7    C3    1.298781 A    
O2    C2    1.303896 A    
O3    Cu2   1.983951 S    
O8    C4    1.298782 A    
C15   N3    1.430177 S    
O1    C1    1.303896 A    
C2    C11   1.471562 S    
C14   Cl8   1.758468 S    
N4    O11   1.299653 A    
C7    C9    1.391230 A    
C8    C10   1.391230 A    
C7    C12   1.415914 A    
Cu2   N2    2.024818 S    
Cu1   N1    2.024820 S    
C9    C11   1.411638 A    
O2    Cu2   1.977230 S    
C10   C12   1.411634 A    
O1    Cu1   1.977229 S    
C16   N4    1.430177 S    
O5    Cu1   1.965793 S    
C9    Cl5   1.778452 S    
O4    C2    1.299310 A    
C8    Cl4   1.772576 S    
C4    C6    1.434327 S    
N2    C13   1.373869 A    
C13   Cl7   1.758467 S    
C1    C12   1.471560 S    
N1    C14   1.373867 A    
O6    Cu2   1.965792 S    
C14   C16   1.419283 A    
C3    C5    1.434328 S    
O4    Cu1   1.983952 S    
O3    C1    1.299308 A    
O8    Cu1   1.964461 S    
