data_mof_unit_18949.cif
_audit_creation_date              2013-03-05T15:42:15-0500
_audit_creation_method            fapswitch 2.2
_symmetry_space_group_name_H-M    P1
_symmetry_Int_Tables_number       1
_space_group_crystal_system       triclinic
_cell_length_a                    11.582372
_cell_length_b                    11.793266
_cell_length_c                    19.417938
_cell_angle_alpha                 90.345312
_cell_angle_beta                  89.535001
_cell_angle_gamma                 60.114649
_cell_volume                      2299.44124234

loop_
_atom_site_label
_atom_site_type_symbol
_atom_site_description
_atom_site_fract_x
_atom_site_fract_y
_atom_site_fract_z
_atom_type_partial_charge
O1    O     O_R   0.267740 0.231960 0.575440 -0.473565
O2    O     O_R   0.527280 0.186640 0.570530 -0.476296
C1    C     C_R   0.640468 0.116342 0.598995 0.556667
O3    O     O_R   0.728090 0.003450 0.576380 -0.486210
O4    O     O_R   0.682970 0.789190 0.570490 -0.487527
C2    C     C_R   0.612393 0.746031 0.598261 0.546010
O5    O     O_R   0.499290 0.771880 0.575530 -0.496077
O6    O     O_R   0.285330 0.030870 0.569730 -0.491178
C3    C     C_R   0.241204 0.144983 0.597707 0.550646
O7    O     O_R   0.270980 0.227080 0.423890 -0.483911
O8    O     O_R   0.530280 0.182120 0.430050 -0.478905
C4    C     C_R   0.623168 0.082928 0.394259 0.528324
O9    O     O_R   0.731330 0.998570 0.424830 -0.485577
O10   O     O_R   0.685970 0.784660 0.430010 -0.516386
C5    C     C_R   0.622356 0.728982 0.407455 0.539072
O11   O     O_R   0.502530 0.767000 0.423990 -0.475603
O12   O     O_R   0.288330 0.026350 0.429250 -0.442309
C6    C     C_R   0.243635 0.140560 0.400940 0.570755
Cr1   Cr    Cr6+3 0.404720 0.198220 0.499960 1.135493
Cr2   Cr    Cr6+3 0.698290 0.897110 0.500380 1.099794
Cr3   Cr    Cr6+3 0.396970 0.904720 0.499610 1.135137
O13   O     O_3   0.499990 0.000020 0.499980 -0.325681
C7    C     C_1   0.671004 0.646540 0.860433 0.014485
C8    C     C_1   0.654991 0.683367 0.728220 -0.021944
C9    C     C_1   0.664024 0.666634 0.799744 -0.023770
C10   C     C_1   0.641109 0.703594 0.667585 0.020690
C11   C     C_1   0.127223 0.199939 0.859684 0.022873
C12   C     C_1   0.170947 0.170575 0.727597 -0.022788
C13   C     C_1   0.150485 0.183043 0.799072 -0.023039
C14   C     C_1   0.194542 0.160851 0.666963 0.018270
C15   C     C_1   0.678368 0.191503 0.861153 0.020355
C16   C     C_1   0.658775 0.166629 0.728962 -0.022586
C17   C     C_1   0.665535 0.180770 0.800521 -0.021769
C18   C     C_1   0.653370 0.148728 0.668370 0.014915
C19   C     C_R   0.677120 0.596382 0.207849 0.007211
C20   C     C_R   0.571728 0.598051 0.250442 -0.037094
C21   C     C_R   0.597010 0.588503 0.322168 -0.023676
C22   C     C_R   0.769332 0.641883 0.308293 -0.108741
C23   C     C_R   0.782393 0.600071 0.241342 0.178271
C24   C     C_R   0.442363 0.614307 0.232414 0.174353
C25   C     C_R   0.356261 0.621413 0.285966 -0.081269
C26   C     C_R   0.401161 0.579729 0.352302 0.181647
C27   C     C_R   0.528468 0.551113 0.368094 -0.060563
C28   C     C_R   0.672915 0.640687 0.348621 0.016724
H1    H     H_    0.561185 0.528295 0.420935 0.170131
C29   C     C_R   0.176742 0.174114 0.184761 0.029835
C30   C     C_R   0.216730 0.250557 0.221942 -0.032039
C31   C     C_R   0.186350 0.267488 0.293069 -0.030077
C32   C     C_R   0.173763 0.069450 0.293118 0.177149
C33   C     C_R   0.168006 0.074403 0.220571 0.168037
C34   C     C_R   0.259547 0.329723 0.189388 0.267187
C35   C     C_R   0.243841 0.439811 0.224814 -0.132763
C36   C     C_R   0.185179 0.471375 0.290318 -0.149730
C37   C     C_R   0.149404 0.390001 0.323653 0.291307
C38   C     C_R   0.187427 0.164654 0.330227 -0.005175
H2    H     H_    0.263844 0.507604 0.198675 0.197781
C39   C     C_R   0.649857 0.173124 0.183471 0.052265
C40   C     C_R   0.711273 0.041320 0.202665 0.047780
C41   C     C_R   0.723863 0.010536 0.273436 0.024032
C42   C     C_R   0.556319 0.237136 0.297659 -0.157882
C43   C     C_R   0.568373 0.269280 0.230740 -0.144116
C44   C     C_R   0.775105 0.940695 0.152978 -0.064227
C45   C     C_R   0.877876 0.820233 0.172184 -0.032201
C46   C     C_R   0.907792 0.795736 0.241369 -0.059922
C47   C     C_R   0.826864 0.885056 0.291824 -0.083823
C48   C     C_R   0.638400 0.109484 0.321532 0.012557
H3    H     H_    0.754565 0.959095 0.098594 0.140726
H4    H     H_    0.519328 0.370077 0.217300 0.157529
H5    H     H_    0.937285 0.748485 0.133084 0.184644
H6    H     H_    0.991288 0.705257 0.256313 0.153092
H7    H     H_    0.853443 0.853558 0.343837 0.186568
O14   O     O_R   0.821500 0.119340 0.952830 -0.511043
O15   O     O_R   0.037130 0.162530 0.957360 -0.492633
C49   C     C_R   0.081284 0.232101 0.929009 0.551724
O16   O     O_R   0.056440 0.344740 0.951340 -0.490575
O17   O     O_R   0.797900 0.560360 0.957470 -0.504146
C50   C     C_R   0.684005 0.604411 0.929839 0.547125
O18   O     O_R   0.596130 0.579390 0.952730 -0.481983
O19   O     O_R   0.639060 0.321160 0.958670 -0.479483
C51   C     C_R   0.708477 0.207216 0.930461 0.542540
O20   O     O_R   0.821240 0.124200 0.104370 -0.487887
O21   O     O_R   0.036890 0.167040 0.097840 -0.447846
C52   C     C_R   0.093160 0.229959 0.121562 0.644979
O22   O     O_R   0.056180 0.349610 0.102880 -0.409321
O23   O     O_R   0.797660 0.564870 0.097950 -0.455958
C53   C     C_R   0.702534 0.557598 0.134197 0.580601
O24   O     O_R   0.595880 0.584250 0.104270 -0.449328
O25   O     O_R   0.638830 0.325670 0.099150 -0.456988
C54   C     C_R   0.703066 0.209043 0.123863 0.554609
Cr4   Cr    Cr6+3 0.926180 0.151990 0.028120 1.124005
Cr5   Cr    Cr6+3 0.921330 0.451820 0.027470 1.125083
Cr6   Cr    Cr6+3 0.626260 0.446870 0.028710 1.161898
O26   O     O_3   0.824590 0.350230 0.028100 -0.329428
H8    H     H_    0.845975 0.655026 0.331937 0.159347
H9    H     H_    0.157845 0.563195 0.314127 0.163318
N1    N     N_R   0.062304 0.438421 0.383392 0.092495
O27   O     O_R   0.057972 0.531349 0.421741 -0.291264
O28   O     O_R   0.979836 0.396469 0.396955 -0.323362
H10   H     H_    0.488682 0.315315 0.331814 0.160390
N2    N     N_R   0.387560 0.628646 0.164557 0.086962
O29   O     O_R   0.426930 0.524821 0.126710 -0.298618
O30   O     O_R   0.264160 0.716745 0.156204 -0.261528
N3    N     N_R   0.911516 0.505846 0.222301 0.058642
O31   O     O_R   0.939396 0.385465 0.228370 -0.386588
O32   O     O_R   0.983180 0.537369 0.184169 -0.374709
H11   H     H_    0.252315 0.661470 0.275211 0.172905
N4    N     N_R   0.312728 0.584961 0.405999 0.076662
O33   O     O_R   0.358581 0.504046 0.457157 -0.317476
O34   O     O_R   0.191112 0.682392 0.409469 -0.260012
N5    N     N_R   0.155920 0.973922 0.328776 0.116493
O35   O     O_R   0.259499 0.865481 0.346551 -0.300507
O36   O     O_R   0.039561 0.005005 0.354329 -0.267263
N6    N     N_R   0.315720 0.300534 0.120835 0.080943
O37   O     O_R   0.384663 0.179882 0.099195 -0.366606
O38   O     O_R   0.298775 0.394152 0.079731 -0.268610
N7    N     N_R   0.155986 0.977108 0.182513 0.116751
O39   O     O_R   0.063348 0.949897 0.198784 -0.266772
O40   O     O_R   0.219069 0.936554 0.123677 -0.271428

loop_
_geom_bond_atom_site_label_1
_geom_bond_atom_site_label_2
_geom_bond_distance
_ccdc_geom_bond_type
C40   C44   1.409270 A    
C31   C38   1.409659 A    
O11   Cr3   2.062072 S    
C36   H9    1.066070 S    
O15   C49   1.287160 A    
C19   C20   1.460817 A    
C42   H10   1.080766 S    
O23   Cr5   1.935292 S    
C15   C51   1.426957 S    
O4    Cr2   1.935648 S    
C2    C10   1.422202 S    
C50   O18   1.270469 A    
C31   C37   1.411651 A    
O8    Cr1   1.919243 S    
C24   N2    1.441174 S    
C34   N6    1.439096 S    
C39   C54   1.467473 S    
C44   H3    1.083628 S    
C20   C21   1.419122 A    
C8    C10   1.198861 T    
O15   Cr4   1.920244 S    
C41   C48   1.426357 A    
O23   C53   1.341253 A    
O4    C2    1.276270 A    
C19   C53   1.480661 S    
C29   C52   1.506847 S    
C11   C13   1.198349 T    
C5    O11   1.265389 A    
N7    O39   1.301119 A    
C25   C26   1.391073 A    
N5    O35   1.294994 A    
Cr6   O26   1.991558 S    
O25   Cr6   1.937656 S    
C36   C37   1.382406 A    
O6    C3    1.291768 A    
N1    O28   1.301895 A    
N4    O33   1.301687 A    
C15   C17   1.201677 T    
O22   Cr5   2.053992 S    
C46   H6    1.066759 S    
C11   C49   1.421350 S    
C26   N4    1.434941 S    
C37   N1    1.445131 S    
O16   Cr5   2.049285 S    
O20   C54   1.280664 A    
O25   C54   1.292121 A    
C42   C48   1.405115 A    
Cr3   O13   2.005844 S    
N4    O34   1.301378 A    
O6    Cr3   1.941442 S    
O1    Cr1   2.037099 S    
C49   O16   1.282784 A    
C34   C35   1.394174 A    
C30   C31   1.410672 A    
O10   Cr2   1.953486 S    
C20   C24   1.458566 A    
Cr1   O13   2.027532 S    
O1    C3    1.284885 A    
O17   C50   1.276677 A    
C25   H11   1.074597 S    
C53   O24   1.260719 A    
C30   C34   1.407342 A    
C1    C18   1.427180 S    
O18   Cr6   2.057581 S    
C40   C41   1.413532 A    
C32   C38   1.404995 A    
C4    C48   1.476455 S    
C7    C50   1.422207 S    
C45   C46   1.385934 A    
C42   C43   1.381114 A    
C16   C18   1.201738 T    
C21   C27   1.400736 A    
C19   C23   1.406048 A    
C22   C28   1.364616 A    
C44   C45   1.379355 A    
Cr5   O26   2.007171 S    
O14   Cr4   2.059823 S    
C52   O22   1.308659 A    
O7    Cr1   2.053050 S    
N1    O27   1.301082 A    
C22   H8    1.079687 S    
N2    O30   1.294043 A    
O12   C6    1.305006 A    
N3    O32   1.294706 A    
C8    C9    1.401393 S    
C39   C43   1.387806 A    
C27   H1    1.084821 S    
O19   Cr6   1.955240 S    
C3    C14   1.421279 S    
O20   Cr4   2.037296 S    
C6    C38   1.491605 S    
C24   C25   1.407736 A    
Cr2   O13   1.992687 S    
C32   C33   1.411020 A    
C26   C27   1.376516 A    
C1    O3    1.278508 A    
C35   C36   1.395090 A    
Cr4   O26   2.027051 S    
N6    O37   1.301494 A    
C29   C30   1.400778 A    
C12   C13   1.400551 S    
O9    Cr2   2.049068 S    
O2    Cr1   1.937051 S    
C5    C28   1.448966 S    
O8    C4    1.316357 A    
C23   N3    1.392162 S    
C2    O5    1.271574 A    
C29   C33   1.415567 A    
O21   Cr4   1.939245 S    
C16   C17   1.405973 S    
C21   C28   1.399358 A    
C12   C14   1.198318 T    
O2    C1    1.282853 A    
C45   H5    1.081417 S    
O14   C51   1.280258 A    
C47   H7    1.071659 S    
C41   C47   1.412296 A    
O5    Cr3   2.058661 S    
C43   H4    1.066336 S    
C39   C40   1.403736 A    
C22   C23   1.367815 A    
O7    C6    1.287972 A    
C46   C47   1.391678 A    
N2    O29   1.294057 A    
N7    O40   1.303644 A    
C33   N7    1.425742 S    
C7    C9    1.198858 T    
N5    O36   1.300589 A    
O17   Cr5   1.938755 S    
O19   C51   1.288225 A    
O3    Cr2   2.070527 S    
C4    O9    1.299521 A    
O21   C52   1.292368 A    
N3    O31   1.295941 A    
O10   C5    1.284429 A    
O24   Cr6   2.072754 S    
C35   H2    1.066803 S    
C32   N5    1.424936 S    
N6    O38   1.300680 A    
O12   Cr3   1.939167 S    
