data_mof_unit_11701.cif
_audit_creation_date              2012-12-10T17:06:12-0500
_audit_creation_method            fapswitch 2.2
_symmetry_space_group_name_H-M    P1
_symmetry_Int_Tables_number       1
_space_group_crystal_system       triclinic
_cell_length_a                    10.628181
_cell_length_b                    11.060102
_cell_length_c                    9.841799
_cell_angle_alpha                 111.790226
_cell_angle_beta                  97.918515
_cell_angle_gamma                 91.230535
_cell_volume                      1060.66608778

loop_
_atom_site_label
_atom_site_type_symbol
_atom_type_description
_atom_site_fract_x
_atom_site_fract_y
_atom_site_fract_z
_atom_type_partial_charge
C1    C     C_R   0.491181 0.253669 0.439433 0.781049
C2    C     C_R   0.510454 0.746313 0.560555 0.824585
C3    C     C_R   0.259588 0.499460 0.501228 0.812978
C4    C     C_R   0.740354 0.500249 0.498677 0.811851
C5    C     C_3   0.057686 0.520759 0.639623 -0.225341
C6    C     C_3   0.942068 0.478655 0.360115 -0.225357
C7    C     C_3   0.959661 0.403877 0.542291 -0.215235
C8    C     C_3   0.040086 0.595535 0.457431 -0.213412
C9    C     C_3   0.876430 0.499201 0.496474 -0.082244
C10   C     C_3   0.123398 0.500163 0.503243 -0.084225
C11   C     C_3   0.973068 0.613256 0.591566 0.322873
C12   C     C_3   0.026654 0.386102 0.408122 0.321866
C13   C     C_2   0.486786 0.112874 0.402672 0.091792
C14   C     C_2   0.519511 0.887004 0.597984 0.079015
C15   C     C_2   0.515599 0.069678 0.512677 -0.191198
C16   C     C_2   0.501888 0.931219 0.487430 -0.212108
C17   C     C_2   0.510614 0.510891 0.081600 -0.072171
C18   C     C_2   0.489391 0.489136 0.918423 -0.076157
Cu1   Cu    Cu3+1 0.522260 0.521810 0.644920 0.935196
Cu2   Cu    Cu3+1 0.477740 0.478190 0.355080 0.929417
H1    H     H_    0.924088 0.324717 0.574335 0.141001
H2    H     H_    0.075601 0.674637 0.425267 0.142819
H3    H     H_    0.106625 0.540283 0.753727 0.151981
H4    H     H_    0.893057 0.459241 0.246066 0.149957
H5    H     H_    0.477814 0.862191 0.373710 0.200880
H6    H     H_    0.548329 0.139143 0.624358 0.161455
H7    H     H_    0.415760 0.415650 0.844794 0.158523
H8    H     H_    0.584263 0.584367 0.155230 0.159686
H9    H     H_    0.624292 0.624493 0.935361 0.188109
H10   H     H_    0.375589 0.375648 0.064663 0.186433
N1    N     N_2   0.444270 0.445410 0.137360 -0.285134
N2    N     N_2   0.555730 0.554590 0.862640 -0.285026
O1    O     O_R   0.511880 0.332340 0.577400 -0.593986
O2    O     O_R   0.488120 0.667660 0.422600 -0.602519
O3    O     O_R   0.474280 0.295500 0.332650 -0.572299
O4    O     O_R   0.525720 0.704500 0.667350 -0.552123
O5    O     O_R   0.335640 0.518390 0.622350 -0.576959
O6    O     O_R   0.664360 0.481610 0.377650 -0.579008
O7    O     O_R   0.298050 0.481550 0.377590 -0.583125
O8    O     O_R   0.701950 0.518450 0.622410 -0.585329
N3    N     N_2   0.938047 0.736684 0.691451 -0.439044
H11   H     H_    0.882328 0.725924 0.764673 0.250928
C19   C     C_3   0.042396 0.835847 0.763121 -0.711600
H12   H     H_    0.005197 0.927944 0.832216 0.224493
H13   H     H_    0.090333 0.855512 0.679220 0.236721
H14   H     H_    0.112517 0.804252 0.835525 0.228547
N4    N     N_2   0.060665 0.262157 0.308182 -0.431883
H15   H     H_    0.118945 0.272182 0.236911 0.254071
C20   C     C_3   0.954772 0.165295 0.233477 -0.718054
H16   H     H_    0.990869 0.072209 0.165204 0.228395
H17   H     H_    0.887966 0.198654 0.159736 0.219120
H18   H     H_    0.903197 0.146618 0.315395 0.235591
N5    N     N_2   0.545308 0.972112 0.750519 -0.421713
H19   H     H_    0.494683 0.053984 0.780014 0.251213
C21   C     C_3   0.679050 0.997522 0.812967 -0.679282
H20   H     H_    0.730055 0.048839 0.756148 0.224717
H21   H     H_    0.722564 0.904603 0.801887 0.244933
H22   H     H_    0.689882 0.060119 0.932540 0.214072
N6    N     N_2   0.449128 0.024807 0.252783 -0.425178
H23   H     H_    0.379426 0.057772 0.194246 0.262460
C22   C     C_3   0.554545 0.980916 0.172775 -0.685635
H24   H     H_    0.517911 0.909015 0.059679 0.244872
H25   H     H_    0.621328 0.932771 0.230062 0.226874
H26   H     H_    0.606691 0.064963 0.163420 0.226872

loop_
_geom_bond_atom_site_label_1
_geom_bond_atom_site_label_2
_ccdc_geom_bond_type
Cu1   Cu2   S    
C22   H26   S    
C8    H2    S    
C19   H12   S    
C11   N3    S    
C13   N6    S    
C21   H21   S    
Cu2   O6    S    
N3    H11   S    
N3    C19   S    
N4    H15   S    
C5    H3    S    
C12   N4    S    
C9    C11   S    
C20   H18   S    
C6    H4    S    
C2    O2    A    
C21   H20   S    
C13   C15   D    
C17   C18   S    
C3    O7    A    
N6    H23   S    
N4    C20   S    
C3    C10   S    
N5    H19   S    
C19   H13   S    
C1    O3    A    
H10   N1    S    
C10   C12   S    
C6    C9    S    
C8    C11   S    
C2    C14   S    
Cu1   N2    S    
C4    O6    A    
C5    C11   S    
H9    N2    S    
C7    C9    S    
Cu1   O4    S    
N5    C21   S    
C6    C12   S    
C22   H24   S    
C17   N1    D    
C19   H14   S    
C14   C16   D    
C7    C12   S    
N6    C22   S    
C1    C13   S    
Cu1   O8    S    
C1    O1    A    
Cu2   O2    S    
C4    O8    A    
C5    C10   S    
C14   N5    S    
C18   N2    D    
C3    O5    A    
C8    C10   S    
C20   H16   S    
Cu1   O1    S    
C21   H22   S    
C2    O4    A    
C16   H5    S    
C5    C7    S    
Cu2   O7    S    
C15   H6    S    
C6    C8    S    
Cu1   O5    S    
C4    C9    S    
C7    H1    S    
C17   H8    S    
Cu2   O3    S    
C22   H25   S    
C18   H7    S    
C15   C16   S    
C20   H17   S    
Cu2   N1    S    
