data_mof_unit_36672.cif
_audit_creation_date              2012-12-10T16:51:27-0500
_audit_creation_method            fapswitch 2.2
_symmetry_space_group_name_H-M    P1
_symmetry_Int_Tables_number       1
_space_group_crystal_system       triclinic
_cell_length_a                    7.81482
_cell_length_b                    8.575452
_cell_length_c                    12.608861
_cell_angle_alpha                 92.444833
_cell_angle_beta                  102.635507
_cell_angle_gamma                 93.920346
_cell_volume                      821.154903366

loop_
_atom_site_label
_atom_site_type_symbol
_atom_type_description
_atom_site_fract_x
_atom_site_fract_y
_atom_site_fract_z
_atom_type_partial_charge
C1    C     C_R   0.044372 0.794591 0.497244 0.957023
C2    C     C_R   0.191101 0.591463 0.820220 -0.130601
C3    C     C_2   0.067598 0.958169 0.495812 -0.378198
C4    C     C_R   0.114892 0.532509 0.706922 0.864582
C5    C     C_2   0.932587 0.041861 0.504548 -0.385064
C6    C     C_R   0.955699 0.205433 0.502889 0.979065
C7    C     C_R   0.889602 0.487019 0.292053 0.875508
C8    C     C_R   0.855441 0.405623 0.995583 -0.185303
C9    C     C_R   0.826094 0.477870 0.176177 -0.053875
C10   C     C_R   0.084009 0.654691 0.883843 -0.217523
C11   C     C_R   0.147759 0.685240 0.995202 -0.119731
C12   C     C_R   0.428857 0.587749 0.981115 0.077788
C13   C     C_R   0.314769 0.644309 0.044804 -0.196969
C14   C     C_R   0.371962 0.581847 0.867247 0.096267
C15   C     C_R   0.596560 0.534474 0.024770 0.078082
C16   C     C_R   0.698994 0.474113 0.954337 0.163535
C17   C     C_R   0.650625 0.494306 0.844244 -0.281490
C18   C     C_R   0.498543 0.564144 0.804362 -0.183538
C19   C     C_R   0.665380 0.537864 0.135602 -0.270540
C20   C     C_R   0.919884 0.408275 0.106996 -0.207913
H1    H     H_    0.043380 0.358805 0.138830 0.162523
H2    H     H_    0.195005 0.009174 0.487551 0.178952
H3    H     H_    0.471399 0.366181 0.426555 0.190341
H4    H     H_    0.598113 0.590334 0.192157 0.160928
H5    H     H_    0.805201 0.990850 0.512845 0.178275
H6    H     H_    0.528661 0.640886 0.565880 0.172645
H7    H     H_    0.734071 0.463313 0.789942 0.186418
H8    H     H_    0.931181 0.356282 0.941759 0.152292
H9    H     H_    0.950746 0.679297 0.847754 0.163991
H10   H     H_    0.349727 0.659518 0.132275 0.134878
H11   H     H_    0.063455 0.732301 0.044250 0.155330
H12   H     H_    0.483740 0.606705 0.724830 0.170959
N1    N     N_2   0.434800 0.456690 0.470850 -0.176162
N2    N     N_2   0.565200 0.543310 0.529150 -0.182904
O1    O     O_R   0.893060 0.738880 0.507150 -0.615793
O2    O     O_R   0.172250 0.711130 0.488470 -0.636703
O3    O     O_R   0.944700 0.520730 0.667600 -0.630704
O4    O     O_R   0.223890 0.492980 0.648920 -0.622544
O5    O     O_R   0.827750 0.288870 0.511530 -0.626212
O6    O     O_R   0.106940 0.261120 0.492850 -0.608923
O7    O     O_R   0.776110 0.507020 0.351080 -0.628510
O8    O     O_R   0.055300 0.479270 0.332400 -0.623130
Zn1   Zn    Zn3+2 0.813580 0.518530 0.512470 0.928285
Zn2   Zn    Zn3+2 0.186420 0.481470 0.487530 0.934665

loop_
_geom_bond_atom_site_label_1
_geom_bond_atom_site_label_2
_ccdc_geom_bond_type
O3    Zn1   S    
H3    N1    S    
C2    C4    S    
O4    Zn2   S    
O1    Zn1   S    
C14   C18   A    
C9    C20   A    
C12   C15   A    
O6    Zn2   S    
H6    N2    S    
C19   H4    S    
C11   H11   S    
C8    C16   A    
C20   H1    S    
C15   C19   A    
C12   C13   A    
O7    Zn1   S    
C10   H9    S    
C8    C20   A    
O8    Zn2   S    
C5    H5    S    
C12   C14   A    
N1    N2    D    
C7    O7    A    
C5    C6    S    
C2    C14   A    
C6    O6    A    
O2    Zn2   S    
C18   H12   S    
C10   C11   A    
C15   C16   A    
C2    C10   A    
C13   H10   S    
C11   C13   A    
C4    O3    A    
C1    O1    A    
C8    H8    S    
C17   C18   A    
C7    O8    A    
C7    C9    S    
C6    O5    A    
C3    H2    S    
O5    Zn1   S    
C3    C5    D    
N1    Zn2   S    
C9    C19   A    
N2    Zn1   S    
C1    O2    A    
C4    O4    A    
C16   C17   A    
C1    C3    S    
C17   H7    S    
