data_mof_unit_50495.cif
_audit_creation_date              2012-12-10T18:00:16-0500
_audit_creation_method            fapswitch 2.2
_symmetry_space_group_name_H-M    P1
_symmetry_Int_Tables_number       1
_space_group_crystal_system       triclinic
_cell_length_a                    10.933665
_cell_length_b                    9.617985
_cell_length_c                    10.618
_cell_angle_alpha                 90.367585
_cell_angle_beta                  93.741532
_cell_angle_gamma                 90.120827
_cell_volume                      1114.18061037

loop_
_atom_site_label
_atom_site_type_symbol
_atom_type_description
_atom_site_fract_x
_atom_site_fract_y
_atom_site_fract_z
_atom_type_partial_charge
C1    C     C_R   0.871189 0.497751 0.485129 -0.366895
C2    C     C_R   0.128669 0.497144 0.513728 -0.367123
C3    C     C_R   0.262828 0.499454 0.507502 0.883124
C4    C     C_R   0.737107 0.499648 0.492101 0.882077
C5    C     C_R   0.500182 0.499550 0.259479 0.775861
C6    C     C_R   0.500580 0.500492 0.740524 0.774494
C7    C     C_3   0.397099 0.558725 0.035584 -0.179246
C8    C     C_3   0.604786 0.441760 0.964309 -0.165859
C9    C     C_3   0.494250 0.632458 0.960043 -0.111011
C10   C     C_3   0.507730 0.367991 0.039841 -0.064083
C11   C     C_3   0.403725 0.427948 0.950807 -0.120930
C12   C     C_3   0.598164 0.572431 0.049214 -0.154510
C13   C     C_3   0.500823 0.501551 0.877523 -0.008128
C14   C     C_3   0.500977 0.498771 0.122461 -0.015728
C15   C     C_R   0.427942 0.073605 0.412376 0.109837
C16   C     C_R   0.579741 0.926831 0.581054 0.077375
C17   C     C_R   0.571882 0.075246 0.587688 0.114191
C18   C     C_R   0.419913 0.925282 0.419420 0.083976
C19   C     C_R   0.063185 0.369476 0.505981 0.303565
C20   C     C_R   0.937507 0.623923 0.487499 0.314153
C21   C     C_R   0.935751 0.369880 0.487569 0.306225
C22   C     C_R   0.063247 0.623393 0.516032 0.317782
Cu1   Cu    Cu3+1 0.500000 0.640660 0.500000 0.979521
Cu2   Cu    Cu3+1 0.500000 0.359340 0.500000 0.988955
H1    H     H_    0.324211 0.368907 0.907426 0.176889
H2    H     H_    0.677703 0.631353 0.092694 0.178013
H3    H     H_    0.312175 0.606497 0.067945 0.156829
H4    H     H_    0.689706 0.394052 0.931885 0.169060
H5    H     H_    0.488821 0.740815 0.924695 0.178127
H6    H     H_    0.514650 0.259542 0.074375 0.209920
N1    N     N_R   0.500000 0.852070 0.500000 -0.259470
N2    N     N_R   0.500000 0.147930 0.500000 -0.259913
O1    O     O_R   0.319640 0.618740 0.499990 -0.567038
O2    O     O_R   0.680360 0.381260 0.500010 -0.570597
O3    O     O_R   0.680360 0.618740 0.500010 -0.567488
O4    O     O_R   0.319640 0.381260 0.499990 -0.570979
O5    O     O_R   0.499970 0.618770 0.316850 -0.608378
O6    O     O_R   0.500030 0.381230 0.683150 -0.594052
O7    O     O_R   0.500030 0.618770 0.683150 -0.616302
O8    O     O_R   0.499970 0.381230 0.316850 -0.606914
C23   C     C_2   0.361390 0.146341 0.306049 0.507903
H7    H     H_    0.310449 0.240154 0.320369 0.126056
O9    O     O_2   0.363486 0.100790 0.198582 -0.567442
C24   C     C_2   0.678802 0.855497 0.659269 0.518990
H8    H     H_    0.669210 0.752084 0.693888 0.090542
O10   O     O_2   0.777372 0.912555 0.684496 -0.461188
C25   C     C_2   0.637689 0.150003 0.694086 0.524910
H9    H     H_    0.695091 0.238730 0.678722 0.113554
O11   O     O_2   0.627294 0.112138 0.802453 -0.560302
C26   C     C_2   0.319532 0.852565 0.343113 0.537739
H10   H     H_    0.329709 0.750255 0.304890 0.080193
O12   O     O_2   0.219535 0.907477 0.323317 -0.453275
Cl1   Cl    Cl    0.134829 0.204818 0.529899 -0.428121
Cl2   Cl    Cl    0.870428 0.784129 0.438800 -0.403864
Cl3   Cl    Cl    0.862699 0.206425 0.456433 -0.428361
Cl4   Cl    Cl    0.131640 0.781913 0.570665 -0.402666

loop_
_geom_bond_atom_site_label_1
_geom_bond_atom_site_label_2
_ccdc_geom_bond_type
C2    C22   A    
C15   C18   A    
C26   O12   D    
Cu1   Cu2   S    
Cu2   N2    S    
C1    C21   A    
C8    C13   S    
C5    O5    A    
C11   C13   S    
C23   H7    S    
C10   H6    S    
Cu2   O6    S    
C25   H9    S    
C9    H5    S    
C8    C12   S    
C1    C4    S    
C19   Cl1   S    
C6    O6    A    
C2    C3    S    
C4    O3    A    
C21   Cl3   S    
C15   N2    A    
C25   O11   D    
C16   N1    A    
C7    C11   S    
C23   O9    D    
C15   C23   S    
C5    C14   S    
Cu2   O4    S    
C3    O4    A    
Cu1   O7    S    
C8    C10   S    
C19   C21   A    
C12   C14   S    
C26   H10   S    
Cu1   O3    S    
C8    H4    S    
C9    C12   S    
C4    O2    A    
C10   C11   S    
C3    O1    A    
C22   Cl4   S    
C11   H1    S    
C7    H3    S    
C24   H8    S    
C18   C26   S    
C20   Cl2   S    
C10   C14   S    
C5    O8    A    
C12   H2    S    
C7    C9    S    
C17   N2    A    
C16   C24   S    
C6    O7    A    
C1    C20   A    
C9    C13   S    
C18   N1    A    
C24   O10   D    
Cu2   O8    S    
C2    C19   A    
Cu1   O5    S    
C7    C14   S    
Cu2   O2    S    
Cu1   O1    S    
C17   C25   S    
C20   C22   A    
C16   C17   A    
C6    C13   S    
Cu1   N1    S    
