data_mof_unit_40162.cif
_audit_creation_date              2012-12-10T18:12:30-0500
_audit_creation_method            fapswitch 2.2
_symmetry_space_group_name_H-M    P1
_symmetry_Int_Tables_number       1
_space_group_crystal_system       triclinic
_cell_length_a                    9.416402
_cell_length_b                    10.742571
_cell_length_c                    17.342533
_cell_angle_alpha                 90.119328
_cell_angle_beta                  86.091413
_cell_angle_gamma                 90.513836
_cell_volume                      1750.15495806

loop_
_atom_site_label
_atom_site_type_symbol
_atom_type_description
_atom_site_fract_x
_atom_site_fract_y
_atom_site_fract_z
_atom_type_partial_charge
C1    C     C_R   0.500522 0.739977 0.498283 0.838855
C2    C     C_R   0.338902 0.499458 0.775908 -0.239081
C3    C     C_R   0.407849 0.449484 0.148636 -0.155795
C4    C     C_R   0.401549 0.465153 0.228087 -0.202653
C5    C     C_R   0.659408 0.479786 0.223789 -0.206569
C6    C     C_R   0.665576 0.464240 0.143891 -0.164352
C7    C     C_R   0.539728 0.452076 0.105896 0.195756
C8    C     C_2   0.448969 0.499225 0.980801 -0.198185
C9    C     C_2   0.547674 0.445240 0.021444 -0.261168
C10   C     C_R   0.527016 0.482175 0.266183 -0.024477
C11   C     C_3   0.362089 0.925282 0.463146 -0.436131
C12   C     C_R   0.481552 0.500094 0.649906 0.864378
C13   C     C_3   0.357264 0.068558 0.464667 0.095467
C14   C     C_3   0.511454 0.929793 0.581208 -0.190960
C15   C     C_3   0.627783 0.927009 0.444741 -0.416695
C16   C     C_3   0.499838 0.877905 0.497685 -0.037462
C17   C     C_3   0.499932 0.122089 0.494739 -0.039275
C18   C     C_3   0.505607 0.074806 0.580149 -0.040387
C19   C     C_3   0.633646 0.071046 0.445023 0.103549
C20   C     C_3   0.915496 0.371845 0.488236 -0.280603
C21   C     C_3   0.083094 0.370649 0.486804 -0.226261
C22   C     C_3   0.926181 0.575354 0.434299 -0.181493
C23   C     C_R   0.499796 0.260161 0.496714 0.825966
C24   C     C_3   0.908863 0.549380 0.572484 0.298494
C25   C     C_3   0.093503 0.576901 0.436302 -0.200784
C26   C     C_3   0.077153 0.543846 0.573105 -0.184856
C27   C     C_R   0.518346 0.496328 0.350164 0.776818
C28   C     C_R   0.471933 0.499985 0.734335 -0.035407
C29   C     C_R   0.596629 0.500691 0.773911 -0.206495
C30   C     C_R   0.588947 0.500305 0.853899 -0.201717
C31   C     C_R   0.456261 0.496982 0.896008 0.159845
C32   C     C_R   0.329924 0.497250 0.856692 0.286142
Cu1   Cu    Cu3+1 0.357600 0.500140 0.499960 0.909040
Cu2   Cu    Cu3+1 0.642400 0.499860 0.500040 0.925799
H1    H     H_    0.700674 0.502465 0.743220 0.139934
H2    H     H_    0.768146 0.464833 0.111517 0.122145
H3    H     H_    0.265046 0.888397 0.495851 0.149437
H4    H     H_    0.358600 0.889388 0.403015 0.184759
H5    H     H_    0.269357 0.095732 0.507619 0.123906
H6    H     H_    0.405064 0.106507 0.611810 0.125961
H7    H     H_    0.729856 0.891399 0.464342 0.158958
H8    H     H_    0.617900 0.890634 0.385156 0.187912
H9    H     H_    0.298182 0.463238 0.259555 0.141738
H10   H     H_    0.731134 0.100387 0.473228 0.135334
H11   H     H_    0.615744 0.899933 0.600908 0.178624
H12   H     H_    0.880771 0.330360 0.433782 0.160951
H13   H     H_    0.871985 0.310754 0.536058 0.152717
H14   H     H_    0.115848 0.305886 0.532153 0.145006
H15   H     H_    0.127109 0.333829 0.430376 0.182543
H16   H     H_    0.898178 0.536889 0.377688 0.131384
H17   H     H_    0.139725 0.544612 0.379205 0.144134
H18   H     H_    0.757759 0.490543 0.252140 0.138561
H19   H     H_    0.868524 0.485142 0.619566 0.064020
H20   H     H_    0.103338 0.480453 0.620660 0.106860
H21   H     H_    0.128385 0.633266 0.587178 0.174226
H22   H     H_    0.884610 0.671706 0.436260 0.161834
H23   H     H_    0.132794 0.673787 0.442811 0.138157
H24   H     H_    0.638980 0.399484 0.992626 0.149050
H25   H     H_    0.309479 0.435067 0.120840 0.126938
H26   H     H_    0.241715 0.499303 0.745886 0.136558
H27   H     H_    0.359047 0.545903 0.010398 0.179068
H28   H     H_    0.687462 0.505207 0.882497 0.139452
N1    N     N_3   0.856560 0.499750 0.498270 -0.126773
N2    N     N_3   0.143860 0.496700 0.498910 -0.133161
O1    O     O_R   0.379740 0.682430 0.499960 -0.601873
O2    O     O_R   0.620260 0.682190 0.500020 -0.563663
O3    O     O_R   0.365800 0.500150 0.613560 -0.598629
O4    O     O_R   0.606310 0.499910 0.613620 -0.598201
O5    O     O_R   0.379740 0.317810 0.499980 -0.587189
O6    O     O_R   0.620260 0.317570 0.500040 -0.587935
O7    O     O_R   0.393690 0.500090 0.386380 -0.592899
O8    O     O_R   0.634200 0.499850 0.386440 -0.604483
N3    N     N_2   0.324301 0.118014 0.389643 -0.402379
H29   H     H_    0.396533 0.096643 0.344527 0.289340
C33   C     C_3   0.179582 0.097425 0.368455 -0.765546
H30   H     H_    0.164844 0.999499 0.349723 0.226385
H31   H     H_    0.157773 0.159849 0.319794 0.231371
H32   H     H_    0.101317 0.117288 0.417647 0.216724
C34   C     C_2   0.397311 0.877248 0.638057 0.335262
H33   H     H_    0.285928 0.896806 0.631526 0.058021
O9    O     O_2   0.429476 0.812889 0.692011 -0.561339
N4    N     N_2   0.646258 0.119809 0.366217 -0.425683
H34   H     H_    0.613496 0.210435 0.360634 0.255301
C35   C     C_3   0.781377 0.099533 0.323085 -0.732982
H35   H     H_    0.774408 0.131388 0.262600 0.237190
H36   H     H_    0.809253 0.999379 0.321734 0.234953
H37   H     H_    0.867013 0.153318 0.349264 0.210402
N5    N     N_2   0.625282 0.129391 0.618203 -0.421848
H38   H     H_    0.724290 0.095096 0.600888 0.237648
C36   C     C_3   0.604635 0.145959 0.701009 -0.670485
H39   H     H_    0.698474 0.195050 0.722474 0.215877
H40   H     H_    0.592161 0.054108 0.730096 0.248097
H41   H     H_    0.509219 0.203658 0.715700 0.225978
N6    N     N_2   0.847975 0.671918 0.591869 -0.379059
H42   H     H_    0.777951 0.672747 0.640246 0.264206
C37   C     C_3   0.930589 0.786386 0.583541 -0.783180
H43   H     H_    0.857912 0.866965 0.585317 0.220962
H44   H     H_    0.994611 0.790030 0.527766 0.218935
H45   H     H_    0.000243 0.797043 0.632331 0.218389
N7    N     N_2   0.193820 0.495557 0.897904 -0.448540
H46   H     H_    0.116155 0.540760 0.869758 0.249605
C38   C     C_3   0.146912 0.373522 0.924638 -0.734068
H47   H     H_    0.132648 0.310908 0.874584 0.225644
H48   H     H_    0.043491 0.381530 0.959009 0.224731
H49   H     H_    0.225120 0.332251 0.962106 0.245424

loop_
_geom_bond_atom_site_label_1
_geom_bond_atom_site_label_2
_ccdc_geom_bond_type
C10   C27   S    
N3    H29   S    
C14   C18   S    
C35   H37   S    
C26   H21   S    
Cu2   O2    S    
C21   H15   S    
Cu1   O1    S    
C15   C19   S    
C12   O4    A    
C17   C23   S    
C12   C28   S    
C28   C29   A    
C24   C26   S    
C3    C7    A    
C5    C6    A    
C2    H26   S    
C15   C16   S    
C37   H45   S    
C38   H49   S    
C2    C32   A    
C9    H24   S    
C11   H3    S    
C26   N2    S    
Cu2   N1    S    
C21   N2    S    
C18   H6    S    
C22   N1    S    
C8    C9    D    
C22   C25   S    
C37   H44   S    
C1    O1    A    
C5    H18   S    
C19   N4    S    
Cu2   O6    S    
Cu1   O5    S    
C8    H27   S    
C22   H16   S    
C21   H14   S    
N3    C33   S    
C23   O6    A    
N6    H42   S    
C25   H23   S    
C26   H20   S    
C17   C18   S    
C14   H11   S    
C12   O3    A    
Cu1   Cu2   S    
C35   H35   S    
C15   H7    S    
Cu2   O4    S    
C34   O9    D    
C22   H22   S    
C24   H19   S    
C23   O5    A    
C18   N5    S    
C32   N7    S    
C25   N2    S    
C11   H4    S    
C38   H48   S    
C33   H30   S    
C25   H17   S    
C29   C30   A    
C24   N6    S    
C11   C16   S    
C36   H40   S    
C31   C32   A    
C37   H43   S    
N7    C38   S    
C1    O2    A    
C1    C16   S    
C14   C34   S    
C20   C21   S    
N6    C37   S    
C33   H31   S    
N5    C36   S    
C24   N1    S    
N4    C35   S    
C30   H28   S    
C14   C16   S    
C4    C10   A    
C3    C4    A    
Cu2   O8    S    
C27   O7    A    
C19   H10   S    
Cu1   O3    S    
C36   H41   S    
C7    C9    S    
C8    C31   S    
C15   H8    S    
C13   N3    S    
C6    C7    A    
C4    H9    S    
C29   H1    S    
C13   C17   S    
C20   N1    S    
C5    C10   A    
C11   C13   S    
C36   H39   S    
C30   C31   A    
Cu1   N2    S    
N7    H46   S    
C17   C19   S    
C6    H2    S    
C38   H47   S    
C33   H32   S    
C13   H5    S    
C20   H13   S    
Cu1   O7    S    
C34   H33   S    
N5    H38   S    
N4    H34   S    
C35   H36   S    
C2    C28   A    
C20   H12   S    
C27   O8    A    
C3    H25   S    
