data_mof_unit_48138.cif
_audit_creation_date              2012-12-10T18:56:00-0500
_audit_creation_method            fapswitch 2.2
_symmetry_space_group_name_H-M    P1
_symmetry_Int_Tables_number       1
_space_group_crystal_system       triclinic
_cell_length_a                    10.670605
_cell_length_b                    9.801587
_cell_length_c                    15.127251
_cell_angle_alpha                 88.746897
_cell_angle_beta                  90.029255
_cell_angle_gamma                 89.9242
_cell_volume                      1581.76199317

loop_
_atom_site_label
_atom_site_type_symbol
_atom_type_description
_atom_site_fract_x
_atom_site_fract_y
_atom_site_fract_z
_atom_type_partial_charge
C1    C     C_R   0.260082 0.500110 0.499914 0.972866
C2    C     C_R   0.933721 0.574960 0.435085 0.039543
C3    C     C_R   0.935921 0.423890 0.567279 0.014720
C4    C     C_R   0.063773 0.575206 0.434574 0.018135
C5    C     C_R   0.464694 0.615552 0.091954 -0.226621
C6    C     C_R   0.471519 0.379641 0.908475 -0.224933
C7    C     C_R   0.545211 0.612354 0.906465 -0.214667
C8    C     C_R   0.551261 0.387612 0.094731 -0.215440
C9    C     C_R   0.485350 0.626474 0.181897 0.074946
C10   C     C_R   0.490865 0.371351 0.818185 0.077872
C11   C     C_R   0.555991 0.613191 0.815048 0.079705
C12   C     C_R   0.739676 0.499724 0.501288 0.893490
C13   C     C_R   0.563423 0.389323 0.186051 0.078407
C14   C     C_R   0.520653 0.506726 0.231404 -0.107181
C15   C     C_R   0.519993 0.493602 0.768976 -0.110200
C16   C     C_R   0.498827 0.497951 0.048364 0.082104
C17   C     C_R   0.499372 0.498524 0.952469 0.082187
C18   C     C_R   0.871739 0.499172 0.501299 -0.107614
C19   C     C_R   0.127557 0.500329 0.500435 -0.104362
C20   C     C_3   0.487379 0.771353 0.216311 -0.384246
C21   C     C_3   0.358146 0.819255 0.246994 -0.325184
C22   C     C_3   0.358405 0.972001 0.264828 -0.903215
C23   C     C_R   0.507681 0.501947 0.327634 0.874602
C24   C     C_3   0.493959 0.227289 0.782464 -0.384355
C25   C     C_3   0.364143 0.178808 0.753415 -0.317763
C26   C     C_3   0.365581 0.027066 0.732924 -0.906840
C27   C     C_3   0.615372 0.740150 0.772505 -0.400924
C28   C     C_3   0.744180 0.708502 0.732584 -0.318210
C29   C     C_3   0.813145 0.838947 0.704995 -0.892989
C30   C     C_3   0.633822 0.270041 0.229587 -0.404105
C31   C     C_3   0.759130 0.316796 0.268634 -0.311213
C32   C     C_3   0.835707 0.196240 0.304511 -0.892815
C33   C     C_R   0.507645 0.498151 0.672498 0.852155
C34   C     C_R   0.610052 0.071690 0.501565 -0.117649
C35   C     C_R   0.389820 0.928215 0.498823 -0.089334
C36   C     C_R   0.389825 0.072178 0.498539 -0.085389
C37   C     C_R   0.610084 0.927856 0.500744 -0.104309
C38   C     C_R   0.065328 0.425366 0.566804 0.064276
H1    H     H_    0.698171 0.125513 0.503408 0.133643
H2    H     H_    0.374441 0.031281 0.202435 0.256445
H3    H     H_    0.266549 0.002359 0.292773 0.246769
H4    H     H_    0.286526 0.798157 0.195685 0.211571
H5    H     H_    0.331944 0.763730 0.308632 0.263653
H6    H     H_    0.559386 0.784108 0.268367 0.221359
H7    H     H_    0.519746 0.841853 0.162290 0.181221
H8    H     H_    0.438699 0.005414 0.682991 0.272764
H9    H     H_    0.385070 0.965550 0.793948 0.254506
H10   H     H_    0.272978 0.996568 0.706348 0.249091
H11   H     H_    0.294396 0.196712 0.806506 0.212046
H12   H     H_    0.301603 0.874293 0.497765 0.143924
H13   H     H_    0.334475 0.236457 0.693344 0.262638
H14   H     H_    0.564708 0.216277 0.729417 0.216758
H15   H     H_    0.528656 0.156012 0.835394 0.180872
H16   H     H_    0.754593 0.902012 0.659303 0.257964
H17   H     H_    0.836013 0.899527 0.764059 0.255522
H18   H     H_    0.901789 0.812448 0.670929 0.250432
H19   H     H_    0.802447 0.651414 0.781900 0.215581
H20   H     H_    0.733262 0.644363 0.673755 0.225860
H21   H     H_    0.552413 0.789511 0.723220 0.230607
H22   H     H_    0.629219 0.820060 0.822716 0.185217
H23   H     H_    0.301597 0.126394 0.497465 0.143243
H24   H     H_    0.781059 0.137352 0.354592 0.259863
H25   H     H_    0.862045 0.127785 0.249976 0.252285
H26   H     H_    0.922604 0.234209 0.336026 0.251136
H27   H     H_    0.814732 0.371043 0.216634 0.210695
H28   H     H_    0.742633 0.388473 0.323032 0.232417
H29   H     H_    0.575681 0.215757 0.279686 0.231010
H30   H     H_    0.655034 0.190858 0.180145 0.183719
H31   H     H_    0.109862 0.250127 0.632887 0.195472
H32   H     H_    0.108389 0.391146 0.695859 0.194310
H33   H     H_    0.887835 0.611291 0.306158 0.166902
H34   H     H_    0.698299 0.873625 0.500981 0.148165
H35   H     H_    0.886654 0.751607 0.370344 0.182261
H36   H     H_    0.822843 0.268093 0.608386 0.200986
H37   H     H_    0.808670 0.412994 0.667553 0.162411
H38   H     H_    0.107483 0.750981 0.368314 0.179260
H39   H     H_    0.107398 0.609354 0.305310 0.175572
H40   H     H_    0.429818 0.703308 0.054515 0.135558
H41   H     H_    0.441286 0.289747 0.945708 0.134526
H42   H     H_    0.576814 0.699975 0.942791 0.127031
H43   H     H_    0.587656 0.301700 0.058812 0.127434
H44   H     H_    0.433347 0.996975 0.312746 0.272553
N1    N     N_R   0.500000 0.857200 0.500000 -0.074890
N2    N     N_R   0.500000 0.142800 0.500000 -0.073329
N3    N     N_3   0.134499 0.353286 0.634448 -0.472992
N4    N     N_3   0.863498 0.648166 0.368139 -0.465431
N5    N     N_3   0.871969 0.348591 0.636236 -0.473786
N6    N     N_3   0.132056 0.647791 0.366815 -0.479532
O1    O     O_R   0.316770 0.614620 0.499990 -0.621192
O2    O     O_R   0.683230 0.385380 0.500010 -0.643028
O3    O     O_R   0.683230 0.614620 0.500010 -0.615839
O4    O     O_R   0.316770 0.385380 0.499990 -0.623060
O5    O     O_R   0.499990 0.614660 0.369060 -0.618761
O6    O     O_R   0.500010 0.385340 0.630940 -0.624807
O7    O     O_R   0.500010 0.614660 0.630940 -0.618088
O8    O     O_R   0.499990 0.385340 0.369060 -0.616390
Zn1   Zn    Zn3+2 0.500000 0.653120 0.500000 0.940267
Zn2   Zn    Zn3+2 0.500000 0.346880 0.500000 0.930153

loop_
_geom_bond_atom_site_label_1
_geom_bond_atom_site_label_2
_ccdc_geom_bond_type
C24   H14   S    
C31   H28   S    
C8    C13   A    
C2    C18   A    
C34   C37   A    
C12   O3    A    
C35   C36   A    
C33   O6    A    
O4    Zn2   S    
C28   H19   S    
C7    C11   A    
C22   H44   S    
C12   O2    A    
C28   C29   S    
C10   C15   A    
C30   C31   S    
C22   H3    S    
C29   H16   S    
O6    Zn2   S    
C23   O8    A    
C3    C18   A    
C5    C16   A    
C21   H5    S    
C4    C19   A    
C11   C15   A    
C3    C38   A    
C16   C17   S    
C7    C17   A    
O8    Zn2   S    
H36   N5    S    
H38   N6    S    
C20   H7    S    
C26   H10   S    
C8    C16   A    
C21   C22   S    
C34   N2    A    
C33   O7    A    
C20   H6    S    
C1    C19   S    
C38   N3    S    
C3    N5    S    
C8    H43   S    
C13   C30   S    
C24   C25   S    
C32   H26   S    
C35   N1    A    
C29   H17   S    
C10   C24   S    
C24   H15   S    
C34   H1    S    
O1    Zn1   S    
C14   C23   S    
C2    C4    A    
C9    C14   A    
C25   H13   S    
C5    C9    A    
C19   C38   A    
H33   N4    S    
C9    C20   S    
C31   C32   S    
C11   C27   S    
C22   H2    S    
C35   H12   S    
O3    Zn1   S    
C26   H9    S    
H37   N5    S    
C1    O4    A    
C36   H23   S    
H39   N6    S    
O5    Zn1   S    
H31   N3    S    
C31   H27   S    
C6    C17   A    
C1    O1    A    
C30   H29   S    
C32   H25   S    
C6    C10   A    
O7    Zn1   S    
C4    N6    S    
C29   H18   S    
C28   H20   S    
C27   H22   S    
N2    Zn2   S    
C25   C26   S    
C32   H24   S    
C27   H21   S    
C6    H41   S    
C36   N2    A    
O2    Zn2   S    
C2    N4    S    
C25   H11   S    
H35   N4    S    
C26   H8    S    
C21   H4    S    
C23   O5    A    
C20   C21   S    
N1    Zn1   S    
C37   H34   S    
C12   C18   S    
C27   C28   S    
C37   N1    A    
C5    H40   S    
C13   C14   A    
H32   N3    S    
C15   C33   S    
C30   H30   S    
C7    H42   S    
