data_mof_unit_33178.cif
_audit_creation_date              2012-12-11T15:31:42-0500
_audit_creation_method            fapswitch 2.2
_symmetry_space_group_name_H-M    P1
_symmetry_Int_Tables_number       1
_space_group_crystal_system       triclinic
_cell_length_a                    6.945811
_cell_length_b                    14.777951
_cell_length_c                    21.327786
_cell_angle_alpha                 74.58985
_cell_angle_beta                  90.345052
_cell_angle_gamma                 90.258398
_cell_volume                      2110.43469723

loop_
_atom_site_label
_atom_site_type_symbol
_atom_type_description
_atom_site_fract_x
_atom_site_fract_y
_atom_site_fract_z
_atom_type_partial_charge
O1    O     O_R   0.648150 0.130050 0.214300 -0.555798
O2    O     O_R   0.351850 0.869950 0.785700 -0.534829
O3    O     O_R   0.320490 0.006660 0.340150 -0.542415
O4    O     O_R   0.679510 0.993340 0.659850 -0.535941
O5    O     O_R   0.146100 0.869940 0.285700 -0.529642
O6    O     O_R   0.853900 0.130060 0.714300 -0.532885
C1    C     C_R   0.488898 0.001785 0.367012 0.758134
C2    C     C_R   0.510347 0.997641 0.633119 0.756520
O7    O     O_R   0.318690 0.137980 0.218120 -0.529781
O8    O     O_R   0.681310 0.862020 0.781880 -0.546700
O9    O     O_R   0.144280 0.002190 0.162800 -0.531483
O10   O     O_R   0.855720 0.997810 0.837200 -0.539303
C3    C     C_R   0.488097 0.176066 0.206185 0.752834
C4    C     C_R   0.512810 0.824226 0.795114 0.758641
O11   O     O_R   0.649960 0.997790 0.337200 -0.528349
O12   O     O_R   0.350040 0.002210 0.662800 -0.531682
O13   O     O_3   0.479300 0.955290 0.231990 -0.375749
O14   O     O_3   0.520700 0.044710 0.768010 -0.379370
V1    V     V_3+5 0.206040 0.008290 0.253340 1.531952
V2    V     V_3+5 0.793960 0.991710 0.746660 1.535043
O15   O     O_R   0.814320 0.993320 0.159850 -0.553290
O16   O     O_R   0.185680 0.006680 0.840150 -0.549046
C5    C     C_R   0.982453 0.997849 0.133019 0.726455
C6    C     C_R   0.017520 0.000950 0.867122 0.726852
O17   O     O_R   0.816120 0.862000 0.281880 -0.530883
O18   O     O_R   0.183880 0.138000 0.718120 -0.530350
C7    C     C_R   0.985536 0.824489 0.293758 0.801565
C8    C     C_R   0.015607 0.175496 0.706217 0.801536
V3    V     V_3+5 0.705540 0.991700 0.246660 1.508999
V4    V     V_3+5 0.294460 0.008300 0.753340 1.533177
O19   O     O_3   0.982150 0.044700 0.268010 -0.381302
O20   O     O_3   0.017850 0.955300 0.731990 -0.375418
C9    C     C_R   0.001141 0.723402 0.322602 -0.087221
C10   C     C_R   0.012832 0.276637 0.676642 -0.096787
C11   C     C_R   0.110180 0.573416 0.309748 0.398415
C12   C     C_R   0.043614 0.433067 0.692057 0.409862
C13   C     C_R   0.068181 0.668495 0.283351 -0.266254
C14   C     C_R   0.031223 0.335709 0.717573 -0.269216
C15   C     C_R   0.975013 0.684134 0.389934 -0.048069
C16   C     C_R   0.008527 0.313665 0.608390 -0.044413
C17   C     C_R   0.042052 0.591218 0.419019 -0.048865
C18   C     C_R   0.044754 0.411477 0.581411 -0.057792
C19   C     C_R   0.100086 0.535060 0.377568 0.097693
C20   C     C_R   0.051721 0.470965 0.624165 0.093493
C21   C     C_R   0.054360 0.551646 0.487901 0.085540
C22   C     C_R   0.072873 0.453083 0.513354 0.083339
C23   C     C_R   0.138562 0.401233 0.471067 -0.230602
C24   C     C_R   0.070009 0.607633 0.531831 -0.229225
C25   C     C_R   0.152663 0.441457 0.404680 -0.117688
C26   C     C_R   0.070651 0.568070 0.598478 -0.117663
H1    H     H_    0.204463 0.398191 0.374573 0.197648
H2    H     H_    0.084192 0.614607 0.629885 0.189090
H3    H     H_    0.033840 0.305597 0.769812 0.104032
H4    H     H_    0.087038 0.700082 0.231711 0.099936
H5    H     H_    0.190567 0.330274 0.489009 0.158550
H6    H     H_    0.093797 0.682428 0.515493 0.155698
C27   C     C_3   0.940360 0.917704 0.992645 0.421914
C28   C     C_3   0.058522 0.079266 0.007480 0.421572
C29   C     C_3   0.113514 0.929127 0.035506 -0.254353
C30   C     C_3   0.885488 0.067810 0.964780 -0.264000
H7    H     H_    0.203908 0.870972 0.064468 0.130716
H8    H     H_    0.795195 0.126015 0.935819 0.127572
C31   C     C_3   0.989905 0.996852 0.062816 -0.080749
C32   C     C_3   0.009340 0.000342 0.937469 -0.072947
C33   C     C_3   0.814977 0.983281 0.020618 -0.216345
C34   C     C_3   0.184084 0.013707 0.979668 -0.210232
H9    H     H_    0.664191 0.968781 0.037408 0.139199
H10   H     H_    0.334864 0.028284 0.962890 0.138168
C35   C     C_3   0.662031 0.038324 0.471595 -0.179934
C36   C     C_3   0.332750 0.961087 0.528801 -0.187752
C37   C     C_3   0.512906 0.086640 0.505319 0.055656
C38   C     C_3   0.480487 0.912425 0.494982 0.052049
H11   H     H_    0.797042 0.070766 0.448181 0.131427
H12   H     H_    0.197577 0.929024 0.552335 0.132011
C39   C     C_3   0.500632 0.998347 0.562700 -0.038489
C40   C     C_3   0.494743 0.000700 0.437564 -0.036510
C41   C     C_3   0.648690 0.948475 0.529602 -0.175472
C42   C     C_3   0.345954 0.050248 0.470590 -0.176870
H13   H     H_    0.772422 0.905667 0.553931 0.138771
H14   H     H_    0.221911 0.092763 0.446206 0.127520
C43   C     C_R   0.502574 0.279187 0.180591 -0.140549
C44   C     C_R   0.506546 0.721226 0.821530 -0.139437
C45   C     C_R   0.586939 0.434501 0.193047 -0.004872
C46   C     C_R   0.549246 0.562966 0.809003 0.001671
C47   C     C_R   0.565822 0.336119 0.220437 -0.130936
C48   C     C_R   0.550900 0.661677 0.781758 -0.129561
C49   C     C_R   0.456557 0.319245 0.115102 0.277984
C50   C     C_R   0.467029 0.683997 0.887844 0.293666
C51   C     C_R   0.505185 0.414363 0.084766 -0.037742
C52   C     C_R   0.502705 0.587337 0.918193 -0.039630
C53   C     C_R   0.557448 0.473486 0.124920 0.041711
C54   C     C_R   0.531534 0.526090 0.877665 0.057543
C55   C     C_R   0.510421 0.451485 0.015470 0.076326
C56   C     C_R   0.516649 0.550018 0.987443 0.080397
C57   C     C_R   0.562141 0.607214 0.028711 -0.210571
C58   C     C_R   0.535635 0.392855 0.973911 -0.214904
C59   C     C_R   0.588331 0.569591 0.095218 -0.166004
C60   C     C_R   0.551730 0.429370 0.907121 -0.146610
H15   H     H_    0.636046 0.617599 0.122432 0.159046
H16   H     H_    0.585264 0.380186 0.879300 0.157865
H17   H     H_    0.594913 0.680838 0.009579 0.185136
H18   H     H_    0.560162 0.318374 0.992788 0.176289
O21   O     O_3   0.386235 0.743451 0.920532 -0.643136
H19   H     H_    0.298374 0.705854 0.954043 0.299436
O22   O     O_3   0.353687 0.264714 0.083289 -0.628673
H20   H     H_    0.266299 0.306847 0.051811 0.314125
C61   C     C_2   0.583326 0.704699 0.710993 0.366396
H21   H     H_    0.501885 0.766235 0.685653 -0.000365
O23   O     O_2   0.707291 0.675500 0.681156 -0.547246
C62   C     C_2   0.597902 0.291556 0.291320 0.319723
H22   H     H_    0.641493 0.218684 0.308064 0.025536
O24   O     O_2   0.568522 0.334116 0.332155 -0.543888
C63   C     C_2   0.655751 0.493867 0.235186 0.451812
H23   H     H_    0.776757 0.470834 0.267813 0.090313
O25   O     O_2   0.573007 0.566185 0.236122 -0.531412
C64   C     C_2   0.559859 0.499299 0.765358 0.375144
H24   H     H_    0.663004 0.511376 0.726237 0.135512
O26   O     O_2   0.448584 0.433343 0.771803 -0.538951
C65   C     C_2   0.941787 0.253144 0.566585 0.391327
H25   H     H_    0.857747 0.283972 0.523237 0.064880
O27   O     O_2   0.983753 0.170127 0.578502 -0.528616
C66   C     C_2   0.857780 0.735389 0.427532 0.383612
H26   H     H_    0.761056 0.696210 0.464807 0.077679
O28   O     O_2   0.873079 0.820053 0.419429 -0.526832
O29   O     O_3   0.166201 0.517514 0.270411 -0.636818
H27   H     H_    0.161955 0.554787 0.224285 0.301699
O30   O     O_3   0.051805 0.492205 0.732569 -0.636611
H28   H     H_    0.040194 0.454535 0.778419 0.301781
O31   O     O_3   0.877991 0.832087 0.983452 -0.639195
H29   H     H_    0.851732 0.791611 0.027691 0.270784
O32   O     O_3   0.119619 0.165280 0.015943 -0.629346
H30   H     H_    0.156944 0.203428 0.972030 0.279865
C67   C     C_2   0.520850 0.186279 0.508920 0.332299
H31   H     H_    0.544144 0.242181 0.465017 0.083266
O33   O     O_2   0.498288 0.205315 0.560660 -0.526518
C68   C     C_2   0.454197 0.813176 0.491817 0.362236
H32   H     H_    0.465457 0.756336 0.535929 0.047995
O34   O     O_2   0.417388 0.795739 0.440234 -0.524541

loop_
_geom_bond_atom_site_label_1
_geom_bond_atom_site_label_2
_ccdc_geom_bond_type
C34   H10   S    
C31   C33   S    
C55   C56   A    
O11   V3    S    
C58   H18   S    
C36   C42   S    
O13   V3    S    
C45   C63   S    
C35   C41   S    
C48   C61   S    
O4    C2    A    
V1    O19   S    
C54   C60   A    
C23   C25   A    
C21   C22   A    
C7    C9    S    
O9    V1    S    
C9    C15   A    
C15   C66   S    
C10   C16   A    
C27   O31   S    
C11   C13   A    
C40   C42   S    
O31   H29   S    
O3    C1    A    
C29   C34   S    
C42   H14   S    
C38   C68   S    
C28   C30   S    
C3    C43   S    
C64   H24   S    
C35   C40   S    
C30   H8    S    
C18   C22   A    
O9    C5    A    
C35   C37   S    
O7    C3    A    
C62   H22   S    
C11   O29   S    
O5    C7    A    
C28   C34   S    
O6    C8    A    
O8    V2    S    
C25   H1    S    
C58   C60   A    
C36   H12   S    
C26   H2    S    
C61   H21   S    
O3    V1    S    
O14   V4    S    
C51   C53   A    
C11   C19   A    
C17   C19   A    
C38   C40   S    
C5    C31   S    
C8    C10   S    
C2    O12   A    
C16   C18   A    
C61   O23   D    
C18   C20   A    
C59   H15   S    
O7    V1    S    
C52   C56   A    
C41   H13   S    
O17   V3    S    
C29   H7    S    
V4    O20   S    
C68   O34   D    
C47   C62   S    
O8    C4    A    
C19   C25   A    
C1    O11   A    
C33   H9    S    
C44   C48   A    
O15   V3    S    
C2    C39   S    
C9    C13   A    
C32   C34   S    
C38   C41   S    
C52   C54   A    
C49   O22   S    
C28   O32   S    
O10   V2    S    
O1    V3    S    
C53   C59   A    
C35   H11   S    
C39   C41   S    
C43   C49   A    
C65   O27   D    
C13   H4    S    
C45   C47   A    
C50   C52   A    
C30   C33   S    
O18   V4    S    
C55   C58   A    
C60   H16   S    
O15   C5    A    
O29   H27   S    
O16   C6    A    
C46   C64   S    
C12   C20   A    
C12   O30   S    
O1    C3    A    
C4    C44   S    
C66   O28   D    
O30   H28   S    
O21   H19   S    
C50   O21   S    
C45   C53   A    
C27   C32   S    
C23   H5    S    
C63   H23   S    
V2    O20   S    
C21   C24   A    
C20   C26   A    
C28   C31   S    
C24   H6    S    
C22   C23   A    
O16   V4    S    
C10   C14   A    
C29   C31   S    
C27   C33   S    
C68   H32   S    
C37   C67   S    
C65   H25   S    
C57   C59   A    
C1    C40   S    
O5    V1    S    
O17   C7    A    
O6    V2    S    
O22   H20   S    
O10   C6    A    
O18   C8    A    
O2    V4    S    
C30   C32   S    
C12   C14   A    
V3    O19   S    
C37   C39   S    
C67   H31   S    
C14   H3    S    
C44   C50   A    
C24   C26   A    
O13   V1    S    
C64   O26   D    
O14   V2    S    
C51   C55   A    
C56   C57   A    
O2    C4    A    
C62   O24   D    
C27   C29   S    
O4    V2    S    
C57   H17   S    
C16   C65   S    
C15   C17   A    
C6    C32   S    
C36   C39   S    
C67   O33   D    
C49   C51   A    
C17   C21   A    
C46   C48   A    
C36   C38   S    
C46   C54   A    
C66   H26   S    
O12   V4    S    
C37   C42   S    
C43   C47   A    
O32   H30   S    
C63   O25   D    
