data_mof_unit_45468.cif
_audit_creation_date              2013-03-05T15:57:02-0500
_audit_creation_method            fapswitch 2.2
_symmetry_space_group_name_H-M    P1
_symmetry_Int_Tables_number       1
_space_group_crystal_system       triclinic
_cell_length_a                    14.716902
_cell_length_b                    7.212604
_cell_length_c                    13.616761
_cell_angle_alpha                 90.000273
_cell_angle_beta                  100.279788
_cell_angle_gamma                 89.999661
_cell_volume                      1422.17968729

loop_
_atom_site_label
_atom_site_type_symbol
_atom_site_description
_atom_site_fract_x
_atom_site_fract_y
_atom_site_fract_z
_atom_type_partial_charge
O1    O     O_R   0.336930 0.638190 0.166330 -0.558471
O2    O     O_R   0.663070 0.361810 0.833670 -0.558465
O3    O     O_R   0.163070 0.138190 0.333670 -0.558487
O4    O     O_R   0.836930 0.861810 0.666330 -0.558489
O5    O     O_R   0.147900 0.305430 0.139630 -0.587125
O6    O     O_R   0.852100 0.694570 0.860370 -0.587125
O7    O     O_R   0.352100 0.805430 0.360370 -0.587123
O8    O     O_R   0.647900 0.194570 0.639630 -0.587121
C1    C     C_R   0.115204 0.477530 0.113256 0.967884
C2    C     C_R   0.884796 0.522470 0.886744 0.967884
C3    C     C_R   0.384796 0.977530 0.386744 0.967916
C4    C     C_R   0.615204 0.022470 0.613256 0.967931
O9    O     O_R   0.335280 0.308290 0.154310 -0.570227
O10   O     O_R   0.664720 0.691710 0.845690 -0.570229
O11   O     O_R   0.164720 0.808290 0.345690 -0.570234
O12   O     O_R   0.835280 0.191710 0.654310 -0.570236
O13   O     O_R   0.351790 0.140890 0.348460 -0.581189
O14   O     O_R   0.648210 0.859110 0.651540 -0.581190
O15   O     O_R   0.148210 0.640890 0.151540 -0.581189
O16   O     O_R   0.851790 0.359110 0.848460 -0.581190
C5    C     C_R   0.362890 0.478409 0.131808 0.963012
C6    C     C_R   0.637110 0.521591 0.868191 0.963018
C7    C     C_R   0.137110 0.978411 0.368192 0.962997
C8    C     C_R   0.862889 0.021589 0.631808 0.962994
O17   O     O_3   0.255200 0.472570 0.313680 -0.252337
O18   O     O_3   0.744800 0.527430 0.686320 -0.252339
O19   O     O_3   0.244800 0.972570 0.186320 -0.252322
O20   O     O_3   0.755200 0.027430 0.813680 -0.252322
V1    V     V_3+5 0.249040 0.196590 0.238190 1.282209
V2    V     V_3+5 0.750960 0.803410 0.761810 1.282213
V3    V     V_3+5 0.250960 0.696590 0.261810 1.282209
V4    V     V_3+5 0.749040 0.303410 0.738190 1.282214
C9    C     C_R   0.042418 0.833718 0.483886 -0.201452
C10   C     C_R   0.957582 0.166282 0.516114 -0.201451
C11   C     C_R   0.457609 0.333703 0.016141 -0.201593
C12   C     C_R   0.542387 0.666299 0.983854 -0.201582
H1    H     H_    0.074317 0.703843 0.472629 0.244470
H2    H     H_    0.925683 0.296158 0.527371 0.244471
H3    H     H_    0.425733 0.203816 0.027420 0.244463
H4    H     H_    0.574262 0.796187 0.972573 0.244470
C13   C     C_R   0.973924 0.837209 0.543385 0.416558
C14   C     C_R   0.026076 0.162791 0.456616 0.416557
C15   C     C_R   0.526101 0.337206 0.956642 0.416579
C16   C     C_R   0.473898 0.662796 0.043357 0.416560
C17   C     C_R   0.931218 0.006811 0.562198 -0.359406
C18   C     C_R   0.068783 0.993189 0.437802 -0.359406
C19   C     C_R   0.568780 0.506819 0.937799 -0.359329
C20   C     C_R   0.431218 0.493183 0.062198 -0.359324
C21   C     C_1   0.533946 0.008265 0.533167 -0.191289
C22   C     C_1   0.466053 0.991734 0.466833 -0.191289
C23   C     C_1   0.966053 0.508265 0.966833 -0.191282
C24   C     C_1   0.033946 0.491735 0.033167 -0.191283
N1    N     N_R   0.945671 0.664684 0.579353 0.234869
O21   O     O_R   0.005234 0.561245 0.636828 -0.418652
O22   O     O_R   0.864614 0.598688 0.541846 -0.388808
N2    N     N_R   0.054328 0.335317 0.420646 0.234868
O23   O     O_R   0.994765 0.438756 0.363173 -0.418648
O24   O     O_R   0.135386 0.401313 0.458151 -0.388809
N3    N     N_R   0.554379 0.164683 0.920694 0.234860
O25   O     O_R   0.494871 0.061332 0.863100 -0.418679
O26   O     O_R   0.635429 0.098693 0.958232 -0.388839
N4    N     N_R   0.445627 0.835318 0.079312 0.234849
O27   O     O_R   0.505153 0.938695 0.136870 -0.418673
O28   O     O_R   0.364574 0.901311 0.041785 -0.388853

loop_
_geom_bond_atom_site_label_1
_geom_bond_atom_site_label_2
_geom_bond_distance
_ccdc_geom_bond_type
O2    C6    1.326320 A    
C11   H3    1.070995 S    
O1    C5    1.326320 A    
N4    O27   1.301001 A    
O14   V2    1.972871 S    
O7    C3    1.356331 A    
O19   V1    1.760033 S    
C11   C15   1.401632 A    
O3    C7    1.326315 A    
C10   C14   1.401639 A    
C15   N3    1.426126 S    
O8    C4    1.356331 A    
C5    C20   1.503718 S    
O15   V3    1.972871 S    
O10   C6    1.344980 A    
O11   C7    1.344988 A    
C4    C21   1.471204 S    
C9    C13   1.401639 A    
N3    O25   1.300982 A    
O12   C8    1.344987 A    
C10   C17   1.397926 A    
N1    O21   1.301016 A    
O18   V4    1.760038 S    
C9    C18   1.397927 A    
C13   N1    1.426150 S    
O5    C1    1.356330 A    
C1    C24   1.471204 S    
O10   V2    2.020364 S    
C11   C20   1.397926 A    
O20   V2    1.760033 S    
O6    V2    1.979888 S    
N2    O24   1.301155 A    
C6    C19   1.503715 S    
O5    V1    1.979889 S    
N1    O22   1.301156 A    
O1    V3    2.013852 S    
C14   C18   1.419332 A    
O13   V1    1.972869 S    
O4    C8    1.326315 A    
O4    V2    2.013859 S    
C12   C16   1.401633 A    
N3    O26   1.301147 A    
O6    C2    1.356330 A    
C2    C23   1.471204 S    
O9    C5    1.344982 A    
C23   C24   1.227317 T    
O8    V4    1.979890 S    
C8    C17   1.503716 S    
C12   H4    1.070996 S    
C7    C18   1.503717 S    
O7    V3    1.979890 S    
N2    O23   1.301009 A    
O11   V3    2.020354 S    
C12   C19   1.397923 A    
O2    V4    2.013854 S    
C21   C22   1.227318 T    
O16   V4    1.972871 S    
C4    O14   1.343722 A    
C3    C22   1.471204 S    
C13   C17   1.419331 A    
O12   V4    2.020353 S    
C3    O13   1.343723 A    
O3    V1    2.013859 S    
N4    O28   1.301157 A    
C14   N2    1.426152 S    
C10   H2    1.071003 S    
C15   C19   1.419315 A    
O17   V3    1.760038 S    
C1    O15   1.343722 A    
C9    H1    1.071002 S    
C16   C20   1.419320 A    
O9    V1    2.020363 S    
C2    O16   1.343722 A    
C16   N4    1.426133 S    
