data_mof_unit_9519.cif
_audit_creation_date              2012-12-11T16:07:14-0500
_audit_creation_method            fapswitch 2.2
_symmetry_space_group_name_H-M    P1
_symmetry_Int_Tables_number       1
_space_group_crystal_system       triclinic
_cell_length_a                    17.086409
_cell_length_b                    17.065611
_cell_length_c                    17.530042
_cell_angle_alpha                 89.953229
_cell_angle_beta                  90.04174
_cell_angle_gamma                 89.942846
_cell_volume                      5111.57950557

loop_
_atom_site_label
_atom_site_type_symbol
_atom_type_description
_atom_site_fract_x
_atom_site_fract_y
_atom_site_fract_z
_atom_type_partial_charge
C1    C     C_R   0.389139 0.702260 0.587263 0.706602
C2    C     C_R   0.586254 0.678042 0.639765 0.494940
C3    C     C_3   0.802314 0.197439 0.627986 0.291303
C4    C     C_3   0.793939 0.806872 0.369695 0.339986
C5    C     C_3   0.255676 0.254945 0.734767 0.224293
C6    C     C_3   0.744323 0.256622 0.265356 0.222322
C7    C     C_3   0.197991 0.803339 0.627442 0.289589
C8    C     C_3   0.695932 0.700797 0.871166 0.292610
C9    C     C_3   0.245056 0.244567 0.234959 0.225519
C10   C     C_3   0.755452 0.244818 0.764625 0.224087
C11   C     C_3   0.306037 0.698166 0.125420 0.280626
C12   C     C_3   0.301792 0.302562 0.871618 0.290163
C13   C     C_R   0.677642 0.414913 0.359786 0.486090
C14   C     C_3   0.760641 0.746945 0.233793 0.295992
C15   C     C_3   0.242905 0.755483 0.764656 0.218501
C16   C     C_3   0.697681 0.302570 0.128057 0.286682
C17   C     C_3   0.374939 0.825391 0.529409 -0.084271
C18   C     C_3   0.565958 0.190312 0.340849 0.186491
C19   C     C_3   0.808982 0.561203 0.663843 0.184282
C20   C     C_3   0.173994 0.374308 0.470189 -0.091491
C21   C     C_3   0.625556 0.174429 0.528624 -0.098505
C22   C     C_3   0.434174 0.809071 0.341015 0.169868
C23   C     C_3   0.189596 0.432569 0.657495 0.188160
C24   C     C_R   0.297897 0.611086 0.586901 0.702316
C25   C     C_3   0.820268 0.627925 0.479011 -0.065033
C26   C     C_3   0.374444 0.174807 0.471755 -0.096778
C27   C     C_3   0.572643 0.811397 0.651427 0.184063
C28   C     C_3   0.809480 0.434926 0.341433 0.189639
C29   C     C_3   0.176982 0.625738 0.525549 -0.075637
C30   C     C_3   0.622435 0.831012 0.461309 -0.132476
C31   C     C_3   0.434508 0.189771 0.659531 0.180266
C32   C     C_3   0.192805 0.562710 0.337066 0.176377
C33   C     C_3   0.825424 0.374028 0.528393 -0.094083
C34   C     C_3   0.874151 0.324912 0.028579 -0.085878
C35   C     C_R   0.609720 0.702656 0.413609 0.727790
C36   C     C_3   0.064156 0.690644 0.839641 0.173368
C37   C     C_3   0.310338 0.066307 0.159102 0.186690
C38   C     C_3   0.669151 0.876509 0.960344 -0.105655
C39   C     C_3   0.125083 0.676115 0.027883 -0.052981
C40   C     C_3   0.933820 0.310301 0.840712 0.176454
C41   C     C_3   0.690526 0.924104 0.147653 0.198244
C42   C     C_3   0.325136 0.125326 0.971251 -0.079799
C43   C     C_3   0.873099 0.676152 0.974687 0.035598
C44   C     C_3   0.067372 0.310582 0.157999 0.177398
C45   C     C_3   0.309721 0.932947 0.841439 0.188602
C46   C     C_R   0.414378 0.321746 0.639903 0.486202
C47   C     C_3   0.674925 0.124748 0.030197 -0.064663
C48   C     C_3   0.125599 0.325904 0.970167 -0.098766
C49   C     C_3   0.966637 0.704418 0.186070 0.148236
C50   C     C_3   0.689588 0.067732 0.841552 0.175300
C51   C     C_3   0.324978 0.874821 0.029043 -0.087464
C52   C     C_3   0.123076 0.112971 0.443617 -0.104383
C53   C     C_3   0.837624 0.812548 0.663868 -0.028083
C54   C     C_3   0.181226 0.823855 0.334618 -0.033603
C55   C     C_3   0.876133 0.111435 0.556459 -0.112009
C56   C     C_3   0.853965 0.903982 0.440279 -0.087788
C57   C     C_R   0.324116 0.584112 0.358157 0.483981
C58   C     C_3   0.170986 0.177682 0.665034 -0.009097
C59   C     C_3   0.829871 0.180764 0.335822 -0.026596
C60   C     C_3   0.126214 0.890109 0.554578 -0.104313
C61   C     C_3   0.615779 0.622640 0.944839 -0.122366
C62   C     C_3   0.321885 0.329853 0.165482 -0.008178
C63   C     C_3   0.669972 0.321743 0.833839 -0.000495
C64   C     C_3   0.381653 0.615674 0.051746 -0.112266
C65   C     C_3   0.374421 0.389413 0.943278 -0.099178
C66   C     C_3   0.687366 0.659794 0.162922 0.008052
C67   C     C_3   0.327115 0.677744 0.834784 -0.008022
C68   C     C_R   0.702246 0.388914 0.585908 0.708433
C69   C     C_3   0.623967 0.387863 0.055374 -0.094125
C70   C     C_R   0.889085 0.202234 0.087137 0.708328
C71   C     C_R   0.085029 0.822367 0.859616 0.487322
C72   C     C_R   0.178359 0.085841 0.139780 0.484784
C73   C     C_R   0.585352 0.322400 0.359674 0.485302
C74   C     C_R   0.797597 0.889654 0.913053 0.720038
C75   C     C_R   0.110687 0.797710 0.088146 0.552500
C76   C     C_R   0.914254 0.178253 0.860090 0.485547
C77   C     C_R   0.824332 0.914454 0.141204 0.504570
C78   C     C_R   0.202155 0.110910 0.913379 0.703079
C79   C     C_R   0.888669 0.797878 0.913902 0.708917
C80   C     C_R   0.085931 0.178296 0.139760 0.486457
C81   C     C_R   0.177591 0.914569 0.859685 0.484745
C82   C     C_R   0.797950 0.110913 0.087785 0.692932
C83   C     C_R   0.110900 0.202273 0.913382 0.712444
C84   C     C_R   0.678223 0.585126 0.640017 0.484777
C85   C     C_R   0.913858 0.818087 0.136740 0.488593
C86   C     C_R   0.821749 0.085998 0.860176 0.488551
C87   C     C_R   0.202149 0.888994 0.087160 0.714742
C88   C     C_3   0.260400 0.260610 0.355634 -0.405085
C89   C     C_3   0.682536 0.681556 0.749577 -0.392062
C90   C     C_3   0.323233 0.679568 0.246969 -0.398895
C91   C     C_3   0.739689 0.260322 0.643925 -0.405160
C92   C     C_3   0.737354 0.738834 0.354207 -0.421422
C93   C     C_3   0.318216 0.318132 0.749836 -0.394742
C94   C     C_3   0.681261 0.319293 0.249657 -0.398512
C95   C     C_R   0.297768 0.389103 0.413821 0.712407
C96   C     C_3   0.259959 0.739956 0.644228 -0.405294
C97   C     C_3   0.761198 0.760620 0.854688 -0.409177
C98   C     C_3   0.182000 0.181852 0.249891 -0.392599
C99   C     C_3   0.818318 0.181784 0.749859 -0.394715
C100  C     C_3   0.241968 0.759289 0.143256 -0.400600
C101  C     C_3   0.239508 0.239504 0.855418 -0.405701
C102  C     C_3   0.817469 0.815276 0.248188 -0.401134
C103  C     C_3   0.180677 0.819047 0.749159 -0.394493
C104  C     C_3   0.760447 0.240027 0.144924 -0.406436
C105  C     C_R   0.309611 0.690610 0.595546 -0.301459
C106  C     C_R   0.611033 0.297684 0.586222 0.711301
C107  C     C_R   0.645895 0.354382 0.317272 -0.050005
C108  C     C_R   0.647027 0.646270 0.682099 -0.057341
C109  C     C_R   0.309409 0.309478 0.405416 -0.301763
C110  C     C_R   0.690644 0.309272 0.594141 -0.302804
C111  C     C_R   0.357218 0.643925 0.315199 -0.046580
C112  C     C_R   0.353371 0.353182 0.682039 -0.054954
C113  C     C_R   0.689277 0.691426 0.405693 -0.299925
C114  C     C_R   0.809668 0.190489 0.096102 -0.297922
C115  C     C_R   0.145637 0.854091 0.817133 -0.052208
C116  C     C_R   0.146960 0.146856 0.181949 -0.055939
C117  C     C_R   0.416161 0.676624 0.358745 0.487644
C118  C     C_R   0.809171 0.809868 0.905007 -0.311558
C119  C     C_R   0.190515 0.809421 0.096381 -0.245492
C120  C     C_R   0.853286 0.146862 0.817907 -0.053449
C121  C     C_R   0.854491 0.850881 0.181182 -0.076973
C122  C     C_R   0.190461 0.190536 0.905020 -0.302267
C123  C     C_3   0.732655 0.643664 0.813059 0.507691
C124  C     C_3   0.207006 0.297834 0.294277 0.468304
C125  C     C_3   0.702543 0.206640 0.705101 0.474109
C126  C     C_3   0.359440 0.735040 0.186870 0.514842
C127  C     C_3   0.264634 0.356019 0.810353 0.497211
C128  C     C_R   0.321807 0.414103 0.639757 0.489195
C129  C     C_3   0.797766 0.701532 0.299795 0.510235
C130  C     C_3   0.296779 0.793304 0.705793 0.479844
C131  C     C_3   0.643942 0.265624 0.188979 0.509588
C132  C     C_3   0.734494 0.356890 0.188679 0.498503
C133  C     C_3   0.205108 0.703154 0.704432 0.496093
C134  C     C_3   0.700792 0.785038 0.287143 0.437432
C135  C     C_3   0.355886 0.265315 0.811166 0.509749
C136  C     C_3   0.270752 0.642182 0.185545 0.520036
C137  C     C_3   0.793505 0.297483 0.704847 0.487622
C138  C     C_3   0.297524 0.206363 0.294934 0.496379
C139  C     C_R   0.701693 0.611847 0.414257 0.695941
C140  C     C_3   0.645329 0.738079 0.807776 0.499186
C141  C     C_3   0.234720 0.143943 0.311199 0.489515
C142  C     C_3   0.710614 0.797660 0.791005 0.483947
C143  C     C_3   0.207242 0.703164 0.203520 0.473916
C144  C     C_3   0.856005 0.234750 0.688763 0.509808
C145  C     C_3   0.757489 0.853234 0.303047 0.487275
C146  C     C_3   0.293724 0.202398 0.794798 0.489343
C147  C     C_3   0.797274 0.294415 0.205654 0.483368
C148  C     C_3   0.143274 0.766394 0.687595 0.511565
C149  C     C_3   0.234857 0.856624 0.688905 0.496440
C150  C     C_R   0.389009 0.297759 0.413561 0.705728
C151  C     C_3   0.706592 0.203255 0.205997 0.491834
C152  C     C_3   0.202365 0.293029 0.793991 0.477238
C153  C     C_3   0.854319 0.769862 0.315574 0.439762
C154  C     C_3   0.765154 0.143817 0.689004 0.501492
C155  C     C_3   0.295646 0.796134 0.204600 0.462949
C156  C     C_3   0.798046 0.703395 0.796483 0.472130
C157  C     C_3   0.144240 0.235415 0.310515 0.515620
C158  C     C_3   0.197530 0.198112 0.371730 0.292368
C159  C     C_3   0.748166 0.741475 0.734189 0.231894
C160  C     C_3   0.259425 0.741133 0.263395 0.243315
F1    F     F_    0.742354 0.564280 0.825786 -0.666808
F2    F     F_    0.189139 0.624361 0.714399 -0.651416
F3    F     F_    0.621813 0.793608 0.271914 -0.651778
F4    F     F_    0.435035 0.253034 0.822647 -0.663508
F5    F     F_    0.258829 0.562929 0.174156 -0.675669
F6    F     F_    0.808748 0.376350 0.715105 -0.661018
F7    F     F_    0.376327 0.190905 0.284861 -0.653748
F8    F     F_    0.566485 0.754271 0.816207 -0.660400
F9    F     F_    0.247511 0.064663 0.321779 -0.671918
F10   F     F_    0.699146 0.876758 0.777622 -0.653537
F11   F     F_    0.130249 0.684335 0.215909 -0.735949
F12   F     F_    0.191663 0.376755 0.284263 -0.668414
F13   F     F_    0.935133 0.247286 0.677685 -0.663085
F14   F     F_    0.737944 0.931600 0.309105 -0.659665
F15   F     F_    0.309351 0.123533 0.784729 -0.653296
F16   F     F_    0.876035 0.310113 0.215489 -0.660359
F17   F     F_    0.064173 0.754392 0.675748 -0.668462
F18   F     F_    0.248638 0.935787 0.678921 -0.664027
F19   F     F_    0.691665 0.124380 0.216974 -0.642429
F20   F     F_    0.123503 0.308150 0.783817 -0.662253
F21   F     F_    0.932484 0.764547 0.335302 -0.707659
F22   F     F_    0.752055 0.064550 0.679013 -0.658698
F23   F     F_    0.623728 0.191272 0.714907 -0.663502
F24   F     F_    0.309577 0.875108 0.215875 -0.662850
F25   F     F_    0.876413 0.684361 0.789630 -0.671574
F26   F     F_    0.065107 0.248387 0.321242 -0.663508
F27   F     F_    0.438246 0.749514 0.175828 -0.650097
F28   F     F_    0.251140 0.435262 0.820208 -0.664177
F29   F     F_    0.818330 0.623192 0.296288 -0.652959
F30   F     F_    0.375639 0.807890 0.716569 -0.654038
F31   F     F_    0.564879 0.252800 0.177675 -0.653335
F32   F     F_    0.747320 0.436132 0.178065 -0.670626
H1    H     H_    0.342585 0.859257 0.572771 0.202536
H2    H     H_    0.200485 0.331689 0.510755 0.139073
H3    H     H_    0.890221 0.780932 0.684833 0.211809
H4    H     H_    0.825845 0.865029 0.699633 0.179424
H5    H     H_    0.851031 0.833477 0.605541 0.158534
H6    H     H_    0.134173 0.814236 0.291739 0.149826
H7    H     H_    0.211852 0.880022 0.323338 0.202067
H8    H     H_    0.152443 0.828846 0.390937 0.166341
H9    H     H_    0.842183 0.056846 0.565851 0.169752
H10   H     H_    0.922538 0.117493 0.600640 0.163745
H11   H     H_    0.906310 0.105678 0.500791 0.108163
H12   H     H_    0.814608 0.954107 0.427544 0.173823
H13   H     H_    0.140886 0.344364 0.424740 0.210078
H14   H     H_    0.902579 0.901377 0.398114 0.155836
H15   H     H_    0.880731 0.915216 0.496833 0.107198
H16   H     H_    0.115505 0.209387 0.676706 0.201867
H17   H     H_    0.180443 0.130755 0.708176 0.174308
H18   H     H_    0.164855 0.148436 0.609031 0.153017
H19   H     H_    0.884975 0.212927 0.323885 0.205822
H20   H     H_    0.820984 0.133396 0.293115 0.168988
H21   H     H_    0.836336 0.152058 0.392089 0.152837
H22   H     H_    0.160399 0.944242 0.565489 0.170728
H23   H     H_    0.078416 0.883957 0.597249 0.161919
H24   H     H_    0.129975 0.409246 0.501540 0.121571
H25   H     H_    0.097967 0.896934 0.498019 0.115459
H26   H     H_    0.644682 0.565617 0.933108 0.169710
H27   H     H_    0.567878 0.633439 0.903134 0.167294
H28   H     H_    0.588296 0.618392 0.001989 0.118111
H29   H     H_    0.350438 0.336828 0.109274 0.156639
H30   H     H_    0.369208 0.320055 0.208076 0.176245
H31   H     H_    0.290110 0.385134 0.178013 0.201974
H32   H     H_    0.614758 0.289633 0.822224 0.201031
H33   H     H_    0.679058 0.368511 0.790484 0.173719
H34   H     H_    0.663578 0.351228 0.889684 0.153689
H35   H     H_    0.657109 0.140964 0.572922 0.204164
H36   H     H_    0.349252 0.559917 0.059811 0.166544
H37   H     H_    0.427925 0.621833 0.096040 0.163127
H38   H     H_    0.411978 0.612297 0.995962 0.108841
H39   H     H_    0.339707 0.443643 0.934135 0.169926
H40   H     H_    0.420748 0.384017 0.898984 0.159195
H41   H     H_    0.404699 0.395433 0.998889 0.109989
H42   H     H_    0.629341 0.688389 0.169370 0.180164
H43   H     H_    0.696650 0.615839 0.208973 0.181484
H44   H     H_    0.687039 0.627419 0.108134 0.149906
H45   H     H_    0.382949 0.709680 0.825822 0.196647
H46   H     H_    0.666843 0.201908 0.487509 0.135738
H47   H     H_    0.319191 0.632298 0.789947 0.170674
H48   H     H_    0.331260 0.646511 0.889982 0.153755
H49   H     H_    0.658050 0.442617 0.063322 0.166312
H50   H     H_    0.578049 0.382767 0.100103 0.159645
H51   H     H_    0.593136 0.392466 0.999894 0.111651
H52   H     H_    0.590275 0.130612 0.497351 0.122461
H53   H     H_    0.467492 0.844576 0.382420 0.127432
H54   H     H_    0.371722 0.810325 0.358306 0.068114
H55   H     H_    0.440223 0.840005 0.285837 0.209537
H56   H     H_    0.158359 0.438946 0.712429 0.207809
H57   H     H_    0.334372 0.797311 0.487976 0.128830
H58   H     H_    0.188233 0.369928 0.640507 0.063017
H59   H     H_    0.154651 0.466183 0.615734 0.132635
H60   H     H_    0.864877 0.592787 0.509522 0.122966
H61   H     H_    0.788113 0.663887 0.521644 0.120132
H62   H     H_    0.853131 0.665750 0.439191 0.207011
H63   H     H_    0.342458 0.141293 0.427879 0.202504
H64   H     H_    0.333504 0.202748 0.512917 0.135053
H65   H     H_    0.409789 0.131003 0.503148 0.123868
H66   H     H_    0.539053 0.845442 0.608953 0.131058
H67   H     H_    0.634748 0.809630 0.632675 0.074392
H68   H     H_    0.410611 0.868906 0.498129 0.120610
H69   H     H_    0.569112 0.845409 0.705057 0.202591
H70   H     H_    0.840285 0.441765 0.286307 0.209763
H71   H     H_    0.811745 0.372256 0.358310 0.062508
H72   H     H_    0.844177 0.468750 0.383144 0.140432
H73   H     H_    0.133620 0.589969 0.494167 0.123530
H74   H     H_    0.206999 0.664420 0.483653 0.128946
H75   H     H_    0.142930 0.660316 0.567178 0.205009
H76   H     H_    0.644925 0.861130 0.410174 0.212692
H77   H     H_    0.670051 0.811028 0.499933 0.161844
H78   H     H_    0.588012 0.875910 0.492107 0.124714
H79   H     H_    0.532293 0.155130 0.382288 0.133038
H80   H     H_    0.468497 0.154371 0.618499 0.134884
H81   H     H_    0.372108 0.187357 0.642186 0.076230
H82   H     H_    0.441024 0.159619 0.715099 0.207115
H83   H     H_    0.163218 0.554847 0.281413 0.212745
H84   H     H_    0.189492 0.625342 0.353470 0.083835
H85   H     H_    0.157446 0.529233 0.378481 0.135406
H86   H     H_    0.798301 0.332073 0.487677 0.139362
H87   H     H_    0.858789 0.343242 0.573243 0.208008
H88   H     H_    0.869250 0.409048 0.496889 0.122949
H89   H     H_    0.841808 0.358753 0.071964 0.204040
H90   H     H_    0.628447 0.188222 0.357975 0.074056
H91   H     H_    0.833540 0.296488 0.987408 0.131165
H92   H     H_    0.909453 0.368540 0.997066 0.123132
H93   H     H_    0.030023 0.655237 0.880568 0.137370
H94   H     H_    0.126520 0.687674 0.857012 0.077918
H95   H     H_    0.057524 0.660913 0.783923 0.208851
H96   H     H_    0.340614 0.060044 0.214603 0.207765
H97   H     H_    0.312445 0.128726 0.141561 0.076319
H98   H     H_    0.345809 0.032317 0.118144 0.132667
H99   H     H_    0.623671 0.911214 0.989874 0.118537
H100  H     H_    0.689815 0.829930 0.999879 0.151920
H101  H     H_    0.559396 0.159683 0.285587 0.208950
H102  H     H_    0.638607 0.852353 0.910403 0.213946
H103  H     H_    0.158924 0.642110 0.070195 0.192556
H104  H     H_    0.164431 0.705470 0.986175 0.128915
H105  H     H_    0.089400 0.632622 0.996593 0.121484
H106  H     H_    0.967706 0.345692 0.881819 0.133991
H107  H     H_    0.871414 0.312547 0.858007 0.076900
H108  H     H_    0.940186 0.340592 0.785217 0.207077
H109  H     H_    0.652066 0.929060 0.198231 0.203483
H110  H     H_    0.694706 0.861046 0.131968 0.055168
H111  H     H_    0.659613 0.955834 0.101934 0.124858
H112  H     H_    0.836973 0.552737 0.720210 0.210410
H113  H     H_    0.368807 0.089879 0.002670 0.121404
H114  H     H_    0.297374 0.166510 0.012317 0.134520
H115  H     H_    0.358727 0.157087 0.927289 0.206535
H116  H     H_    0.843320 0.639367 0.931680 0.165608
H117  H     H_    0.829852 0.705454 0.012628 0.168014
H118  H     H_    0.908080 0.635736 0.010727 0.158853
H119  H     H_    0.033944 0.345705 0.116224 0.134509
H120  H     H_    0.129986 0.312063 0.141185 0.064964
H121  H     H_    0.060804 0.341595 0.213056 0.207041
H122  H     H_    0.340657 0.939329 0.786353 0.209900
H123  H     H_    0.813751 0.623786 0.647754 0.066144
H124  H     H_    0.311218 0.870282 0.858489 0.062814
H125  H     H_    0.344957 0.966535 0.882860 0.130784
H126  H     H_    0.631236 0.088686 0.999631 0.118151
H127  H     H_    0.703178 0.164502 0.988113 0.124259
H128  H     H_    0.641258 0.158084 0.072963 0.205597
H129  H     H_    0.156607 0.359145 0.925465 0.205168
H130  H     H_    0.167299 0.298740 0.011193 0.134537
H131  H     H_    0.090468 0.369943 0.001328 0.122776
H132  H     H_    0.003157 0.656839 0.162126 0.197812
H133  H     H_    0.927104 0.673286 0.224810 0.179623
H134  H     H_    0.844879 0.527128 0.623278 0.136715
H135  H     H_    0.004834 0.746638 0.216987 0.170250
H136  H     H_    0.658653 0.060959 0.786463 0.209975
H137  H     H_    0.688096 0.130464 0.858129 0.067349
H138  H     H_    0.654407 0.034581 0.883354 0.124751
H139  H     H_    0.296916 0.833584 0.988229 0.133279
H140  H     H_    0.359572 0.843360 0.072502 0.208735
H141  H     H_    0.368034 0.910518 0.997305 0.121271
H142  H     H_    0.156863 0.058061 0.435144 0.167618
H143  H     H_    0.077094 0.118846 0.398973 0.159944
H144  H     H_    0.092368 0.108036 0.499092 0.111322
N1    N     N_R   0.424590 0.632770 0.578330 -0.149005
N2    N     N_R   0.575410 0.632770 0.578330 -0.149091
N3    N     N_R   0.632770 0.424590 0.421670 -0.149338
N4    N     N_R   0.367230 0.575410 0.578330 -0.147199
N5    N     N_R   0.575410 0.632770 0.421670 -0.146100
N6    N     N_R   0.424590 0.367230 0.578330 -0.149398
N7    N     N_R   0.367230 0.575410 0.421670 -0.149941
N8    N     N_R   0.632770 0.424590 0.578330 -0.144382
N9    N     N_R   0.924590 0.132770 0.078330 -0.148371
N10   N     N_R   0.075410 0.867230 0.921670 -0.141921
N11   N     N_R   0.132770 0.075410 0.078330 -0.150341
N12   N     N_R   0.575410 0.367230 0.421670 -0.149589
N13   N     N_R   0.867230 0.924590 0.921670 -0.145987
N14   N     N_R   0.075410 0.867230 0.078330 -0.157363
N15   N     N_R   0.924590 0.132770 0.921670 -0.149240
N16   N     N_R   0.867230 0.924590 0.078330 -0.150082
N17   N     N_R   0.132770 0.075410 0.921670 -0.146396
N18   N     N_R   0.924590 0.867230 0.921670 -0.141780
N19   N     N_R   0.075410 0.132770 0.078330 -0.149629
N20   N     N_R   0.132770 0.924590 0.921670 -0.147720
N21   N     N_R   0.867230 0.075410 0.078330 -0.152817
N22   N     N_R   0.075410 0.132770 0.921670 -0.146137
N23   N     N_R   0.632770 0.575410 0.578330 -0.149620
N24   N     N_R   0.924590 0.867230 0.078330 -0.135949
N25   N     N_R   0.867230 0.075410 0.921670 -0.150691
N26   N     N_R   0.132770 0.924590 0.078330 -0.144356
N27   N     N_R   0.367230 0.424590 0.421670 -0.145122
N28   N     N_R   0.575410 0.367230 0.578330 -0.146256
N29   N     N_R   0.424590 0.632770 0.421670 -0.150743
N30   N     N_R   0.367230 0.424590 0.578330 -0.149584
N31   N     N_R   0.632770 0.575410 0.421670 -0.145884
N32   N     N_R   0.424590 0.367230 0.421670 -0.146031
Ni1   Ni    Ni4+2 0.500000 0.631570 0.500000 0.251958
Ni2   Ni    Ni4+2 0.500000 0.368430 0.500000 0.250823
Ni3   Ni    Ni4+2 0.631570 0.500000 0.500000 0.250516
Ni4   Ni    Ni4+2 0.368430 0.500000 0.500000 0.248870
Ni5   Ni    Ni4+2 0.000000 0.131570 0.000000 0.247454
Ni6   Ni    Ni4+2 0.000000 0.868430 0.000000 0.257033
Ni7   Ni    Ni4+2 0.131570 0.000000 0.000000 0.247943
Ni8   Ni    Ni4+2 0.868430 0.000000 0.000000 0.247859
O1    O     O_3   0.425991 0.770936 0.564106 -0.583135
O2    O     O_3   0.536757 0.737533 0.662381 -0.547870
O3    O     O_3   0.733572 0.467569 0.335303 -0.563078
O4    O     O_3   0.229387 0.574589 0.562992 -0.590213
O5    O     O_3   0.571892 0.769377 0.440832 -0.606273
O6    O     O_3   0.467029 0.265823 0.664771 -0.557716
O7    O     O_3   0.269183 0.530879 0.332702 -0.561375
O8    O     O_3   0.770070 0.425773 0.560499 -0.598503
O9    O     O_3   0.925638 0.270791 0.063163 -0.589782
O10   O     O_3   0.032015 0.766942 0.834709 -0.566532
O11   O     O_3   0.234523 0.033419 0.164555 -0.557057
O12   O     O_3   0.533050 0.266227 0.334974 -0.556866
O13   O     O_3   0.729968 0.927394 0.938128 -0.604226
O14   O     O_3   0.073959 0.729334 0.064122 -0.591212
O15   O     O_3   0.966654 0.234326 0.835353 -0.556182
O16   O     O_3   0.762705 0.961641 0.162958 -0.542546
O17   O     O_3   0.270441 0.073953 0.937631 -0.594510
O18   O     O_3   0.924853 0.729531 0.939340 -0.593394
O19   O     O_3   0.033990 0.234975 0.164164 -0.554932
O20   O     O_3   0.234196 0.966532 0.835300 -0.553824
O21   O     O_3   0.729044 0.073994 0.065756 -0.586536
O22   O     O_3   0.074049 0.270568 0.937812 -0.592108
O23   O     O_3   0.731994 0.530744 0.666006 -0.560578
O24   O     O_3   0.924048 0.738470 0.126180 -0.625906
O25   O     O_3   0.765109 0.034111 0.835719 -0.548669
O26   O     O_3   0.270553 0.925887 0.063505 -0.595054
O27   O     O_3   0.173859 0.178012 0.446334 -0.596855
O28   O     O_3   0.772464 0.762227 0.659840 -0.636252
O29   O     O_3   0.235110 0.761397 0.337852 -0.638158
O30   O     O_3   0.825627 0.176788 0.553439 -0.597257
O31   O     O_3   0.810918 0.833632 0.444076 -0.601596
O32   O     O_3   0.234099 0.230562 0.660698 -0.635484
O33   O     O_3   0.766126 0.233033 0.339656 -0.634089
O34   O     O_3   0.229922 0.426048 0.439145 -0.600796
O35   O     O_3   0.175988 0.824182 0.552497 -0.599426
O36   O     O_3   0.671150 0.683770 0.946158 -0.598801
O37   O     O_3   0.269374 0.266433 0.160952 -0.635700
O38   O     O_3   0.733508 0.269271 0.838551 -0.636265
O39   O     O_3   0.329301 0.679621 0.050338 -0.596465
O40   O     O_3   0.324819 0.323455 0.946216 -0.596595
O41   O     O_3   0.747291 0.716355 0.160089 -0.595101
O42   O     O_3   0.264016 0.730802 0.838805 -0.634753
O43   O     O_3   0.674451 0.322457 0.053223 -0.596766
O44   O     O_3   0.574125 0.229517 0.561675 -0.591210
O45   O     O_3   0.468035 0.733589 0.334951 -0.550885
O46   O     O_3   0.265064 0.466023 0.664047 -0.553314
O47   O     O_3   0.770259 0.576155 0.439421 -0.586746
O48   O     O_3   0.425845 0.229416 0.437991 -0.591577

loop_
_geom_bond_atom_site_label_1
_geom_bond_atom_site_label_2
_ccdc_geom_bond_type
C51   H141  S    
C157  C158  S    
C34   H92   S    
C44   H120  S    
C131  C151  S    
C9    O37   S    
C41   H111  S    
C156  F25   S    
N3    N12   A    
C148  F17   S    
C85   N24   A    
C95   N27   A    
C66   H42   S    
C90   C111  S    
C17   O1    S    
C126  F27   S    
C60   H23   S    
C46   C112  A    
C80   N19   A    
C64   H37   S    
C69   H50   S    
C2    N2    A    
C61   O36   S    
C67   H48   S    
C64   O39   S    
C62   H29   S    
C23   H56   S    
C134  C145  S    
C3    O30   S    
C16   C104  S    
C80   C116  A    
C73   N12   A    
C37   H98   S    
C6    C94   S    
C12   C135  S    
C57   O7    S    
N2    N23   A    
C85   C121  A    
C36   H94   S    
C10   C125  S    
N7    N29   A    
C44   H121  S    
C142  F10   S    
C95   O34   S    
C4    C153  S    
C29   H74   S    
C104  C147  S    
C71   N10   A    
C106  N28   A    
C74   C118  A    
N10   N20   A    
C137  F6    S    
C123  C156  S    
C21   H35   S    
C40   H108  S    
C11   C126  S    
C95   C109  A    
C147  F16   S    
C48   H130  S    
C52   H144  S    
C94   C132  S    
C75   N14   A    
C152  F20   S    
N23   Ni3   S    
C45   H124  S    
C32   H84   S    
C49   H132  S    
C9    C138  S    
C151  F19   S    
C124  F12   S    
C98   C157  S    
C135  C146  S    
C55   H11   S    
C141  F9    S    
C90   C126  S    
C68   C110  A    
C25   O47   S    
C17   H68   S    
C102  C153  S    
C26   O48   S    
C6    C151  S    
C100  C155  S    
C18   H101  S    
C51   H139  S    
C76   N15   A    
C47   H127  S    
C13   O3    S    
C24   O4    S    
N1    N4    A    
C91   C110  S    
C10   O38   S    
C91   C125  S    
C65   H40   S    
N16   Ni8   S    
C61   H27   S    
N5    N31   A    
C138  C141  S    
C59   H21   S    
C8    C123  S    
C106  O44   S    
C14   C134  S    
C101  C122  S    
C42   H115  S    
C8    C140  S    
C53   H5    S    
C21   O44   S    
C11   C136  S    
C128  O46   S    
C57   C111  A    
C56   H15   S    
C89   C108  S    
C2    C108  A    
C38   H99   S    
C35   C113  A    
C16   O43   S    
C10   C99   S    
C97   C142  S    
C14   C102  S    
C93   C112  S    
C50   H137  S    
C31   H80   S    
C53   H4    S    
C19   H112  S    
C138  F7    S    
C49   H133  S    
C84   O23   S    
C15   C103  S    
C31   H82   S    
C33   O8    S    
C32   H85   S    
C130  F30   S    
C1    C105  A    
C9    C98   S    
N27   N32   A    
C88   C124  S    
C143  C160  S    
C63   H33   S    
C12   O40   S    
C15   O42   S    
C76   C120  A    
C52   O27   S    
C26   H63   S    
N8    N28   A    
C123  F1    S    
C28   H70   S    
C86   N25   A    
C136  F5    S    
C55   H9    S    
C79   C118  A    
C134  F3    S    
C72   O11   S    
C97   C156  S    
C16   C131  S    
C60   H22   S    
C19   O23   S    
N15   N25   A    
C69   O43   S    
C129  F29   S    
C113  C139  A    
C81   N20   A    
C102  C121  S    
C13   N3    A    
N29   Ni1   S    
C24   N4    A    
C133  C148  S    
C20   H13   S    
C47   H126  S    
C159  O28   S    
C59   H19   S    
C89   C159  S    
C33   H86   S    
C8    O36   S    
C94   C107  S    
C42   H113  S    
C79   O18   S    
C7    O35   S    
C22   H54   S    
C84   N23   A    
C25   H61   S    
C19   H134  S    
C3    C154  S    
C54   H7    S    
C87   C119  A    
C44   H119  S    
C79   N18   A    
C18   O12   S    
C58   H16   S    
C89   C140  S    
C59   O33   S    
C28   O3    S    
C11   O39   S    
C100  C119  S    
C5    O32   S    
C20   O34   S    
C137  C144  S    
C88   C158  S    
N16   N24   A    
C39   H103  S    
C139  N31   A    
C74   O13   S    
C125  C154  S    
C38   O13   S    
C50   H136  S    
N14   N26   A    
N9    N21   A    
C132  C147  S    
C92   C134  S    
C93   C135  S    
C41   H110  S    
C28   H71   S    
C68   O8    S    
C66   H43   S    
C111  C117  A    
N11   N19   A    
C109  C150  A    
C12   C101  S    
C42   O17   S    
C129  C153  S    
C6    C147  S    
C69   H49   S    
C4    C145  S    
C85   O24   S    
C67   H47   S    
C149  F18   S    
C58   O32   S    
C54   O29   S    
C150  N32   A    
C62   H30   S    
C83   C122  A    
C77   C121  A    
C56   H14   S    
C145  F14   S    
C37   H97   S    
C38   H102  S    
C86   C120  A    
C15   C130  S    
N12   Ni2   S    
N13   N18   A    
C70   O9    S    
C160  O29   S    
C33   H88   S    
C96   C105  S    
C49   O24   S    
C36   O10   S    
C23   O46   S    
C29   H73   S    
C43   H118  S    
C30   H78   S    
C142  C159  S    
C133  F2    S    
N32   Ni2   S    
C48   O22   S    
C139  O47   S    
C7    C96   S    
C30   H77   S    
C73   O12   S    
C20   H24   S    
C50   O25   S    
C65   H41   S    
N6    N30   A    
C140  C142  S    
C44   O19   S    
C102  C145  S    
C106  C110  A    
C73   C107  A    
C86   O25   S    
C55   O30   S    
C3    C91   S    
C45   H125  S    
C4    O31   S    
C23   H59   S    
C46   O6    S    
C83   O22   S    
N25   Ni8   S    
N13   Ni8   S    
C92   C113  S    
C126  C155  S    
C60   O35   S    
C34   H91   S    
C22   O45   S    
C67   O42   S    
C87   N26   A    
C36   H93   S    
C82   N21   A    
N18   Ni6   S    
C65   H39   S    
N3    Ni3   S    
C99   C144  S    
C61   H26   S    
C58   H17   S    
C117  O45   S    
C69   H51   S    
C31   O6    S    
C67   H45   S    
C41   O16   S    
N15   Ni5   S    
C46   N6    A    
N17   Ni7   S    
C103  C115  S    
C83   N22   A    
N19   Ni5   S    
C5    C93   S    
C146  F15   S    
C38   H100  S    
C127  F28   S    
C75   O14   S    
C117  N29   A    
C39   H105  S    
C56   H12   S    
C32   O7    S    
C153  F21   S    
C50   H138  S    
C53   H3    S    
N11   Ni7   S    
C43   H116  S    
C30   H76   S    
C31   H81   S    
N30   Ni4   S    
C96   C130  S    
C35   O5    S    
C27   H66   S    
C40   H107  S    
C3    C144  S    
N2    Ni1   S    
C100  C143  S    
C48   H129  S    
C136  C143  S    
C52   H143  S    
C72   C116  A    
C101  C152  S    
C94   C131  S    
C63   O38   S    
N6    Ni2   S    
N8    Ni3   S    
C92   C129  S    
C143  F11   S    
C32   H83   S    
C26   H64   S    
C74   N13   A    
C82   O21   S    
C68   N8    A    
N5    Ni1   S    
C84   C108  A    
C76   O15   S    
C90   C160  S    
C16   C132  S    
C40   O15   S    
N27   Ni4   S    
C112  C128  A    
C103  C149  S    
C128  N30   A    
C141  C158  S    
C158  O27   S    
C51   H140  S    
C34   H89   S    
C47   H128  S    
C72   N11   A    
C36   H95   S    
C19   H123  S    
C53   O28   S    
C66   O41   S    
C4    C92   S    
C14   C129  S    
C140  F8    S    
C64   H38   S    
C99   C154  S    
N26   Ni7   S    
C125  F23   S    
C135  F4    S    
C17   H1    S    
C61   H28   S    
C13   C107  A    
C150  O48   S    
C78   N17   A    
C62   O37   S    
C12   C127  S    
C70   C114  A    
C56   O31   S    
C5    C152  S    
C23   H58   S    
C42   H114  S    
N10   Ni6   S    
C104  C151  S    
C22   H55   S    
C25   H60   S    
C52   H142  S    
C70   N9    A    
N28   Ni2   S    
C27   H69   S    
C78   O17   S    
C9    C124  S    
C54   H8    S    
C17   H57   S    
C97   C118  S    
C26   H65   S    
C99   C120  S    
C91   C137  S    
C144  F13   S    
C10   C137  S    
C80   O19   S    
C47   O21   S    
C77   N16   A    
N17   N22   A    
C14   O41   S    
C21   H46   S    
N4    Ni4   S    
C7    C149  S    
C124  C157  S    
C71   O10   S    
C35   N5    A    
C37   H96   S    
C20   H2    S    
C18   H79   S    
C103  C148  S    
C63   H34   S    
N24   Ni6   S    
C58   H18   S    
C48   H131  S    
C1    O1    S    
C101  C146  S    
C6    O33   S    
C75   C119  A    
C157  F26   S    
C82   C114  A    
C49   H135  S    
C41   H109  S    
C155  F24   S    
C89   C123  S    
C28   H72   S    
C55   H10   S    
C66   H44   S    
C11   C100  S    
C39   O14   S    
C81   O20   S    
C8    C97   S    
C93   C127  S    
C87   O26   S    
C127  C152  S    
C90   C136  S    
C98   C116  S    
C18   H90   S    
C88   C138  S    
C81   C115  A    
C130  C149  S    
C71   C115  A    
N20   Ni7   S    
C62   H31   S    
N7    Ni4   S    
N22   Ni5   S    
C21   H52   S    
C104  C114  S    
C98   C141  S    
C88   C109  S    
C1    N1    A    
C29   O4    S    
C64   H36   S    
C59   H20   S    
C43   O18   S    
C7    C148  S    
C33   H87   S    
C132  F32   S    
C5    C146  S    
C155  C160  S    
N21   Ni8   S    
C63   H32   S    
C43   H117  S    
C156  C159  S    
C34   O9    S    
N9    Ni5   S    
C22   H53   S    
N31   Ni3   S    
C25   H62   S    
C96   C133  S    
C15   C133  S    
C77   O16   S    
C131  F31   S    
C27   H67   S    
C54   H6    S    
C40   H106  S    
C30   O5    S    
C60   H25   S    
N14   Ni6   S    
C65   O40   S    
C29   H75   S    
C154  F22   S    
C27   O2    S    
C2    O2    S    
C78   C122  A    
C45   H122  S    
C57   N7    A    
N1    Ni1   S    
C39   H104  S    
C24   C105  A    
C51   O26   S    
C45   O20   S    
C37   O11   S    
