data_mof_unit_18617.cif
_audit_creation_date              2013-03-05T16:24:09-0500
_audit_creation_method            fapswitch 2.2
_symmetry_space_group_name_H-M    P1
_symmetry_Int_Tables_number       1
_space_group_crystal_system       triclinic
_cell_length_a                    15.071426
_cell_length_b                    13.839102
_cell_length_c                    27.83384
_cell_angle_alpha                 90.01677
_cell_angle_beta                  90.526534
_cell_angle_gamma                 90.159006
_cell_volume                      5805.17543912

loop_
_atom_site_label
_atom_site_type_symbol
_atom_site_description
_atom_site_fract_x
_atom_site_fract_y
_atom_site_fract_z
_atom_type_partial_charge
O1    O     O_R   0.371460 0.581430 0.500000 -0.608469
O2    O     O_R   0.628540 0.418570 0.500000 -0.595880
O3    O     O_R   0.628540 0.581430 0.500000 -0.594834
O4    O     O_R   0.371460 0.418570 0.500000 -0.578555
C1    C     C_R   0.330013 0.499919 0.500083 0.835296
C2    C     C_R   0.670321 0.500107 0.500398 0.846545
O5    O     O_R   0.500020 0.581430 0.430260 -0.590702
O6    O     O_R   0.499980 0.418570 0.569740 -0.601633
O7    O     O_R   0.499980 0.581430 0.569740 -0.535792
O8    O     O_R   0.500020 0.418570 0.430260 -0.547067
C3    C     C_R   0.500258 0.499889 0.407314 0.839943
C4    C     C_R   0.498078 0.500078 0.592577 0.822875
Cu1   Cu    Cu3+1 0.500000 0.596430 0.500000 0.947703
Cu2   Cu    Cu3+1 0.500000 0.403570 0.500000 0.942770
C5    C     C_R   0.420920 0.481896 0.177737 0.552042
C6    C     C_R   0.570588 0.512154 0.821955 0.554181
O9    O     O_2   0.347197 0.459901 0.202677 -0.532590
O10   O     O_2   0.646052 0.526067 0.797117 -0.541902
N1    N     N_R   0.497617 0.505001 0.201705 -0.457238
N2    N     N_R   0.492330 0.496987 0.797883 -0.454398
C7    C     C_R   0.573527 0.527699 0.177674 0.547379
C8    C     C_R   0.414529 0.483461 0.821835 0.544283
C9    C     C_R   0.511907 0.417044 0.277416 -0.213915
C10   C     C_R   0.463745 0.578787 0.721561 -0.225661
C11   C     C_R   0.514539 0.414141 0.327744 0.411641
C12   C     C_R   0.462022 0.580507 0.671184 0.426889
C13   C     C_R   0.487412 0.587502 0.329452 -0.326253
C14   C     C_R   0.520865 0.416735 0.670687 -0.336766
C15   C     C_R   0.486699 0.590047 0.279300 0.021835
C16   C     C_R   0.519542 0.414533 0.720815 0.023092
C17   C     C_R   0.498759 0.504351 0.253211 0.268033
C18   C     C_R   0.491713 0.496355 0.746362 0.267647
C19   C     C_R   0.495992 0.504092 0.101652 -0.042901
C20   C     C_R   0.493419 0.499636 0.897942 -0.043634
C21   C     C_R   0.418622 0.481149 0.127304 -0.025993
C22   C     C_R   0.572620 0.513649 0.872371 -0.024200
C23   C     C_R   0.341000 0.457359 0.102235 -0.142308
C24   C     C_R   0.652023 0.528409 0.897501 -0.143502
C25   C     C_R   0.574142 0.527697 0.127248 -0.022666
C26   C     C_R   0.413629 0.484391 0.872269 -0.020560
C27   C     C_R   0.500492 0.499982 0.354193 -0.136516
C28   C     C_R   0.493967 0.499815 0.645480 -0.135942
H1    H     H_    0.477058 0.654063 0.349156 0.182067
H2    H     H_    0.544077 0.353798 0.651330 0.174009
H3    H     H_    0.280903 0.438294 0.121127 0.187367
H4    H     H_    0.714028 0.538074 0.878678 0.185389
C29   C     C_R   0.413833 0.484168 0.974249 0.042733
C30   C     C_R   0.574640 0.523948 0.025314 0.042026
C31   C     C_R   0.574765 0.519022 0.974291 0.042540
C32   C     C_R   0.415210 0.481609 0.025328 0.042234
C33   C     C_R   0.494004 0.500950 0.949044 0.069851
C34   C     C_R   0.495265 0.503253 0.050548 0.070141
C35   C     C_R   0.334651 0.471021 0.947214 -0.200931
C36   C     C_R   0.651339 0.549523 0.052256 -0.200906
C37   C     C_R   0.334794 0.470953 0.897322 -0.146941
C38   C     C_R   0.650953 0.551047 0.102130 -0.142377
O11   O     O_2   0.338452 0.468830 0.796885 -0.556548
O12   O     O_2   0.648132 0.549876 0.202552 -0.540529
C39   C     C_R   0.339172 0.457333 0.052345 -0.200116
C40   C     C_R   0.653322 0.530827 0.947368 -0.200427
H5    H     H_    0.443226 0.641936 0.741561 0.149920
H6    H     H_    0.520042 0.351146 0.256951 0.148177
H7    H     H_    0.272358 0.460357 0.878414 0.184382
H8    H     H_    0.711568 0.570798 0.120971 0.187356
H9    H     H_    0.270569 0.462114 0.963378 0.140154
H10   H     H_    0.712970 0.570500 0.036012 0.140889
H11   H     H_    0.277006 0.436076 0.036167 0.140708
H12   H     H_    0.717789 0.540488 0.963623 0.140166
C41   C     C_R   0.093184 0.572092 0.476969 0.487583
C42   C     C_R   0.907702 0.417294 0.489793 0.473052
C43   C     C_R   0.904899 0.580948 0.523993 0.434806
C44   C     C_R   0.098100 0.438534 0.535037 0.460292
C45   C     C_R   0.186563 0.568798 0.474986 -0.340664
C46   C     C_R   0.814244 0.418811 0.487445 -0.342042
C47   C     C_R   0.812367 0.581084 0.520278 -0.287860
C48   C     C_R   0.189782 0.434694 0.531021 -0.270602
H13   H     H_    0.223915 0.617094 0.452372 0.151910
H14   H     H_    0.776866 0.358680 0.473055 0.165189
H15   H     H_    0.775732 0.644157 0.531549 0.159210
H16   H     H_    0.226783 0.382391 0.552071 0.167971
C49   C     C_R   0.233846 0.500306 0.501631 -0.143145
C50   C     C_R   0.767166 0.500197 0.502514 -0.140386
C51   C     C_R   0.049527 0.504193 0.506431 -0.013932
C52   C     C_R   0.952078 0.500738 0.506746 0.000291
C53   C     C_R   0.547514 0.108179 0.535043 -0.277195
C54   C     C_R   0.428716 0.892137 0.480494 -0.274141
C55   C     C_R   0.453814 0.107779 0.464542 -0.291505
C56   C     C_R   0.571891 0.892315 0.519454 -0.277349
H17   H     H_    0.583615 0.072323 0.563634 0.135215
H18   H     H_    0.370947 0.928139 0.465821 0.132579
H19   H     H_    0.418178 0.071606 0.435802 0.139319
H20   H     H_    0.629829 0.928395 0.534140 0.128367
C57   C     C_R   0.546785 0.209719 0.534281 0.074052
C58   C     C_R   0.430146 0.790589 0.480534 0.072724
C59   C     C_R   0.453790 0.209312 0.465528 0.091838
C60   C     C_R   0.569925 0.790766 0.519560 0.117406
H21   H     H_    0.583532 0.249397 0.561435 0.122965
H22   H     H_    0.374747 0.751406 0.464999 0.120098
H23   H     H_    0.417194 0.248664 0.438294 0.157189
H24   H     H_    0.625017 0.751691 0.535249 0.115332
N3    N     N_R   0.500000 0.258690 0.500000 -0.182391
N4    N     N_R   0.500000 0.741310 0.500000 -0.171405
C61   C     C_R   0.500683 0.054783 0.499798 0.129392
C62   C     C_R   0.500479 0.945426 0.499884 0.133265
C63   C     C_1   0.472495 0.680777 0.254961 0.285740
N5    N     N_1   0.461115 0.753513 0.235387 -0.270228
C64   C     C_1   0.547407 0.328190 0.745671 0.281802
N6    N     N_1   0.569751 0.258973 0.765657 -0.274351
O13   O     O_3   0.435618 0.663520 0.647190 -0.592803
C65   C     C_3   0.343456 0.679679 0.653043 0.044707
H25   H     H_    0.333445 0.758823 0.656758 0.172287
H26   H     H_    0.314813 0.645831 0.685850 0.136792
C66   C     C_3   0.292432 0.644594 0.608528 -0.308436
H27   H     H_    0.319628 0.680481 0.576125 0.250290
H28   H     H_    0.300910 0.565227 0.604760 0.193359
C67   C     C_3   0.193667 0.667557 0.611864 -0.958390
H29   H     H_    0.165051 0.634248 0.644526 0.261171
H30   H     H_    0.158189 0.638250 0.579912 0.262688
H31   H     H_    0.183363 0.746950 0.613099 0.260897
O14   O     O_3   0.526054 0.326773 0.351159 -0.600608
C68   C     C_3   0.614214 0.294815 0.345098 0.058784
H32   H     H_    0.663114 0.355045 0.349614 0.136797
H33   H     H_    0.621570 0.262389 0.308767 0.152776
C69   C     C_3   0.635043 0.218125 0.383027 -0.304441
H34   H     H_    0.632183 0.251451 0.419327 0.231432
H35   H     H_    0.584698 0.159375 0.380985 0.230305
C70   C     C_3   0.726960 0.174925 0.375798 -0.940082
H36   H     H_    0.729444 0.135702 0.341017 0.269228
H37   H     H_    0.741909 0.123261 0.405286 0.256073
H38   H     H_    0.778166 0.232772 0.376017 0.254535
O15   O     O_3   0.040519 0.634390 0.449288 -0.587271
C71   C     C_3   0.081988 0.722050 0.435529 0.104637
H39   H     H_    0.033724 0.761347 0.412373 0.170974
H40   H     H_    0.139954 0.709749 0.412042 0.122408
C72   C     C_3   0.103700 0.787753 0.478727 -0.355592
H41   H     H_    0.041433 0.805576 0.497775 0.252822
H42   H     H_    0.148949 0.750950 0.504469 0.222154
C73   C     C_3   0.147935 0.881373 0.462558 -0.942501
H43   H     H_    0.210964 0.865366 0.443808 0.251273
H44   H     H_    0.163060 0.927171 0.494376 0.264267
H45   H     H_    0.103124 0.922025 0.437994 0.262262
O16   O     O_3   0.959794 0.340875 0.473154 -0.592254
C74   C     C_3   0.919049 0.248486 0.474572 0.093056
H46   H     H_    0.966492 0.196803 0.458398 0.170457
H47   H     H_    0.859479 0.244224 0.451097 0.125416
C75   C     C_3   0.900995 0.213939 0.526113 -0.342358
H48   H     H_    0.964742 0.209499 0.546334 0.258695
H49   H     H_    0.857123 0.265363 0.545103 0.213040
C76   C     C_3   0.856643 0.114632 0.526046 -0.945814
H50   H     H_    0.791678 0.117832 0.506908 0.258809
H51   H     H_    0.845113 0.091001 0.563605 0.260208
H52   H     H_    0.899740 0.060653 0.508230 0.259817
O17   O     O_3   0.951365 0.661639 0.540147 -0.610865
C77   C     C_3   0.924232 0.690822 0.586523 0.008544
H53   H     H_    0.983768 0.690352 0.610369 0.165303
H54   H     H_    0.874661 0.641959 0.603680 0.129209
C78   C     C_3   0.888265 0.794028 0.584093 -0.330997
H55   H     H_    0.940677 0.843116 0.570298 0.221180
H56   H     H_    0.830700 0.797022 0.558936 0.211091
C79   C     C_3   0.859187 0.829423 0.633392 -0.898756
H57   H     H_    0.805229 0.782737 0.647412 0.262229
H58   H     H_    0.834063 0.904556 0.630373 0.254105
H59   H     H_    0.916125 0.828672 0.659019 0.258763
O18   O     O_3   0.055961 0.373688 0.565039 -0.607470
C80   C     C_3   0.034705 0.419622 0.608895 0.015775
H60   H     H_    0.973922 0.384295 0.622897 0.169292
H61   H     H_    0.018542 0.497878 0.604850 0.123263
C81   C     C_3   0.109973 0.406563 0.645689 -0.354179
H62   H     H_    0.126047 0.328521 0.649123 0.235603
H63   H     H_    0.170215 0.445274 0.633314 0.215012
C82   C     C_3   0.084232 0.445912 0.694827 -0.875366
H64   H     H_    0.067052 0.523737 0.692218 0.245748
H65   H     H_    0.140870 0.437738 0.720289 0.277965
H66   H     H_    0.026457 0.405363 0.709059 0.258688

loop_
_geom_bond_atom_site_label_1
_geom_bond_atom_site_label_2
_geom_bond_distance
_ccdc_geom_bond_type
C72   C73   1.525344 S    
C16   C18   1.404067 A    
C82   H64   1.110644 S    
C56   C60   1.405576 A    
C10   H5    1.083354 S    
C2    C50   1.460247 S    
C60   N4    1.364076 A    
C16   C64   1.442470 S    
C13   C15   1.396334 A    
C73   H43   1.110853 S    
C44   C48   1.388477 A    
O3    C2    1.291144 A    
N1    C17   1.433586 S    
C8    O11   1.349795 S    
C10   C18   1.397638 A    
C72   H41   1.110395 S    
C19   C34   1.422392 A    
C30   C36   1.416152 A    
C82   H65   1.110477 S    
C20   C33   1.422402 A    
C80   H60   1.110989 S    
C31   C40   1.416091 A    
O1    C1    1.287944 A    
C32   C39   1.416173 A    
O18   C80   1.415863 S    
N1    C7    1.366439 A    
C10   C12   1.402378 A    
C43   C52   1.406604 A    
C55   H19   1.081366 S    
C76   H51   1.110510 S    
C59   H23   1.081491 S    
C58   H22   1.081149 S    
C6    N2    1.366782 A    
C74   H46   1.110896 S    
C43   O17   1.388959 S    
C74   H47   1.106970 S    
C67   H29   1.109657 S    
C5    O9    1.349634 S    
C45   C49   1.396689 A    
O7    Cu1   1.952263 S    
C65   H25   1.110961 S    
C68   C69   1.528345 S    
C4    C28   1.474365 S    
C54   C58   1.405556 A    
C39   H11   1.076010 S    
C53   C57   1.405452 A    
C9    H6    1.082950 S    
C56   H20   1.081573 S    
C71   H39   1.110888 S    
C31   C33   1.421405 A    
C55   C59   1.405384 A    
C42   C46   1.409664 A    
C32   C34   1.421459 A    
C64   N6    1.157191 T    
C38   H8    1.083541 S    
C41   C45   1.409804 A    
C42   C52   1.411782 A    
C77   H54   1.116890 S    
O3    Cu1   1.948944 S    
C41   O15   1.399972 S    
C29   C35   1.416250 A    
C66   C67   1.526579 S    
C81   H63   1.110462 S    
C54   C62   1.410509 A    
C78   H56   1.110762 S    
Cu1   Cu2   2.669011 S    
C78   H55   1.111599 S    
C15   C63   1.442456 S    
C80   H61   1.116213 S    
O2    C2    1.290679 A    
C46   C50   1.399135 A    
C5    C21   1.403887 A    
C56   C62   1.410385 A    
O5    C3    1.296521 A    
C29   C32   1.422127 A    
C75   H49   1.109895 S    
C35   C37   1.388705 A    
C82   H66   1.110769 S    
C36   C38   1.388410 A    
C42   O16   1.400116 S    
C68   H33   1.112807 S    
C75   H48   1.110869 S    
C79   H59   1.110894 S    
C77   C78   1.530388 S    
O8    Cu2   1.952266 S    
C74   C75   1.538670 S    
C11   C27   1.414840 A    
C53   H17   1.081359 S    
Cu2   N3    2.005008 S    
C29   C33   1.421349 A    
C14   H2    1.084518 S    
C37   H7    1.083540 S    
C9    C17   1.397286 A    
C5    N1    1.366426 A    
C70   H37   1.110608 S    
C41   C51   1.412554 A    
C75   C76   1.526587 S    
C1    C49   1.450424 S    
C13   C27   1.406918 A    
C51   C52   1.469454 S    
C65   C66   1.530483 S    
C30   C34   1.421310 A    
O6    C4    1.295121 A    
C26   C37   1.395206 A    
C8    C26   1.404026 A    
C44   O18   1.383138 S    
C25   C38   1.395091 A    
C19   C25   1.408512 A    
C12   O13   1.386459 S    
C77   H53   1.111203 S    
C68   H32   1.117386 S    
C23   C39   1.388636 A    
C73   H44   1.110482 S    
C69   C70   1.525340 S    
C24   C40   1.388327 A    
C71   H40   1.109427 S    
C81   H62   1.111468 S    
N2    C8    1.366612 A    
C78   C79   1.525359 S    
C54   H18   1.081241 S    
C55   C61   1.410817 A    
C76   H52   1.110967 S    
O1    Cu1   1.947798 S    
C57   N3    1.362932 A    
C70   H36   1.110722 S    
C11   O14   1.384326 S    
C57   H21   1.081603 S    
C35   H9    1.075983 S    
O14   C68   1.413092 S    
C12   C28   1.414063 A    
C69   H35   1.111654 S    
C66   H27   1.110877 S    
N2    C18   1.433993 S    
C72   H42   1.109514 S    
C30   C31   1.421803 A    
O6    Cu2   1.952143 S    
C14   C28   1.405832 A    
C21   C23   1.395221 A    
C7    C25   1.403654 A    
C48   H16   1.083811 S    
O4    C1    1.289021 A    
C73   H45   1.110812 S    
C53   C61   1.410870 A    
C48   C49   1.393477 A    
C47   C50   1.396734 A    
C36   H10   1.076010 S    
C80   C81   1.532384 S    
C63   N5    1.157184 T    
C59   N3    1.362829 A    
C67   H31   1.110648 S    
C79   H57   1.110909 S    
C22   C24   1.395110 A    
O17   C77   1.416637 S    
C70   H38   1.110405 S    
C7    O12   1.349683 S    
C15   C17   1.403544 A    
O13   C65   1.418366 S    
C6    C22   1.403471 A    
C43   C47   1.397468 A    
C47   H15   1.082070 S    
C71   C72   1.539493 S    
C60   H24   1.080981 S    
C14   C16   1.395935 A    
C19   C21   1.408448 A    
C67   H30   1.109593 S    
C3    C27   1.478602 S    
C20   C22   1.408352 A    
C9    C11   1.401595 A    
O4    Cu2   1.948944 S    
O2    Cu2   1.947798 S    
O7    C4    1.293425 A    
C65   H26   1.116233 S    
C24   H4    1.083530 S    
C44   C51   1.410302 A    
O8    C3    1.294152 A    
C13   H1    1.084289 S    
O5    Cu1   1.952145 S    
C40   H12   1.075991 S    
C6    O10   1.349771 S    
C46   H14   1.078581 S    
C61   C62   1.513405 S    
C45   H13   1.079126 S    
O16   C74   1.417589 S    
C20   C26   1.408533 A    
C81   C82   1.525832 S    
Cu1   N4    2.005008 S    
C76   H50   1.111328 S    
C23   H3    1.083514 S    
O15   C71   1.417552 S    
C58   N4    1.364091 A    
C79   H58   1.110505 S    
C69   H34   1.111779 S    
C66   H28   1.111171 S    
