data_mof_unit_17097.cif
_audit_creation_date              2012-12-10T18:11:07-0500
_audit_creation_method            fapswitch 2.2
_symmetry_space_group_name_H-M    P1
_symmetry_Int_Tables_number       1
_space_group_crystal_system       triclinic
_cell_length_a                    10.739056
_cell_length_b                    9.41363
_cell_length_c                    10.616903
_cell_angle_alpha                 89.774001
_cell_angle_beta                  89.765072
_cell_angle_gamma                 89.588117
_cell_volume                      1073.25490049

loop_
_atom_site_label
_atom_site_type_symbol
_atom_type_description
_atom_site_fract_x
_atom_site_fract_y
_atom_site_fract_z
_atom_type_partial_charge
C1    C     C_R   0.259931 0.500592 0.503405 0.773217
C2    C     C_3   0.499890 0.500863 0.122384 0.034162
C3    C     C_3   0.069856 0.650736 0.536802 -0.393932
C4    C     C_3   0.072002 0.391625 0.598124 -0.396509
C5    C     C_3   0.927058 0.647300 0.542963 -0.426489
C6    C     C_3   0.928866 0.393366 0.598116 -0.395235
C7    C     C_3   0.078323 0.462190 0.367969 -0.381457
C8    C     C_3   0.122403 0.501535 0.502015 0.128575
C9    C     C_3   0.878710 0.499592 0.496683 0.138013
C10   C     C_3   0.932785 0.467659 0.358002 0.227351
C11   C     C_3   0.585929 0.082698 0.599236 -0.184425
C12   C     C_3   0.586574 0.915057 0.598713 -0.186366
C13   C     C_3   0.374783 0.084534 0.530776 -0.187532
C14   C     C_3   0.374827 0.917120 0.530645 -0.187335
C15   C     C_3   0.538947 0.083741 0.379027 -0.192128
C16   C     C_3   0.540148 0.916545 0.379318 -0.188075
C17   C     C_R   0.500291 0.500296 0.259268 0.779714
C18   C     C_R   0.740251 0.499657 0.499192 0.749551
C19   C     C_R   0.498815 0.499657 0.740784 0.784211
C20   C     C_3   0.511493 0.634261 0.039885 -0.138345
C21   C     C_3   0.391361 0.446141 0.043456 -0.175451
C22   C     C_3   0.402943 0.579409 0.958640 -0.172240
C23   C     C_3   0.498093 0.498842 0.877614 0.025091
C24   C     C_3   0.606490 0.553482 0.956521 -0.176302
C25   C     C_3   0.486382 0.365467 0.960015 -0.142497
C26   C     C_3   0.594854 0.420202 0.041217 -0.173298
Cu1   Cu    Cu3+1 0.499860 0.642410 0.500060 0.885663
Cu2   Cu    Cu3+1 0.499860 0.357590 0.500060 0.886088
H1    H     H_    0.324405 0.644271 0.921539 0.116316
H2    H     H_    0.558180 0.120056 0.694564 0.137359
H3    H     H_    0.560371 0.876210 0.694097 0.142370
H4    H     H_    0.681911 0.121680 0.583462 0.127658
H5    H     H_    0.682999 0.876209 0.580846 0.137526
H6    H     H_    0.341145 0.124085 0.623608 0.132811
H7    H     H_    0.341178 0.877085 0.623372 0.133464
H8    H     H_    0.473990 0.120811 0.304294 0.142891
H9    H     H_    0.476946 0.879580 0.303756 0.139137
H10   H     H_    0.632123 0.124206 0.352540 0.151677
H11   H     H_    0.635023 0.876781 0.354850 0.141916
H12   H     H_    0.306714 0.122660 0.459308 0.138344
H13   H     H_    0.307090 0.880574 0.458991 0.138210
H14   H     H_    0.522199 0.744319 0.075254 0.115826
H15   H     H_    0.303401 0.402482 0.082400 0.110458
H16   H     H_    0.694001 0.596962 0.916600 0.126200
H17   H     H_    0.476049 0.255377 0.924598 0.117526
H18   H     H_    0.672591 0.353614 0.077269 0.107841
H19   H     H_    0.099314 0.730816 0.465456 0.163874
H20   H     H_    0.106287 0.283008 0.575145 0.157331
H21   H     H_    0.106948 0.684935 0.629571 0.159698
H22   H     H_    0.106383 0.417042 0.694186 0.152193
H23   H     H_    0.896563 0.666420 0.641941 0.163759
H24   H     H_    0.895489 0.426626 0.693112 0.149542
H25   H     H_    0.887621 0.738174 0.488971 0.160794
H26   H     H_    0.892991 0.284768 0.588780 0.155517
H27   H     H_    0.122810 0.536736 0.300114 0.135992
H28   H     H_    0.116288 0.356133 0.342045 0.148071
N1    N     N_3   0.500250 0.143650 0.502780 -0.110641
N2    N     N_3   0.500250 0.856350 0.502780 -0.110246
O1    O     O_R   0.317570 0.620260 0.500070 -0.596510
O2    O     O_R   0.317570 0.379740 0.500070 -0.598263
O3    O     O_R   0.499850 0.620240 0.316900 -0.596558
O4    O     O_R   0.499850 0.379760 0.316900 -0.594895
O5    O     O_R   0.682190 0.620260 0.500030 -0.599422
O6    O     O_R   0.682190 0.379740 0.500030 -0.593130
O7    O     O_R   0.499910 0.620280 0.683200 -0.591012
O8    O     O_R   0.499910 0.379720 0.683200 -0.593441
C27   C     C_3   0.895314 0.594971 0.267239 -0.433426
C28   C     C_3   0.925997 0.576549 0.125844 -0.376780
C29   C     C_3   0.912866 0.717212 0.054715 -0.878667
H29   H     H_    0.817721 0.762073 0.067792 0.255215
H30   H     H_    0.982283 0.794734 0.089122 0.254588
H31   H     H_    0.929304 0.699489 0.952607 0.231188
H32   H     H_    0.022311 0.535769 0.112161 0.213297
H33   H     H_    0.860628 0.500163 0.082922 0.210419
H34   H     H_    0.793676 0.616415 0.274742 0.191203
H35   H     H_    0.943678 0.692714 0.297130 0.209625
C30   C     C_3   0.883174 0.326986 0.295295 -0.378777
C31   C     C_3   0.905492 0.183243 0.362167 -0.361167
C32   C     C_3   0.900797 0.059171 0.269796 -0.931158
H36   H     H_    0.811910 0.060743 0.216663 0.251501
H37   H     H_    0.979890 0.064917 0.202269 0.254552
H38   H     H_    0.907688 0.957318 0.322455 0.238951
H39   H     H_    0.996761 0.179011 0.409970 0.217642
H40   H     H_    0.830979 0.164984 0.432050 0.217482
H41   H     H_    0.781857 0.338238 0.276721 0.182410
H42   H     H_    0.929113 0.316763 0.201912 0.197699

loop_
_geom_bond_atom_site_label_1
_geom_bond_atom_site_label_2
_ccdc_geom_bond_type
C7    C10   S    
C22   H1    S    
C1    C8    S    
Cu2   O8    S    
C7    H27   S    
C4    C8    S    
C6    C9    S    
C3    H21   S    
C7    C8    S    
C30   C31   S    
C5    H25   S    
C24   C26   S    
C1    O1    A    
C18   O5    A    
C13   N1    S    
C28   H33   S    
C15   C16   S    
C19   O8    A    
C29   H30   S    
C13   H12   S    
Cu1   O3    S    
C17   O3    A    
C21   H15   S    
C31   H39   S    
C20   C24   S    
C11   H2    S    
C28   C29   S    
C23   C24   S    
C13   C14   S    
C9    C10   S    
C16   H9    S    
C12   N2    S    
C30   H41   S    
Cu2   N1    S    
C21   C22   S    
C2    C17   S    
C15   N1    S    
C7    H28   S    
C6    H26   S    
C10   C30   S    
Cu2   O2    S    
C14   N2    S    
C2    C20   S    
C27   C28   S    
C4    C6    S    
C3    C8    S    
C1    O2    A    
C14   H7    S    
C32   H37   S    
C31   C32   S    
C25   C26   S    
C10   C27   S    
C4    H22   S    
C29   H31   S    
C19   C23   S    
C15   H10   S    
C5    C9    S    
Cu1   O7    S    
C17   O4    A    
C2    C21   S    
C2    C26   S    
C16   N2    S    
Cu1   O5    S    
C14   H13   S    
Cu2   O6    S    
C20   C22   S    
C30   H42   S    
C12   H3    S    
C24   H16   S    
C27   H34   S    
C25   H17   S    
C15   H8    S    
C4    H20   S    
C21   C25   S    
C3    C5    S    
Cu1   N2    S    
C11   H4    S    
C32   H38   S    
C20   H14   S    
C11   C12   S    
C28   H32   S    
C13   H6    S    
Cu1   O1    S    
C18   O6    A    
C3    H19   S    
C19   O7    A    
C23   C25   S    
C29   H29   S    
C26   H18   S    
C16   H11   S    
C32   H36   S    
C31   H40   S    
C9    C18   S    
Cu1   Cu2   S    
C22   C23   S    
C5    H23   S    
C27   H35   S    
C6    H24   S    
C12   H5    S    
C11   N1    S    
Cu2   O4    S    
