data_mof_unit_48187.cif
_audit_creation_date              2012-12-11T21:15:17-0500
_audit_creation_method            fapswitch 2.2
_symmetry_space_group_name_H-M    P1
_symmetry_Int_Tables_number       1
_space_group_crystal_system       triclinic
_cell_length_a                    8.431999
_cell_length_b                    18.841623
_cell_length_c                    26.928768
_cell_angle_alpha                 99.725389
_cell_angle_beta                  93.325469
_cell_angle_gamma                 87.093647
_cell_volume                      4206.01857539

loop_
_atom_site_label
_atom_site_type_symbol
_atom_type_description
_atom_site_fract_x
_atom_site_fract_y
_atom_site_fract_z
_atom_type_partial_charge
Ba1   Ba    Ba6+2 0.160810 0.465630 0.521640 1.704083
Ba2   Ba    Ba6+2 0.649380 0.534380 0.478400 1.688481
C1    C     C_3   0.406027 0.293812 0.699895 -0.314877
C2    C     C_R   0.080602 0.095376 0.455797 0.040374
C3    C     C_R   0.230632 0.072260 0.437718 -0.083481
C4    C     C_3   0.890281 0.299939 0.680599 0.739423
C5    C     C_R   0.293272 0.003120 0.441561 -0.088502
C6    C     C_R   0.205818 0.955159 0.462647 0.032173
C7    C     C_R   0.055356 0.977497 0.480942 0.023885
C8    C     C_R   0.265178 0.884743 0.464328 -0.130951
C9    C     C_R   0.172333 0.833729 0.480953 -0.034442
C10   C     C_R   0.024703 0.856903 0.502139 0.015310
C11   C     C_R   0.967050 0.929230 0.501994 0.006687
C12   C     C_3   0.407813 0.314396 0.647774 0.369903
C13   C     C_R   0.218847 0.759683 0.474408 0.115923
C14   C     C_R   0.118319 0.710003 0.489399 -0.174751
C15   C     C_R   0.983168 0.733359 0.517297 0.049978
C16   C     C_3   0.911017 0.286855 0.735027 -0.276538
C17   C     C_R   0.933553 0.808047 0.522734 -0.067360
C18   C     C_R   0.844348 0.071559 0.497116 0.018006
C19   C     C_R   0.785270 0.143417 0.496263 0.054523
C20   C     C_R   0.876481 0.192159 0.475734 -0.012283
C21   C     C_R   0.018697 0.165312 0.452773 -0.046617
C22   C     C_R   0.792084 0.835299 0.545997 -0.004541
C23   C     C_3   0.470873 0.314290 0.397181 0.307729
C24   C     C_R   0.731027 0.905574 0.543293 0.027414
C25   C     C_R   0.818356 0.952707 0.521176 0.011134
C26   C     C_R   0.756709 0.023582 0.518535 0.033983
C27   C     C_R   0.581491 0.929178 0.561479 -0.036943
C28   C     C_3   0.892887 0.622498 0.635366 0.388927
C29   C     C_R   0.519771 0.998514 0.558427 -0.080440
C30   C     C_R   0.607031 0.046324 0.537414 0.044581
C31   C     C_R   0.637352 0.166791 0.517392 0.011408
C32   C     C_R   0.547425 0.116714 0.535945 -0.038148
C33   C     C_R   0.586687 0.240159 0.521209 0.005720
C34   C     C_3   0.474602 0.233031 0.380393 -0.384620
C35   C     C_R   0.682659 0.288778 0.504101 -0.257090
C36   C     C_R   0.825062 0.266373 0.480622 0.082345
C37   C     C_R   0.300377 0.450528 0.174910 0.572408
C38   C     C_R   0.147608 0.560434 0.171131 0.620706
C39   C     C_2   0.022899 0.524678 0.267556 -0.008885
C40   C     C_3   0.963036 0.641155 0.689137 -0.305612
C41   C     C_3   0.986796 0.519305 0.321246 -0.043652
C42   C     C_1   0.271662 0.490781 0.335895 -0.010144
C43   C     C_2   0.305242 0.498765 0.289763 -0.067536
C44   C     C_2   0.173617 0.512085 0.251642 0.242080
C45   C     C_3   0.821998 0.723871 0.384979 0.403049
C46   C     C_R   0.288951 0.502413 0.097481 -0.079449
C47   C     C_R   0.342712 0.447321 0.124509 -0.026943
C48   C     C_R   0.438685 0.390211 0.100745 -0.057559
C49   C     C_R   0.190215 0.559142 0.121022 -0.049530
C50   C     C_2   0.134828 0.515250 0.355186 -0.168858
C51   C     C_2   0.643097 0.474450 0.640470 -0.234843
C52   C     C_3   0.988941 0.366517 0.366263 0.296216
C53   C     C_R   0.462683 0.437543 0.971092 0.019744
C54   C     C_R   0.334897 0.558208 0.971242 0.019692
C55   C     C_R   0.420933 0.497091 0.946145 0.049659
C56   C     C_3   0.812091 0.802145 0.375899 -0.362373
C57   C     C_R   0.539287 0.376156 0.943321 -0.100301
C58   C     C_R   0.578148 0.374371 0.893588 -0.060215
C59   C     C_R   0.543672 0.433832 0.869280 -0.025101
C60   C     C_R   0.465537 0.495472 0.895529 -0.081618
C61   C     C_R   0.431821 0.555450 0.871160 -0.032751
C62   C     C_R   0.478891 0.553465 0.821403 0.590003
C63   C     C_R   0.584152 0.432415 0.818966 0.576400
C64   C     C_3   0.009176 0.337630 0.310552 -0.365725
C65   C     C_2   0.746430 0.471919 0.729259 -0.113206
C66   C     C_3   0.788074 0.476069 0.675821 -0.079839
C67   C     C_3   0.416798 0.711251 0.344450 0.657953
C68   C     C_1   0.513370 0.509817 0.657855 -0.001328
C69   C     C_2   0.473177 0.509619 0.704769 -0.134535
C70   C     C_2   0.595679 0.490089 0.743620 0.232280
C71   C     C_R   0.425663 0.440964 0.022535 0.020133
C72   C     C_R   0.332763 0.500478 0.046737 0.052599
C73   C     C_R   0.282970 0.558056 0.020722 0.020372
C74   C     C_R   0.479245 0.386976 0.051004 -0.100842
C75   C     C_R   0.135552 0.613674 0.094023 -0.050744
C76   C     C_3   0.481533 0.693217 0.644280 0.677275
C77   C     C_R   0.305158 0.617909 0.945931 -0.099492
C78   C     C_3   0.495613 0.736205 0.300770 -0.284146
C79   C     C_R   0.352996 0.616520 0.897155 -0.058886
C80   C     C_R   0.181045 0.613374 0.045148 -0.097730
C81   C     C_3   0.523491 0.688917 0.699928 -0.346572
C82   C     C_3   0.153757 0.631301 0.472226 -0.243920
C83   C     C_R   0.993452 0.048236 0.478080 0.016617
H1    H     H_    0.310555 0.355368 0.644339 0.108517
H2    H     H_    0.583862 0.678273 0.620552 0.006349
H3    H     H_    0.295764 0.265764 0.703524 0.130759
H4    H     H_    0.413699 0.691158 0.721117 0.159600
H5    H     H_    0.598544 0.734037 0.717539 0.116100
H6    H     H_    0.593734 0.638916 0.703728 0.034263
H7    H     H_    0.523388 0.338000 0.644021 -0.037517
H8    H     H_    0.409547 0.343193 0.728858 0.099848
H9    H     H_    0.594532 0.331222 0.406971 0.020386
H10   H     H_    0.398506 0.327258 0.430991 0.046471
H11   H     H_    0.547986 0.217916 0.346990 0.138176
H12   H     H_    0.967675 0.593405 0.708278 0.066038
H13   H     H_    0.526716 0.205629 0.411275 0.030565
H14   H     H_    0.351904 0.214695 0.370470 0.115609
H15   H     H_    0.510662 0.257763 0.706416 0.156915
H16   H     H_    0.808206 0.258187 0.744743 0.135283
H17   H     H_    0.716609 0.713186 0.404400 0.055615
H18   H     H_    0.924680 0.717979 0.411321 0.037988
H19   H     H_    0.690068 0.826038 0.380635 0.106365
H20   H     H_    0.891576 0.835641 0.403532 0.071683
H21   H     H_    0.846239 0.805853 0.337292 0.207822
H22   H     H_    0.455353 0.654982 0.346955 0.022945
H23   H     H_    0.085702 0.659825 0.688687 0.148919
H24   H     H_    0.467408 0.700077 0.264608 0.119713
H25   H     H_    0.624703 0.735194 0.305086 0.105407
H26   H     H_    0.454486 0.792239 0.297334 0.141793
H27   H     H_    0.300552 0.107979 0.421095 0.061077
H28   H     H_    0.409656 0.986849 0.427461 0.071535
H29   H     H_    0.381605 0.869786 0.450313 0.116181
H30   H     H_    0.085988 0.198755 0.433660 0.092847
H31   H     H_    0.724443 0.801792 0.564882 0.166267
H32   H     H_    0.510414 0.893934 0.577502 0.197129
H33   H     H_    0.403683 0.014827 0.572763 0.107293
H34   H     H_    0.889271 0.684681 0.710930 0.115100
H35   H     H_    0.431970 0.132129 0.550709 0.111056
H36   H     H_    0.773971 0.328613 0.675671 -0.126468
H37   H     H_    0.643086 0.344877 0.507757 0.048468
H38   H     H_    0.427707 0.493781 0.278931 0.112649
H39   H     H_    0.483675 0.347405 0.120680 0.124041
H40   H     H_    0.839922 0.461388 0.756780 0.083339
H41   H     H_    0.636369 0.325796 0.874180 0.123643
H42   H     H_    0.567911 0.327499 0.958526 0.073710
H43   H     H_    0.556307 0.341921 0.036342 0.072144
H44   H     H_    0.923799 0.530740 0.240850 0.089638
H45   H     H_    0.107705 0.378055 0.384702 0.029327
H46   H     H_    0.057433 0.657546 0.110792 0.131539
H47   H     H_    0.248218 0.667662 0.963266 0.074871
H48   H     H_    0.021998 0.254324 0.740798 0.117861
H49   H     H_    0.327156 0.663883 0.879720 0.126592
H50   H     H_    0.352778 0.524982 0.715552 0.129920
H51   H     H_    0.130834 0.656757 0.027073 0.073098
H52   H     H_    0.114989 0.511946 0.394010 0.017868
H53   H     H_    0.640819 0.439704 0.603918 0.060282
H54   H     H_    0.920093 0.338952 0.760984 0.093023
H55   H     H_    0.772715 0.602531 0.636061 -0.147885
H56   H     H_    0.910703 0.416050 0.370345 0.023596
H57   H     H_    0.965362 0.578068 0.615118 0.094906
H58   H     H_    0.574123 0.855574 0.691362 0.354210
H59   H     H_    0.161564 0.819248 0.374253 0.318102
H60   H     H_    0.126977 0.170081 0.650299 0.353299
H61   H     H_    0.057450 0.596748 0.463119 0.137358
H62   H     H_    0.180876 0.622807 0.432685 0.102753
H63   H     H_    0.241331 0.608628 0.498378 0.154890
H64   H     H_    0.077433 0.285141 0.306287 0.143089
H65   H     H_    0.075102 0.375369 0.292916 0.068625
H66   H     H_    0.890859 0.329925 0.290506 0.119504
N1    N     N_R   0.207187 0.507832 0.198450 -0.434775
N2    N     N_R   0.553189 0.492081 0.795574 -0.422843
O1    O     O_2   0.106080 0.324280 0.466820 -0.472770
O2    O     O_2   0.663433 0.562684 0.332811 -0.520563
O3    O     O_3   0.837539 0.674814 0.339217 -0.532011
O4    O     O_3   0.859130 0.413620 0.470620 -0.486420
O5    O     O_3   0.459240 0.537930 0.559910 -0.479878
O6    O     O_2   0.583120 0.462390 0.379940 -0.459413
O7    O     O_3   0.403705 0.347669 0.357635 -0.631006
O8    O     O_2   0.541715 0.756442 0.483684 -0.487527
O9    O     O_3   0.452068 0.758036 0.390171 -0.680123
O10   O     O_2   0.344668 0.401502 0.197573 -0.599911
O11   O     O_2   0.645213 0.377565 0.795752 -0.636215
O12   O     O_3   0.351352 0.651913 0.625162 -0.612370
O13   O     O_2   0.057758 0.608813 0.190375 -0.531934
O14   O     O_2   0.455023 0.606753 0.801259 -0.609190
O15   O     O_3   0.376230 0.370290 0.556910 -0.499868
O16   O     O_2   0.253731 0.243862 0.520921 -0.461614
O17   O     O_3   0.917400 0.314210 0.387052 -0.646365
O18   O     O_3   0.385018 0.253041 0.610972 -0.570477
O19   O     O_2   0.227190 0.537650 0.620070 -0.459192
O20   O     O_3   0.971110 0.406970 0.583250 -0.442609
O21   O     O_2   0.108545 0.462371 0.670007 -0.504482
O22   O     O_2   0.368331 0.786969 0.585610 -0.317214
O23   O     O_3   0.020654 0.337403 0.669999 -0.618113
O24   O     O_2   0.291857 0.810544 0.673211 -0.279987
O25   O     O_3   0.582367 0.836216 0.655014 -0.554359
O26   O     O_2   0.177906 0.683671 0.274493 -0.239585
O27   O     O_2   0.135926 0.672896 0.361112 -0.417497
O28   O     O_3   0.143362 0.802178 0.337784 -0.509695
O29   O     O_2   0.726852 0.185730 0.635561 -0.303183
O30   O     O_2   0.932557 0.227519 0.587892 -0.314792
O31   O     O_3   0.022431 0.156092 0.659618 -0.489139
O32   O     O_2   0.704230 0.675760 0.533200 -0.455508
O33   O     O_3   0.951180 0.586390 0.529420 -0.522759
O34   O     O_3   0.434080 0.629720 0.443130 -0.482288
O35   O     O_3   0.886032 0.685055 0.613317 -0.604921
O36   O     O_3   0.351080 0.462080 0.440130 -0.494929
O37   O     O_3   0.839200 0.593040 0.416790 -0.521966
P1    P     P_3+3 0.929380 0.335110 0.452880 0.983069
P2    P     P_3+3 0.398530 0.559060 0.613740 0.972285
P3    P     P_3+3 0.962442 0.418854 0.649488 0.952835
P4    P     P_3+3 0.880940 0.664900 0.547160 1.012863
P5    P     P_3+3 0.832642 0.586188 0.351386 1.026242
P6    P     P_3+3 0.400658 0.276836 0.551327 0.993232
P7    P     P_3+3 0.402576 0.441261 0.376705 0.955424
P8    P     P_3+3 0.410006 0.724206 0.445681 0.975304
S1    S     S_3+6 0.425113 0.784044 0.639129 -0.074438
S2    S     S_3+6 0.211755 0.715998 0.328572 -0.099854
S3    S     S_3+6 0.889588 0.215610 0.639031 -0.066818

loop_
_geom_bond_atom_site_label_1
_geom_bond_atom_site_label_2
_ccdc_geom_bond_type
C76   H2    S    
C44   N1    S    
O25   S1    S    
C53   C57   A    
O29   S3    D    
C71   C72   A    
C52   O17   S    
Ba2   O36   S    
O32   P4    D    
O1    P1    D    
C49   C75   A    
C67   H22   S    
C68   P2    S    
C55   C60   A    
C43   C44   S    
O19   P2    D    
H60   O31   S    
Ba1   O20   S    
C24   C25   A    
C35   C36   A    
C54   C77   A    
O8    P8    D    
C61   C79   A    
Ba1   O5    S    
C33   C35   A    
C22   C24   A    
C64   H65   S    
C62   O14   D    
C48   C74   A    
C65   H40   S    
C69   H50   S    
C41   C50   S    
C19   C31   A    
C45   O3    S    
C77   H47   S    
C57   H42   S    
C13   C14   A    
C20   C36   A    
C14   C82   S    
O12   P2    S    
C54   C55   A    
C10   C17   A    
C16   H48   S    
C41   P5    S    
Ba1   Ba2   S    
C75   H46   S    
H58   O25   S    
C51   C66   S    
C7    C11   A    
Ba2   O34   S    
C63   N2    Am   
O26   S2    D    
C7    C83   A    
C9    C13   A    
C76   C81   S    
C46   C49   A    
C6    C7    A    
C54   C73   A    
C78   H24   S    
C67   S2    S    
O24   S1    D    
C39   C44   D    
C68   C69   D    
C70   N2    S    
O23   P3    S    
O4    P1    S    
C38   O13   D    
C8    H29   S    
C42   C50   D    
O35   P4    S    
C42   P7    S    
C61   C62   A    
C45   H17   S    
C19   C20   A    
C39   C41   S    
C15   P4    S    
C59   C60   A    
C16   H54   S    
C52   H45   S    
C51   C68   D    
C1    H15   S    
Ba1   P2    S    
C50   H52   S    
O16   P6    D    
C82   H63   S    
C32   H35   S    
C81   H4    S    
C4    C16   S    
C45   H18   S    
C72   C73   A    
O34   P8    S    
C51   H53   S    
O30   S3    D    
C46   C72   A    
C65   C70   D    
O3    P5    S    
C48   H39   S    
C67   O9    S    
C12   H1    S    
C64   H64   S    
C40   H12   S    
C3    C5    A    
C2    C21   A    
C14   C15   A    
C2    C83   A    
C18   C26   A    
Ba1   O15   S    
Ba1   O33   S    
C27   H32   S    
C37   N1    Am   
C43   H38   S    
C65   C66   S    
C58   C59   A    
Ba2   P4    S    
C16   H16   S    
C30   C32   A    
Ba2   O33   S    
C29   H33   S    
C60   C61   A    
O27   S2    D    
O5    P2    S    
C34   H11   S    
C29   C30   A    
C26   C30   A    
Ba2   O5    S    
C12   H7    S    
C18   C83   A    
C23   O7    S    
C31   C32   A    
C1    H8    S    
C57   C58   A    
C18   C19   A    
O22   S1    D    
C66   P3    S    
C1    C12   S    
C33   P6    S    
C4    S3    S    
O37   P5    S    
C6    C8    A    
C46   C47   A    
C37   C47   A    
C38   N1    Am   
C22   H31   S    
C53   C55   A    
O20   P3    S    
C74   H43   S    
C71   C74   A    
C56   H19   S    
C76   S1    S    
Ba2   O6    S    
C37   O10   D    
Ba1   P1    S    
C79   H49   S    
C42   C43   D    
C77   C79   A    
C82   H62   S    
O36   P7    S    
C13   P8    S    
C81   H5    S    
H59   O28   S    
C76   O12   S    
O31   S3    S    
C1    H3    S    
O33   P4    S    
C28   C40   S    
Ba2   O37   S    
C12   O18   S    
C28   H55   S    
C78   H26   S    
C9    C10   A    
C73   C80   A    
C23   H10   S    
O7    P7    S    
C52   C64   S    
C3    H27   S    
C82   H61   S    
C38   C49   A    
C81   H6    S    
O9    P8    S    
Ba1   O19   S    
C28   H57   S    
C56   H20   S    
C5    H28   S    
Ba1   O4    S    
C17   C22   A    
Ba2   O32   S    
C64   H66   S    
C27   C29   A    
C45   C56   S    
C39   H44   S    
C4    O23   S    
C75   C80   A    
Ba2   O4    S    
C2    C3    A    
O17   P1    S    
C63   O11   D    
C58   H41   S    
C31   C33   A    
C34   H14   S    
C80   H51   S    
Ba1   O1    S    
C40   H34   S    
C5    C6    A    
C8    C9    A    
C23   C34   S    
C21   H30   S    
C35   H37   S    
C53   C71   A    
C15   C17   A    
C59   C63   A    
C23   H9    S    
C52   H56   S    
C69   C70   S    
C10   C11   A    
C24   C27   A    
O18   P6    S    
C47   C48   A    
O15   P6    S    
O6    P7    D    
C78   H25   S    
C25   C26   A    
C36   P1    S    
C20   C21   A    
C11   C25   A    
C67   C78   S    
C34   H13   S    
C4    H36   S    
C56   H21   S    
O28   S2    S    
C40   H23   S    
O2    P5    D    
O21   P3    D    
C28   O35   S    
C62   N2    Am   
Ba1   O36   S    
