data_mof_unit_65939.cif
_audit_creation_date              2012-12-10T19:42:09-0500
_audit_creation_method            fapswitch 2.2
_symmetry_space_group_name_H-M    P1
_symmetry_Int_Tables_number       1
_space_group_crystal_system       triclinic
_cell_length_a                    23.424429
_cell_length_b                    22.477285
_cell_length_c                    27.726989
_cell_angle_alpha                 89.972415
_cell_angle_beta                  89.689483
_cell_angle_gamma                 90.169923
_cell_volume                      14598.4663773

loop_
_atom_site_label
_atom_site_type_symbol
_atom_type_description
_atom_site_fract_x
_atom_site_fract_y
_atom_site_fract_z
_atom_type_partial_charge
C1    C     C_R   0.389194 0.499838 0.499079 0.938985
C2    C     C_R   0.610828 0.500172 0.501350 0.934527
C3    C     C_R   0.492320 0.507404 0.252803 0.276896
C4    C     C_R   0.500425 0.505830 0.747104 0.272433
C5    C     C_R   0.495396 0.522404 0.101866 -0.084074
C6    C     C_R   0.496986 0.520014 0.898133 -0.084305
C7    C     C_R   0.443078 0.515844 0.126767 -0.011421
C8    C     C_R   0.548843 0.509679 0.873469 -0.010832
C9    C     C_R   0.391927 0.513169 0.101223 -0.120777
C10   C     C_R   0.599621 0.503934 0.899169 -0.120711
C11   C     C_R   0.547156 0.526271 0.127966 -0.092729
C12   C     C_R   0.445669 0.526750 0.871832 -0.092488
C13   C     C_R   0.499419 0.501024 0.353149 -0.116403
C14   C     C_R   0.497678 0.500774 0.646633 -0.124147
C15   C     C_R   0.444261 0.528474 0.974219 0.005080
C16   C     C_R   0.548336 0.525950 0.025662 0.005051
C17   C     C_R   0.548844 0.519965 0.974846 0.071401
C18   C     C_R   0.443423 0.523986 0.025183 0.071219
C19   C     C_R   0.496684 0.523059 0.949177 0.079758
C20   C     C_R   0.495729 0.524404 0.050789 0.079834
C21   C     C_R   0.394211 0.538165 0.947486 -0.246451
C22   C     C_R   0.598936 0.533500 0.052150 -0.247153
C23   C     C_R   0.500798 0.500067 0.405844 0.935984
C24   C     C_R   0.498784 0.500038 0.594062 0.938282
C25   C     C_R   0.394205 0.537644 0.897343 0.238556
C26   C     C_R   0.599070 0.533969 0.102269 0.238627
C27   C     C_R   0.391956 0.517366 0.051401 -0.203195
C28   C     C_R   0.599775 0.509186 0.948894 -0.203831
C29   C     C_R   0.880364 0.512347 0.461922 0.519276
C30   C     C_R   0.119760 0.488990 0.544140 0.518938
C31   C     C_R   0.880728 0.484729 0.545281 0.517789
C32   C     C_R   0.119299 0.516975 0.460862 0.517154
C33   C     C_R   0.940335 0.485654 0.545949 -0.022169
C34   C     C_R   0.059712 0.516377 0.460298 -0.021503
C35   C     C_R   0.970051 0.500378 0.503245 -0.017961
C36   C     C_R   0.030018 0.501660 0.503006 -0.018028
C37   C     C_R   0.939944 0.513790 0.460767 -0.023080
C38   C     C_R   0.060149 0.488086 0.545438 -0.022774
C39   C     C_R   0.970728 0.472336 0.588068 -0.142528
C40   C     C_R   0.029327 0.529836 0.418208 -0.142621
C41   C     C_R   0.030155 0.473529 0.587811 -0.142412
C42   C     C_R   0.969922 0.528520 0.418433 -0.142708
C43   C     C_R   0.539807 0.315671 0.473613 0.018936
C44   C     C_R   0.461512 0.684193 0.527871 0.006287
C45   C     C_R   0.460090 0.315526 0.526396 0.033756
C46   C     C_R   0.538598 0.684508 0.472269 0.024092
C47   C     C_R   0.540438 0.253246 0.473055 -0.186629
C48   C     C_R   0.460785 0.746626 0.528429 -0.197987
C49   C     C_R   0.459255 0.253089 0.526930 -0.184427
C50   C     C_R   0.539410 0.746949 0.471861 -0.194394
C51   C     C_R   0.236556 0.457102 0.475734 -0.114020
C52   C     C_R   0.762674 0.544338 0.527442 -0.112260
C53   C     C_R   0.295845 0.455642 0.474082 0.117894
C54   C     C_R   0.703349 0.545777 0.527483 0.125483
C55   C     C_R   0.327165 0.499669 0.498930 -0.096504
C56   C     C_R   0.672905 0.500349 0.503391 -0.100320
C57   C     C_R   0.298550 0.544711 0.524294 -0.212531
C58   C     C_R   0.702525 0.453611 0.481044 -0.205416
C59   C     C_R   0.239378 0.545724 0.525582 -0.084071
C60   C     C_R   0.761697 0.452746 0.481259 -0.088347
C61   C     C_R   0.208484 0.501882 0.501377 0.265730
C62   C     C_R   0.791642 0.498273 0.504204 0.268536
C63   C     C_R   0.547055 0.874044 0.516464 0.518817
C64   C     C_R   0.452881 0.125795 0.483623 0.522902
C65   C     C_R   0.452993 0.873689 0.483851 0.515582
C66   C     C_R   0.546776 0.126146 0.516572 0.519421
C67   C     C_R   0.451990 0.936555 0.483592 -0.024639
C68   C     C_R   0.547811 0.063281 0.516754 -0.024820
C69   C     C_R   0.547953 0.936919 0.516711 -0.027803
C70   C     C_R   0.451929 0.062918 0.483494 -0.027784
C71   C     C_R   0.499945 0.968292 0.500146 -0.012502
C72   C     C_R   0.499894 0.031545 0.500132 -0.012769
C73   C     C_R   0.404319 0.968403 0.467046 -0.143981
C74   C     C_R   0.595489 0.031431 0.533292 -0.142290
C75   C     C_R   0.595570 0.969133 0.533249 -0.142669
C76   C     C_R   0.404299 0.030702 0.466977 -0.140947
C77   C     C_R   0.443053 0.510776 0.176908 0.520852
C78   C     C_R   0.548793 0.504298 0.823382 0.519815
C79   C     C_R   0.499812 0.221084 0.500000 0.299412
C80   C     C_R   0.500094 0.778826 0.500161 0.308694
C81   C     C_R   0.544392 0.522251 0.178650 0.536412
C82   C     C_R   0.448479 0.522572 0.821129 0.537668
C83   C     C_R   0.520298 0.459494 0.274424 -0.125858
C84   C     C_R   0.469315 0.460785 0.724275 -0.124912
C85   C     C_R   0.525533 0.456412 0.324562 -0.055995
C86   C     C_R   0.466221 0.458553 0.673952 -0.065566
C87   C     C_R   0.470150 0.548003 0.330924 -0.210930
C88   C     C_R   0.529388 0.545159 0.669989 -0.207580
C89   C     C_R   0.467028 0.551409 0.281107 -0.075971
C90   C     C_R   0.530394 0.547931 0.719884 -0.074605
H1    H     H_    0.572184 0.230122 0.451687 0.167012
H2    H     H_    0.430067 0.769740 0.550855 0.161280
H3    H     H_    0.427470 0.229840 0.548326 0.169721
H4    H     H_    0.570172 0.770315 0.449503 0.163582
H5    H     H_    0.350972 0.512715 0.034291 0.155858
H6    H     H_    0.640292 0.502102 0.966212 0.156089
H7    H     H_    0.948746 0.460930 0.621289 0.199591
H8    H     H_    0.051301 0.541275 0.384989 0.199574
H9    H     H_    0.052451 0.462941 0.620828 0.200064
H10   H     H_    0.947630 0.539050 0.385400 0.200077
H11   H     H_    0.211993 0.423730 0.456713 0.167763
H12   H     H_    0.786562 0.578941 0.545622 0.166952
H13   H     H_    0.322031 0.578765 0.543546 0.168658
H14   H     H_    0.679902 0.418065 0.462946 0.172353
H15   H     H_    0.217448 0.580524 0.545246 0.156149
H16   H     H_    0.784374 0.416901 0.463539 0.154107
H17   H     H_    0.571212 0.340201 0.452975 0.143726
H18   H     H_    0.431298 0.659506 0.549772 0.137407
H19   H     H_    0.428816 0.339953 0.547139 0.153378
H20   H     H_    0.568840 0.660065 0.450376 0.149803
H21   H     H_    0.449730 0.582409 0.352194 0.174052
H22   H     H_    0.553496 0.577839 0.649514 0.188261
H23   H     H_    0.445677 0.588727 0.264402 0.156453
H24   H     H_    0.554102 0.583109 0.737499 0.159831
H25   H     H_    0.351381 0.507402 0.119659 0.198143
H26   H     H_    0.639738 0.495123 0.880929 0.198292
H27   H     H_    0.366798 0.945299 0.454054 0.196878
H28   H     H_    0.632992 0.054534 0.546323 0.197320
H29   H     H_    0.633127 0.946317 0.546250 0.197810
H30   H     H_    0.366762 0.053517 0.453934 0.198183
H31   H     H_    0.445399 0.429251 0.746071 0.180059
H32   H     H_    0.540619 0.426394 0.251732 0.175665
H33   H     H_    0.354116 0.548085 0.964884 0.166917
H34   H     H_    0.639451 0.540915 0.034515 0.167155
N1    N     N_R   0.493175 0.513524 0.201521 -0.356157
N2    N     N_R   0.499193 0.510692 0.798483 -0.355607
N3    N     N_R   0.852341 0.498062 0.503732 -0.355880
N4    N     N_R   0.147767 0.503071 0.502263 -0.355310
N5    N     N_R   0.500000 0.345660 0.500000 -0.102168
N6    N     N_R   0.500000 0.654340 0.500000 -0.098652
N7    N     N_R   0.500049 0.843476 0.500160 -0.346121
N8    N     N_R   0.499814 0.156396 0.500076 -0.345181
O1    O     O_R   0.416150 0.549570 0.500020 -0.635186
O2    O     O_R   0.583850 0.450430 0.499980 -0.620297
O3    O     O_R   0.583850 0.549570 0.499980 -0.602309
O4    O     O_R   0.416150 0.450430 0.500020 -0.590810
O5    O     O_R   0.500010 0.549550 0.428760 -0.630707
O6    O     O_R   0.499990 0.450450 0.571240 -0.606298
O7    O     O_R   0.499990 0.549550 0.571240 -0.619197
O8    O     O_R   0.500010 0.450450 0.428760 -0.593965
O9    O     O_2   0.592669 0.843827 0.532887 -0.535584
O10   O     O_2   0.407394 0.155968 0.466901 -0.533951
O11   O     O_2   0.407427 0.843129 0.467432 -0.548271
O12   O     O_2   0.592224 0.156659 0.533277 -0.545551
O13   O     O_2   0.393424 0.502434 0.201011 -0.540211
O14   O     O_2   0.597866 0.492278 0.799578 -0.541726
O15   O     O_2   0.401495 0.530438 0.794162 -0.507011
O16   O     O_2   0.591991 0.526847 0.205390 -0.505591
O17   O     O_2   0.850504 0.525564 0.421833 -0.533421
O18   O     O_2   0.149634 0.475315 0.584116 -0.534609
O19   O     O_2   0.851219 0.470494 0.585636 -0.534628
O20   O     O_2   0.148731 0.531396 0.420505 -0.536575
Zn1   Zn    Zn3+2 0.500000 0.566180 0.500000 0.987798
Zn2   Zn    Zn3+2 0.500000 0.433820 0.500000 1.013815
I1    I     I_    0.333389 0.388362 0.430341 -0.258856
I2    I     I_    0.664631 0.615546 0.567832 -0.296204
C91   C     C_2   0.426276 0.415335 0.651667 0.934027
O21   O     O_2   0.420381 0.365733 0.669189 -0.608475
O22   O     O_R   0.393329 0.432203 0.612058 -0.804200
H35   H     H_    0.366345 0.399601 0.601147 0.346313
C92   C     C_2   0.562662 0.409605 0.345010 0.943225
O23   O     O_2   0.561580 0.359294 0.328242 -0.607359
O24   O     O_R   0.601125 0.423727 0.381653 -0.809151
H36   H     H_    0.626304 0.388858 0.390537 0.328649
I3    I     I_    0.312180 0.553670 0.866625 -0.203106
I4    I     I_    0.681896 0.546555 0.132653 -0.200921

loop_
_geom_bond_atom_site_label_1
_geom_bond_atom_site_label_2
_ccdc_geom_bond_type
C43   H17   S    
C15   C18   A    
C66   C68   A    
C45   N5    A    
C91   O21   D    
C85   C92   S    
C53   C55   A    
C27   H5    S    
C35   C36   A    
C51   C61   A    
C31   N3    A    
C82   O15   S    
C10   H26   S    
C39   C41   A    
C5    C20   A    
C11   C81   A    
C15   C19   A    
C6    C19   A    
C52   H12   S    
C2    O2    A    
C34   C40   A    
C35   C37   A    
C84   C86   A    
C5    C11   A    
C54   I2    S    
C62   N3    S    
C65   O11   S    
C45   H19   S    
C39   H7    S    
C87   H21   S    
O7    Zn1   S    
C68   C74   A    
C76   H30   S    
C31   O19   S    
C13   C23   S    
C18   C20   A    
C60   C62   A    
C14   C24   S    
C37   C42   A    
C69   C71   A    
C82   N2    A    
C65   N7    A    
C33   C39   A    
C63   C69   A    
C16   C17   A    
C65   C67   A    
C4    C84   A    
C48   H2    S    
C41   H9    S    
C67   C73   A    
C47   C79   A    
N6    Zn1   S    
C1    O4    A    
C43   C47   A    
C4    C90   A    
C68   C72   A    
C7    C77   A    
O6    Zn2   S    
C40   C42   A    
C91   O22   S    
C80   N7    S    
C8    C78   A    
C1    O1    A    
C6    C12   A    
C92   O24   S    
C52   C54   A    
C92   O23   D    
C58   C60   A    
C66   N8    A    
C44   H18   S    
C24   O7    A    
C57   H13   S    
C30   N4    A    
C59   C61   A    
C73   H27   S    
C74   C75   A    
O5    Zn1   S    
C9    H25   S    
C64   N8    A    
C23   O8    A    
C43   N5    A    
C75   H29   S    
C14   C86   A    
C38   C41   A    
C5    C7    A    
C50   H4    S    
C74   H28   S    
C6    C8    A    
C11   C26   A    
C25   I3    S    
C84   H31   S    
C49   C79   A    
C51   C53   A    
C32   C34   A    
C21   H33   S    
C64   C70   A    
C42   H10   S    
O4    Zn2   S    
O22   H35   S    
C32   O20   S    
C89   H23   S    
C45   C49   A    
C16   C20   A    
C81   O16   S    
C13   C87   A    
C31   C33   A    
C3    C89   A    
C63   O9    S    
C12   C82   A    
C59   H15   S    
C83   C85   A    
C88   C90   A    
C53   I1    S    
C63   N7    A    
C55   C57   A    
C3    C83   A    
C29   C37   A    
C73   C76   A    
O1    Zn1   S    
C57   C59   A    
C58   H14   S    
C70   C76   A    
C17   C19   A    
C78   N2    A    
C77   O13   S    
C77   N1    A    
C9    C27   A    
C10   C28   A    
C7    C9    A    
C21   C25   A    
C26   I4    S    
C16   C22   A    
C81   N1    A    
C17   C28   A    
C47   H1    S    
C23   O5    A    
C18   C27   A    
C50   C80   A    
C46   N6    A    
C70   C72   A    
C3    N1    S    
C54   C56   A    
C22   H34   S    
C60   H16   S    
C51   H11   S    
C46   C50   A    
C2    O3    A    
O3    Zn1   S    
C4    N2    S    
C12   C25   A    
C28   H6    S    
C24   O6    A    
C48   C80   A    
C29   N3    A    
C1    C55   S    
C14   C88   A    
C71   C72   A    
C46   H20   S    
C52   C62   A    
C40   H8    S    
C32   N4    A    
O2    Zn2   S    
C64   O10   S    
C79   N8    S    
C36   C38   A    
C33   C35   A    
C34   C36   A    
C56   C58   A    
C69   C75   A    
C61   N4    S    
C67   C71   A    
C90   H24   S    
C83   H32   S    
C86   C91   S    
O24   H36   S    
C30   O18   S    
C78   O14   S    
C29   O17   S    
C88   H22   S    
C15   C21   A    
C66   O12   S    
C8    C10   A    
C22   C26   A    
C13   C85   A    
C87   C89   A    
C2    C56   S    
C30   C38   A    
C49   H3    S    
C44   N6    A    
N5    Zn2   S    
C44   C48   A    
O8    Zn2   S    
