data_mof_unit_52299.cif
_audit_creation_date              2013-03-05T15:41:43-0500
_audit_creation_method            fapswitch 2.2
_symmetry_space_group_name_H-M    P1
_symmetry_Int_Tables_number       1
_space_group_crystal_system       triclinic
_cell_length_a                    11.25453
_cell_length_b                    12.767757
_cell_length_c                    24.467252
_cell_angle_alpha                 90.768024
_cell_angle_beta                  97.258592
_cell_angle_gamma                 68.536456
_cell_volume                      3243.72945722

loop_
_atom_site_label
_atom_site_type_symbol
_atom_site_description
_atom_site_fract_x
_atom_site_fract_y
_atom_site_fract_z
_atom_type_partial_charge
O1    O     O_R   0.196340 0.303200 0.448500 -0.478329
O2    O     O_R   0.199310 0.519670 0.454880 -0.483088
C1    C     C_R   0.138334 0.611354 0.424857 0.552569
O3    O     O_R   0.045660 0.691380 0.441680 -0.532909
O4    O     O_R   0.811930 0.659460 0.430950 -0.525466
C2    C     C_R   0.764992 0.595161 0.402355 0.569908
O5    O     O_R   0.757900 0.507620 0.421760 -0.533316
O6    O     O_R   0.988630 0.322990 0.439840 -0.518530
C3    C     C_R   0.095570 0.297085 0.420049 0.554641
O7    O     O_R   0.196380 0.301720 0.573850 -0.535547
O8    O     O_R   0.199350 0.518300 0.571080 -0.519428
C4    C     C_R   0.138034 0.611761 0.592732 0.564194
O9    O     O_R   0.045700 0.689900 0.567030 -0.537363
O10   O     O_R   0.811960 0.658090 0.547150 -0.488103
C5    C     C_R   0.765533 0.593053 0.570255 0.553376
O11   O     O_R   0.757930 0.506140 0.547110 -0.529428
O12   O     O_R   0.988670 0.321620 0.556040 -0.524406
C6    C     C_R   0.095892 0.294194 0.587696 0.573175
Cr1   Cr    Cr6+3 0.189770 0.415650 0.511620 1.034449
Cr2   Cr    Cr6+3 0.930400 0.667320 0.496770 1.006698
Cr3   Cr    Cr6+3 0.879870 0.417010 0.491650 1.000648
O13   O     O_3   0.000020 0.499990 0.500010 -0.277148
C7    C     C_R   0.626535 0.769192 0.144339 0.003468
C8    C     C_R   0.727932 0.616478 0.343425 0.040354
C9    C     C_R   0.660448 0.557254 0.254073 -0.133747
C10   C     C_R   0.695191 0.533681 0.310229 -0.007119
C11   C     C_R   0.732852 0.717047 0.319514 -0.011833
C12   C     C_R   0.698472 0.737504 0.260766 0.051431
C13   C     C_R   0.660895 0.656587 0.229508 -0.003949
C14   C     C_R   0.624390 0.674204 0.172801 -0.138524
C15   C     C_R   0.660790 0.852808 0.173512 0.001598
C16   C     C_R   0.699008 0.836187 0.231599 0.027220
H1    H     H_    0.594630 0.611095 0.150652 0.145091
H2    H     H_    0.632296 0.495702 0.229331 0.117852
C17   C     C_1   0.259856 0.130579 0.130141 -0.016026
C18   C     C_2   0.238887 0.187452 0.236608 0.216426
C19   C     C_2   0.127342 0.204349 0.258095 -0.121683
C20   C     C_1   0.108804 0.235107 0.315479 0.016602
C21   C     C_1   0.250298 0.155313 0.178437 -0.023333
C22   C     C_1   0.101203 0.260369 0.363550 0.035185
H3    H     H_    0.047059 0.193961 0.232091 0.087056
C23   C     C_1   0.181038 0.772503 0.128048 -0.012794
C24   C     C_2   0.141108 0.748034 0.231650 0.022431
C25   C     C_2   0.214452 0.653099 0.264675 0.027216
C26   C     C_1   0.188965 0.637541 0.321765 -0.017988
C27   C     C_1   0.163190 0.760706 0.175029 -0.024791
C28   C     C_1   0.169437 0.624738 0.369148 -0.009787
C29   C     C_1   0.593038 0.769226 0.859717 0.026604
C30   C     C_2   0.658884 0.737026 0.757839 0.218003
C31   C     C_2   0.660279 0.644266 0.728833 -0.100816
C32   C     C_1   0.697155 0.622780 0.672424 0.038486
C33   C     C_1   0.621000 0.754403 0.813174 -0.002046
C34   C     C_1   0.726543 0.611862 0.625504 0.034173
H4    H     H_    0.631810 0.582607 0.747677 0.126799
C35   C     C_R   0.251583 0.145111 0.848756 -0.052627
C36   C     C_R   0.105322 0.259194 0.644800 0.000575
C37   C     C_R   0.010629 0.217095 0.720507 0.231532
C38   C     C_R   0.996931 0.248681 0.664671 -0.039489
C39   C     C_R   0.224083 0.243975 0.680129 0.005214
C40   C     C_R   0.235725 0.213056 0.737810 -0.038134
C41   C     C_R   0.127157 0.196877 0.756723 -0.025238
C42   C     C_R   0.139097 0.159672 0.813844 0.130421
C43   C     C_R   0.365082 0.163355 0.832601 0.191043
C44   C     C_R   0.353358 0.195618 0.776142 -0.000178
C45   C     C_R   0.153050 0.758955 0.848189 -0.028575
C46   C     C_R   0.163957 0.628438 0.650964 0.036753
C47   C     C_R   0.290941 0.554501 0.736986 -0.103527
C48   C     C_R   0.267182 0.547240 0.681222 -0.176760
C49   C     C_R   0.081417 0.722465 0.677275 0.014717
C50   C     C_R   0.107844 0.730986 0.734610 0.017061
C51   C     C_R   0.214056 0.646374 0.766480 0.031054
C52   C     C_R   0.239432 0.658039 0.825298 0.172209
C53   C     C_R   0.052407 0.839965 0.814607 -0.118931
C54   C     C_R   0.029145 0.825628 0.759888 -0.095635
H5    H     H_    0.988937 0.917190 0.830289 0.245563
H6    H     H_    0.376380 0.485836 0.751313 0.188862
H7    H     H_    0.946559 0.891969 0.737962 0.216186
H8    H     H_    0.336851 0.481737 0.660933 0.116170
O14   O     O_R   0.113660 0.883270 0.047820 -0.505405
O15   O     O_R   0.186930 0.068530 0.043990 -0.495999
C55   C     C_R   0.274385 0.096422 0.073058 0.540022
O16   O     O_R   0.377770 0.089040 0.054220 -0.509316
O17   O     O_R   0.562800 0.872960 0.056970 -0.518751
C56   C     C_R   0.582332 0.781237 0.084384 0.540624
O18   O     O_R   0.555390 0.700940 0.062700 -0.515079
O19   O     O_R   0.295020 0.731920 0.049950 -0.496639
C57   C     C_R   0.198551 0.796654 0.072732 0.541208
O20   O     O_R   0.094290 0.884230 0.921550 -0.485627
O21   O     O_R   0.168980 0.069410 0.926940 -0.440909
C58   C     C_R   0.253967 0.101395 0.905151 0.566395
O22   O     O_R   0.358400 0.089990 0.927950 -0.464735
O23   O     O_R   0.544850 0.873850 0.939920 -0.475571
C59   C     C_R   0.555756 0.782722 0.914542 0.548354
O24   O     O_R   0.536020 0.701900 0.936430 -0.464787
O25   O     O_R   0.277070 0.732810 0.932890 -0.445761
C60   C     C_R   0.172837 0.792165 0.904717 0.555640
Cr4   Cr    Cr6+3 0.149500 0.973980 0.985330 1.114900
Cr5   Cr    Cr6+3 0.457000 0.976510 0.994660 1.101508
Cr6   Cr    Cr6+3 0.411170 0.724270 0.995270 1.118886
O26   O     O_3   0.339220 0.891590 0.991750 -0.322404
C61   C     C_3   0.023969 0.837721 0.249271 -0.389981
H9    H     H_    0.967152 0.912916 0.220302 0.129805
H10   H     H_    0.959171 0.791505 0.251053 0.149452
H11   H     H_    0.046150 0.871762 0.289918 0.133351
N1    N     N_R   0.696632 0.820250 0.734886 0.082307
O27   O     O_R   0.696813 0.909094 0.761575 -0.320013
O28   O     O_R   0.721372 0.811228 0.684790 -0.406840
N2    N     N_R   0.033531 0.175946 0.844970 0.026604
O29   O     O_R   0.988409 0.096212 0.849550 -0.230396
O30   O     O_R   0.920605 0.165475 0.837184 -0.128837
N3    N     N_R   0.492520 0.147202 0.869827 0.125753
O31   O     O_R   0.588527 0.160012 0.851928 -0.273585
O32   O     O_R   0.522392 0.136207 0.923030 -0.237634
N4    N     N_R   0.905470 0.195250 0.737069 0.122535
O33   O     O_R   0.910798 0.092136 0.737784 -0.338571
O34   O     O_R   0.796123 0.277428 0.740099 -0.328418
C62   C     C_3   0.468249 0.212705 0.756590 -0.235869
H12   H     H_    0.565754 0.200041 0.770721 0.229453
H13   H     H_    0.506937 0.149577 0.726458 0.134684
H14   H     H_    0.446633 0.303539 0.754036 0.119060
C63   C     C_3   0.863144 0.265650 0.629982 -0.309397
H15   H     H_    0.845712 0.281395 0.585569 0.160516
H16   H     H_    0.840976 0.188162 0.631619 0.148898
H17   H     H_    0.781937 0.336111 0.644268 0.162340
C64   C     C_3   0.342322 0.255460 0.656705 -0.278549
H18   H     H_    0.349322 0.310623 0.623933 0.162995
H19   H     H_    0.364629 0.318539 0.678831 0.060148
H20   H     H_    0.420274 0.176480 0.648231 0.136133
N5    N     N_R   0.349702 0.569388 0.858743 0.087299
O35   O     O_R   0.424775 0.483686 0.835940 -0.338670
O36   O     O_R   0.369607 0.554236 0.911967 -0.253050
C65   C     C_3   0.657598 0.958241 0.141562 -0.323719
H21   H     H_    0.689382 0.020047 0.162347 0.109700
H22   H     H_    0.722098 0.936668 0.109074 0.149891
H23   H     H_    0.558878 0.011764 0.124472 0.188134
C66   C     C_3   0.968016 0.820732 0.646080 -0.333276
H24   H     H_    0.933934 0.819723 0.604259 0.176105
H25   H     H_    0.877417 0.830046 0.657814 0.206754
H26   H     H_    0.978942 0.902465 0.648556 0.122707
C67   C     C_3   0.732778 0.928674 0.261532 -0.363590
H27   H     H_    0.735134 0.000095 0.240266 0.137695
H28   H     H_    0.665147 0.966522 0.289390 0.174276
H29   H     H_    0.824625 0.906531 0.285673 0.088267
C68   C     C_3   0.693831 0.418010 0.329603 -0.341333
H30   H     H_    0.715737 0.388263 0.372863 0.183217
H31   H     H_    0.595198 0.417597 0.321325 0.132159
H32   H     H_    0.763960 0.345036 0.310655 0.118250
C69   C     C_3   0.770594 0.804708 0.356178 -0.326840
H33   H     H_    0.808281 0.804891 0.399370 0.177099
H34   H     H_    0.862936 0.806315 0.348212 0.107396
H35   H     H_    0.688500 0.882471 0.359889 0.113471
N6    N     N_R   0.347212 0.202922 0.269237 0.088538
O37   O     O_R   0.452024 0.187320 0.247825 -0.366584
O38   O     O_R   0.341946 0.235857 0.319868 -0.340716
C70   C     C_3   0.329786 0.560771 0.243859 -0.356377
H36   H     H_    0.384707 0.488690 0.274005 0.159317
H37   H     H_    0.299071 0.523849 0.205886 0.150708
H38   H     H_    0.401371 0.595159 0.233096 0.124251

loop_
_geom_bond_atom_site_label_1
_geom_bond_atom_site_label_2
_geom_bond_distance
_ccdc_geom_bond_type
C46   C48   1.376372 A    
O20   C60   1.285072 A    
C59   O24   1.270271 A    
O15   Cr4   1.966631 S    
C70   H37   1.109629 S    
O16   Cr5   2.077903 S    
C53   C54   1.354420 A    
O25   C60   1.258841 A    
C8    C11   1.440310 A    
O14   C57   1.266887 A    
N4    O33   1.296041 A    
C17   C55   1.468594 S    
O23   Cr5   1.956675 S    
C52   N5    1.493702 S    
O4    Cr2   1.983009 S    
C15   C16   1.427139 A    
C4    O9    1.250454 A    
N1    O28   1.285351 A    
C15   C65   1.552492 S    
O8    Cr1   1.964306 S    
C61   H9    1.134663 S    
C5    C34   1.463451 S    
C12   C13   1.431068 A    
C19   C20   1.472532 S    
C67   H28   1.063287 S    
C16   C67   1.519914 S    
C35   C58   1.488796 S    
C62   H13   1.091374 S    
O4    C2    1.284953 A    
O25   Cr6   1.980181 S    
C46   C49   1.425796 A    
C42   N2    1.441698 S    
C5    O11   1.264835 A    
C35   C42   1.387685 A    
C45   C53   1.399341 A    
N2    O29   1.304829 A    
C23   C27   1.212214 T    
C63   H17   1.112386 S    
C45   C60   1.455274 S    
N3    O31   1.279395 A    
C36   C38   1.419155 A    
C65   H21   1.076629 S    
O17   Cr5   1.983250 S    
C35   C43   1.479863 A    
C50   C54   1.400825 A    
C64   H20   1.105653 S    
C67   H29   1.064740 S    
C50   C51   1.430389 A    
O20   Cr4   2.088666 S    
C14   H1    1.093178 S    
C6    C36   1.451772 S    
C9    H2    1.097928 S    
C39   C40   1.447433 A    
C61   H10   1.097986 S    
Cr3   O13   1.991375 S    
C70   H38   1.107605 S    
C48   H8    1.080749 S    
C53   H5    1.083199 S    
C41   C42   1.456213 A    
C68   H32   1.117441 S    
C10   C68   1.563077 S    
C31   C32   1.484469 S    
C26   C28   1.230801 T    
C9    C13   1.412668 A    
O1    Cr1   2.084133 S    
C29   C59   1.445084 S    
C47   C48   1.365353 A    
C7    C14   1.415866 A    
O10   Cr2   1.960675 S    
C12   C16   1.458626 A    
C69   H35   1.093216 S    
O1    C3    1.280921 A    
C56   O18   1.263621 A    
C68   H31   1.104858 S    
C7    C56   1.479420 S    
C62   H14   1.095324 S    
C43   N3    1.545206 S    
O19   C57   1.287040 A    
O6    C3    1.282222 A    
C30   N1    1.425349 S    
C9    C10   1.385822 A    
O5    Cr3   2.108216 S    
C4    C46   1.446622 S    
C54   H7    1.085912 S    
C3    C22   1.455248 S    
C55   O16   1.276430 A    
C44   C62   1.521177 S    
O21   Cr4   1.973561 S    
C40   C41   1.442223 A    
C32   C34   1.226630 T    
C66   H26   1.094590 S    
C17   C21   1.226744 T    
C24   C25   1.388882 D    
C24   C61   1.503591 S    
C13   C14   1.393260 A    
O18   Cr6   2.104249 S    
O17   C56   1.290395 A    
O7    Cr1   2.095553 S    
C30   C33   1.460359 S    
C2    C8    1.449981 S    
Cr1   O13   1.993195 S    
O12   C6    1.280846 A    
N3    O32   1.298850 A    
C31   H4    1.080112 S    
C67   H27   1.066235 S    
O19   Cr6   1.962966 S    
C63   H15   1.087605 S    
C37   N4    1.417214 S    
C66   H25   1.058574 S    
N6    O38   1.304351 A    
C61   H11   1.115954 S    
Cr5   O26   1.990880 S    
C64   H18   1.103141 S    
C39   C64   1.567984 S    
Cr2   O13   1.987043 S    
C58   O22   1.193754 A    
C1    O3    1.272236 A    
C11   C12   1.442071 A    
Cr4   O26   1.991557 S    
C25   C26   1.491060 S    
N5    O35   1.284004 A    
C18   C19   1.365443 D    
C38   C63   1.574087 S    
O9    Cr2   2.102139 S    
O2    Cr1   1.973354 S    
C25   C70   1.537875 S    
O14   Cr4   2.094507 S    
C18   C21   1.484111 S    
C18   N6    1.445240 S    
C8    C10   1.448947 A    
C69   H34   1.088745 S    
O15   C55   1.293940 A    
O6    Cr3   1.955048 S    
N4    O34   1.302650 A    
O8    C4    1.285929 A    
C36   C39   1.447045 A    
O11   Cr3   2.075098 S    
C37   C41   1.427052 A    
C2    O5    1.253047 A    
C47   H6    1.059359 S    
C49   C66   1.547024 S    
C45   C52   1.456222 A    
N1    O27   1.301787 A    
Cr6   O26   1.987023 S    
C40   C44   1.469034 A    
C68   H30   1.096224 S    
O2    C1    1.299471 A    
C11   C69   1.569258 S    
C51   C52   1.447873 A    
C62   H12   1.060984 S    
C20   C22   1.220557 T    
C37   C38   1.403150 A    
O24   Cr6   2.082071 S    
O7    C6    1.257084 A    
C65   H23   1.100408 S    
C1    C28   1.476547 S    
O23   C59   1.284417 A    
N2    O30   1.316023 A    
C47   C51   1.427492 A    
C69   H33   1.088150 S    
O22   Cr5   2.103300 S    
C19   H3    1.085804 S    
C49   C50   1.407953 A    
C24   C27   1.459319 S    
O12   Cr3   1.984268 S    
C63   H16   1.107646 S    
C43   C44   1.422930 A    
O3    Cr2   2.082902 S    
C29   C33   1.213618 T    
N6    O37   1.298861 A    
C65   H22   1.108279 S    
C30   C31   1.368666 D    
C70   H36   1.122392 S    
C64   H19   1.051985 S    
O10   C5    1.298797 A    
C66   H24   1.048033 S    
C23   C57   1.445281 S    
O21   C58   1.336573 A    
C7    C15   1.417434 A    
N5    O36   1.297994 A    
