data_mof_unit_58839.cif
_audit_creation_date              2012-12-10T17:56:19-0500
_audit_creation_method            fapswitch 2.2
_symmetry_space_group_name_H-M    P1
_symmetry_Int_Tables_number       1
_space_group_crystal_system       triclinic
_cell_length_a                    13.052601
_cell_length_b                    10.816415
_cell_length_c                    9.521017
_cell_angle_alpha                 89.784062
_cell_angle_beta                  96.048614
_cell_angle_gamma                 91.23496
_cell_volume                      1336.40417328

loop_
_atom_site_label
_atom_site_type_symbol
_atom_type_description
_atom_site_fract_x
_atom_site_fract_y
_atom_site_fract_z
_atom_type_partial_charge
C1    C     C_R   0.502227 0.262368 0.500188 0.807186
C2    C     C_R   0.497773 0.737632 0.499812 0.807186
C3    C     C_R   0.496584 0.871485 0.500363 -0.070413
C4    C     C_R   0.503416 0.128515 0.499637 -0.070413
C5    C     C_R   0.432816 0.425859 0.066213 -0.072806
C6    C     C_R   0.567184 0.574141 0.933786 -0.072806
C7    C     C_R   0.432368 0.425673 0.917665 0.100342
C8    C     C_R   0.567632 0.574326 0.082335 0.100342
C9    C     C_R   0.300739 0.510657 0.473342 0.817770
C10   C     C_R   0.699261 0.489343 0.526658 0.817771
C11   C     C_R   0.812625 0.473123 0.543114 -0.137661
C12   C     C_R   0.187375 0.526877 0.456885 -0.137661
C13   C     C_R   0.021890 0.537802 0.312858 -0.010092
C14   C     C_R   0.978110 0.462197 0.687141 -0.010092
C15   C     C_R   0.130472 0.543657 0.322516 0.087772
C16   C     C_R   0.869528 0.456342 0.677483 0.087772
C17   C     C_R   0.134513 0.527992 0.578666 -0.097534
C18   C     C_R   0.865487 0.472008 0.421334 -0.097534
C19   C     C_R   0.028399 0.498438 0.567607 0.001991
C20   C     C_R   0.971601 0.501561 0.432392 0.001991
C21   C     C_R   0.565236 0.063585 0.413188 0.148998
C22   C     C_R   0.434764 0.936415 0.586812 0.148998
C23   C     C_R   0.560358 0.935060 0.414244 -0.205087
C24   C     C_R   0.439642 0.064940 0.585756 -0.205087
Cu1   Cu    Cu3+1 0.500000 0.500020 0.640660 0.960874
Cu2   Cu    Cu3+1 0.500000 0.499980 0.359340 0.960874
H1    H     H_    0.607990 0.884027 0.349622 0.175006
H2    H     H_    0.392010 0.115973 0.650378 0.175006
H3    H     H_    0.379416 0.366678 0.116411 0.134493
H4    H     H_    0.620583 0.633322 0.883589 0.134493
N1    N     N_R   0.500030 0.500030 0.852080 -0.186547
N2    N     N_R   0.499970 0.499970 0.147920 -0.186548
O1    O     O_R   0.499990 0.319660 0.618740 -0.586768
O2    O     O_R   0.500010 0.680340 0.381260 -0.586768
O3    O     O_R   0.499990 0.319630 0.381170 -0.579557
O4    O     O_R   0.500010 0.680370 0.618830 -0.579556
O5    O     O_R   0.349000 0.499990 0.599490 -0.570765
O6    O     O_R   0.651000 0.500010 0.400510 -0.570765
O7    O     O_R   0.348990 0.499960 0.361920 -0.585819
O8    O     O_R   0.651010 0.500040 0.638080 -0.585820
C25   C     C_1   0.814966 0.420135 0.290560 0.289996
N3    N     N_1   0.774910 0.378182 0.186732 -0.293387
C26   C     C_1   0.185033 0.579865 0.709440 0.289996
N4    N     N_1   0.225090 0.621817 0.813267 -0.293388
C27   C     C_3   0.815375 0.425340 0.807710 -0.732762
H5    H     H_    0.866978 0.393161 0.899607 0.235413
H6    H     H_    0.777561 0.508695 0.843486 0.248075
H7    H     H_    0.757950 0.349096 0.783453 0.229682
C28   C     C_3   0.184625 0.574659 0.192289 -0.732761
H8    H     H_    0.133022 0.606838 0.100392 0.235413
H9    H     H_    0.242049 0.650904 0.216547 0.229682
H10   H     H_    0.222439 0.491304 0.156514 0.248075
C29   C     C_1   0.962588 0.579032 0.184052 0.270286
N5    N     N_1   0.915717 0.612659 0.081551 -0.287263
C30   C     C_1   0.037412 0.420967 0.815948 0.270286
N6    N     N_1   0.084283 0.387341 0.918449 -0.287263
C31   C     C_3   0.639182 0.128385 0.324215 -0.785617
H11   H     H_    0.689562 0.194277 0.390412 0.219558
H12   H     H_    0.689715 0.062057 0.277305 0.228776
H13   H     H_    0.595934 0.178733 0.235950 0.253421
C32   C     C_3   0.360818 0.871615 0.675785 -0.785615
H14   H     H_    0.310437 0.805723 0.609587 0.219558
H15   H     H_    0.404066 0.821267 0.764050 0.253421
H16   H     H_    0.310284 0.937943 0.722696 0.228776
C33   C     C_1   0.357616 0.347112 0.837747 0.299887
N7    N     N_1   0.296291 0.284254 0.774963 -0.307448
C34   C     C_1   0.642384 0.652888 0.162253 0.299887
N8    N     N_1   0.703709 0.715745 0.225037 -0.307448

loop_
_geom_bond_atom_site_label_1
_geom_bond_atom_site_label_2
_ccdc_geom_bond_type
C16   C27   S    
Cu1   N1    S    
C32   H16   S    
C6    C8    A    
C30   N6    T    
C17   C26   S    
C11   C18   A    
Cu2   N2    S    
C14   C16   A    
C23   H1    S    
C7    C33   S    
C5    C7    A    
C25   N3    T    
Cu2   O3    S    
C18   C20   A    
C19   C20   A    
C12   C15   A    
C10   O6    A    
C1    C4    S    
Cu1   O5    S    
C28   H10   S    
Cu1   O1    S    
C21   C23   A    
C14   C30   S    
C1    O1    A    
C32   H15   S    
C27   H5    S    
C22   C32   S    
C21   C31   S    
C4    C21   A    
C13   C15   A    
C2    O2    A    
C31   H11   S    
C26   N4    T    
C9    O5    A    
C6    H4    S    
C2    C3    S    
C13   C29   S    
C27   H6    S    
Cu1   O8    S    
C32   H14   S    
C4    C24   A    
C9    C12   S    
C22   C24   A    
Cu2   O7    S    
C31   H12   S    
C7    N1    A    
C10   C11   S    
Cu1   O4    S    
C34   N8    T    
C8    N2    A    
C5    H3    S    
C12   C17   A    
C9    O7    A    
C1    O3    A    
C8    C34   S    
C10   O8    A    
C33   N7    T    
C11   C16   A    
C18   C25   S    
C2    O4    A    
C28   H8    S    
C28   H9    S    
Cu2   O6    S    
C31   H13   S    
C6    N1    A    
C27   H7    S    
C13   C20   A    
C17   C19   A    
Cu1   Cu2   S    
C29   N5    T    
C3    C23   A    
C14   C19   A    
Cu2   O2    S    
C5    N2    A    
C24   H2    S    
C15   C28   S    
C3    C22   A    
