data_mof_unit_52097.cif
_audit_creation_date              2012-12-10T18:23:04-0500
_audit_creation_method            fapswitch 2.2
_symmetry_space_group_name_H-M    P1
_symmetry_Int_Tables_number       1
_space_group_crystal_system       triclinic
_cell_length_a                    14.893399
_cell_length_b                    14.03156
_cell_length_c                    10.491202
_cell_angle_alpha                 89.933045
_cell_angle_beta                  89.946609
_cell_angle_gamma                 89.819587
_cell_volume                      2192.4131322

loop_
_atom_site_label
_atom_site_type_symbol
_atom_type_description
_atom_site_fract_x
_atom_site_fract_y
_atom_site_fract_z
_atom_type_partial_charge
C1    C     C_R   0.326967 0.500165 0.500083 0.877930
C2    C     C_R   0.673018 0.499864 0.499913 0.878843
C3    C     C_R   0.953226 0.502339 0.500682 0.014599
C4    C     C_R   0.046666 0.502260 0.502748 0.028368
C5    C     C_R   0.906507 0.538448 0.392574 0.102239
C6    C     C_R   0.093352 0.466242 0.610910 0.059720
C7    C     C_R   0.951669 0.432458 0.714360 -0.220359
C8    C     C_R   0.048197 0.573338 0.289773 -0.268885
C9    C     C_R   0.045714 0.433237 0.719628 0.157624
C10   C     C_R   0.954574 0.574044 0.286015 0.168654
C11   C     C_R   0.553759 0.798095 0.416250 -0.060271
C12   C     C_R   0.446331 0.201888 0.583838 -0.059931
C13   C     C_R   0.446300 0.798328 0.583791 -0.054155
C14   C     C_R   0.553720 0.201673 0.416217 -0.054483
C15   C     C_R   0.445062 0.898951 0.585858 0.013458
C16   C     C_R   0.555026 0.101041 0.414205 0.013474
C17   C     C_R   0.555052 0.898717 0.414226 0.014845
C18   C     C_R   0.445077 0.101266 0.585883 0.014877
C19   C     C_R   0.500055 0.949403 0.500037 0.085200
C20   C     C_R   0.500053 0.050585 0.500040 0.085103
C21   C     C_R   0.390414 0.950113 0.671274 -0.203950
C22   C     C_R   0.609729 0.049873 0.328851 -0.203986
C23   C     C_R   0.609758 0.949653 0.328877 -0.206214
C24   C     C_R   0.390425 0.050326 0.671291 -0.206200
C25   C     C_R   0.500006 0.500188 0.257161 0.856736
C26   C     C_R   0.500022 0.499814 0.742840 0.856863
C27   C     C_3   0.500489 0.590952 0.040238 -0.133786
C28   C     C_3   0.499570 0.409065 0.959769 -0.135541
C29   C     C_3   0.574206 0.544354 0.957550 -0.182715
C30   C     C_3   0.425853 0.455664 0.042453 -0.184351
C31   C     C_3   0.426321 0.545689 0.957701 -0.189294
C32   C     C_3   0.573738 0.454329 0.042306 -0.188365
C33   C     C_3   0.500038 0.499236 0.877741 0.035512
C34   C     C_3   0.500019 0.500778 0.122263 0.036587
C35   C     C_R   0.812968 0.537169 0.394786 -0.272136
C36   C     C_R   0.186996 0.464634 0.606664 -0.278958
C37   C     C_R   0.768212 0.499713 0.499463 -0.045387
C38   C     C_R   0.231747 0.500749 0.501081 -0.035181
C39   C     C_R   0.813339 0.463556 0.604401 -0.245385
C40   C     C_R   0.186587 0.538416 0.397138 -0.244359
C41   C     C_R   0.906174 0.465717 0.606727 0.082277
C42   C     C_R   0.093791 0.538254 0.396200 0.103851
H1    H     H_    0.366442 0.582653 0.918234 0.127318
H2    H     H_    0.633614 0.417363 0.081776 0.127024
H3    H     H_    0.500906 0.665081 0.077169 0.141649
H4    H     H_    0.499162 0.334935 0.922843 0.141372
H5    H     H_    0.634484 0.580251 0.918054 0.133657
H6    H     H_    0.365573 0.419776 0.081958 0.133273
H7    H     H_    0.773428 0.563811 0.315918 0.144466
H8    H     H_    0.226585 0.436628 0.684768 0.125454
H9    H     H_    0.775772 0.435580 0.684848 0.130382
H10   H     H_    0.224045 0.566071 0.316386 0.131732
H11   H     H_    0.912478 0.406278 0.793768 0.159193
H12   H     H_    0.085965 0.600553 0.209160 0.147551
H13   H     H_    0.595614 0.757870 0.351073 0.130674
H14   H     H_    0.404518 0.242102 0.649070 0.130019
H15   H     H_    0.404460 0.758283 0.648984 0.133320
H16   H     H_    0.595538 0.241724 0.351001 0.133157
H17   H     H_    0.347654 0.912644 0.738076 0.140917
H18   H     H_    0.652504 0.087342 0.262069 0.140781
H19   H     H_    0.652568 0.912003 0.262138 0.140962
H20   H     H_    0.347672 0.087967 0.738102 0.139792
N1    N     N_R   0.500000 0.750030 0.500000 -0.102282
N2    N     N_R   0.500000 0.249970 0.500000 -0.102257
O1    O     O_R   0.367850 0.580280 0.500030 -0.618915
O2    O     O_R   0.632150 0.419720 0.499970 -0.618883
O3    O     O_R   0.632150 0.580280 0.499970 -0.617250
O4    O     O_R   0.367850 0.419720 0.500030 -0.617504
O5    O     O_R   0.499970 0.580260 0.313950 -0.632887
O6    O     O_R   0.500030 0.419740 0.686050 -0.633151
O7    O     O_R   0.500030 0.580260 0.686050 -0.622357
O8    O     O_R   0.499970 0.419740 0.313950 -0.622626
Zn1   Zn    Zn3+2 0.500000 0.607200 0.500000 0.941602
Zn2   Zn    Zn3+2 0.500000 0.392800 0.500000 0.941132
C43   C     C_3   0.095978 0.400502 0.839021 -0.404346
C44   C     C_3   0.038207 0.375088 0.954887 -0.895601
H21   H     H_    0.995968 0.436848 0.983646 0.254960
H22   H     H_    0.995365 0.312388 0.933972 0.259388
H23   H     H_    0.082544 0.356405 0.036295 0.255624
H24   H     H_    0.137405 0.337049 0.814686 0.205799
H25   H     H_    0.141756 0.458629 0.869416 0.201036
C45   C     C_3   0.909271 0.612498 0.167001 -0.420510
C46   C     C_3   0.875079 0.714109 0.187256 -0.859167
H26   H     H_    0.825998 0.717574 0.266774 0.257232
H27   H     H_    0.932182 0.762172 0.209025 0.263738
H28   H     H_    0.841638 0.739736 0.099024 0.244919
H29   H     H_    0.957290 0.613651 0.085756 0.204697
H30   H     H_    0.853832 0.565020 0.136485 0.192047

loop_
_geom_bond_atom_site_label_1
_geom_bond_atom_site_label_2
_ccdc_geom_bond_type
C39   H9    S    
C27   C29   S    
C19   C20   A    
C44   H23   S    
C6    C9    A    
C11   H13   S    
C39   C41   A    
C15   C19   A    
C28   H4    S    
C17   C23   A    
C31   H1    S    
C29   H5    S    
C18   C24   A    
C30   H6    S    
C35   C37   A    
C44   H22   S    
C21   H17   S    
C29   C32   S    
C11   N1    A    
C22   H18   S    
C30   C31   S    
C12   N2    A    
C13   H15   S    
O4    Zn2   S    
C45   H29   S    
O2    Zn2   S    
C29   C33   S    
C1    O4    A    
O1    Zn1   S    
C3    C41   A    
O6    Zn2   S    
C1    O1    A    
C31   C33   S    
O5    Zn1   S    
O3    Zn1   S    
C43   H24   S    
C25   C34   S    
C27   H3    S    
C40   C42   A    
C26   O7    A    
C27   C34   S    
C14   H16   S    
C30   C34   S    
C27   C31   S    
C28   C32   S    
C44   H21   S    
C4    C6    A    
C2    O3    A    
C8    H12   S    
O7    Zn1   S    
C43   H25   S    
N1    Zn1   S    
C2    O2    A    
C40   H10   S    
C10   C45   S    
C16   C22   A    
C32   C34   S    
C43   C44   S    
C35   H7    S    
C26   C33   S    
C46   H26   S    
C13   N1    A    
C15   C21   A    
C16   C20   A    
C14   N2    A    
C32   H2    S    
C25   O8    A    
C12   H14   S    
C1    C38   S    
O8    Zn2   S    
C46   H27   S    
C28   C33   S    
C13   C15   A    
C26   O6    A    
C14   C16   A    
C25   O5    A    
C7    H11   S    
C3    C4    A    
C36   H8    S    
C7    C9    A    
C11   C17   A    
C24   H20   S    
C8    C42   A    
C3    C5    A    
C28   C30   S    
C5    C10   A    
C37   C39   A    
C38   C40   A    
C2    C37   S    
C4    C42   A    
C45   H30   S    
C5    C35   A    
C36   C38   A    
C17   C19   A    
C6    C36   A    
C18   C20   A    
C7    C41   A    
C23   H19   S    
C46   H28   S    
C8    C10   A    
C45   C46   S    
C21   C24   A    
C12   C18   A    
N2    Zn2   S    
C22   C23   A    
C9    C43   S    
