data_mof_unit_24659.cif
_audit_creation_date              2012-12-11T16:14:24-0500
_audit_creation_method            fapswitch 2.2
_symmetry_space_group_name_H-M    P1
_symmetry_Int_Tables_number       1
_space_group_crystal_system       triclinic
_cell_length_a                    25.874353
_cell_length_b                    25.857224
_cell_length_c                    27.481725
_cell_angle_alpha                 89.721793
_cell_angle_beta                  90.310514
_cell_angle_gamma                 90.123646
_cell_volume                      18385.8156685

loop_
_atom_site_label
_atom_site_type_symbol
_atom_type_description
_atom_site_fract_x
_atom_site_fract_y
_atom_site_fract_z
_atom_type_partial_charge
C1    C     C_R   0.630140 0.430177 0.433670 -0.125503
C2    C     C_R   0.369698 0.429707 0.433562 -0.141152
C3    C     C_R   0.337367 0.601663 0.678855 -0.218511
C4    C     C_R   0.357453 0.293888 0.385605 -0.223708
C5    C     C_R   0.646856 0.709584 0.604499 -0.202372
C6    C     C_R   0.337624 0.601487 0.319419 -0.199282
C7    C     C_R   0.661597 0.400811 0.681602 -0.199185
C8    C     C_R   0.577968 0.361679 0.695386 -0.214740
C9    C     C_R   0.422321 0.637890 0.304520 -0.198210
C10   C     C_R   0.714040 0.650935 0.579051 -0.214911
C11   C     C_R   0.289998 0.343430 0.424093 -0.210574
C12   C     C_R   0.421308 0.639936 0.693998 -0.197157
C13   C     C_R   0.445899 0.615359 0.588608 -0.130290
C14   C     C_R   0.642569 0.290195 0.395563 -0.202881
C15   C     C_R   0.287690 0.346532 0.575157 -0.199850
C16   C     C_R   0.713387 0.651101 0.423618 -0.213343
C17   C     C_R   0.077363 0.138975 0.804978 -0.198324
C18   C     C_R   0.919296 0.858458 0.192752 -0.196860
C19   C     C_R   0.212741 0.848612 0.920251 -0.214955
C20   C     C_R   0.818204 0.122295 0.157871 -0.221110
C21   C     C_R   0.920735 0.862741 0.805026 -0.215040
C22   C     C_R   0.082830 0.136136 0.194629 -0.214202
C23   C     C_R   0.788085 0.152968 0.922075 -0.217370
C24   C     C_R   0.568897 0.369667 0.433633 -0.131083
C25   C     C_R   0.212827 0.847730 0.077472 -0.214404
C26   C     C_R   0.145840 0.791674 0.108932 -0.203408
C27   C     C_R   0.854861 0.206390 0.886418 -0.204437
C28   C     C_R   0.167984 0.103499 0.176007 -0.220551
C29   C     C_R   0.835760 0.897021 0.821392 -0.219334
C30   C     C_R   0.899054 0.167458 0.170954 -0.216320
C31   C     C_R   0.144787 0.792789 0.890113 -0.221689
C32   C     C_R   0.832847 0.888098 0.173708 -0.220935
C33   C     C_R   0.161978 0.102507 0.820203 -0.199541
C34   C     C_R   0.684105 0.745368 0.380774 0.256425
C35   C     C_R   0.369521 0.430037 0.565934 -0.138245
C36   C     C_R   0.316798 0.257529 0.627262 0.257877
C37   C     C_R   0.747978 0.309854 0.410913 0.262078
C38   C     C_R   0.318809 0.621518 0.722536 0.265831
C39   C     C_R   0.321728 0.256291 0.371553 0.265903
C40   C     C_R   0.684001 0.746261 0.618034 0.256828
C41   C     C_R   0.320028 0.619870 0.274387 0.257441
C42   C     C_R   0.679016 0.383348 0.727019 0.254617
C43   C     C_R   0.594042 0.344246 0.741260 0.261423
C44   C     C_R   0.405845 0.656625 0.259181 0.256717
C45   C     C_R   0.751983 0.686820 0.592214 0.266126
C46   C     C_R   0.630364 0.569372 0.433477 -0.122568
C47   C     C_R   0.253336 0.306184 0.410972 0.263249
C48   C     C_R   0.403882 0.660093 0.738096 0.251694
C49   C     C_R   0.678605 0.252876 0.382320 0.255298
C50   C     C_R   0.249644 0.311067 0.589252 0.266069
C51   C     C_R   0.751515 0.687020 0.411150 0.266334
C52   C     C_R   0.093726 0.158038 0.759854 0.256403
C53   C     C_R   0.902552 0.839340 0.237670 0.251144
C54   C     C_R   0.250172 0.813285 0.905369 0.262599
C55   C     C_R   0.799226 0.141199 0.201818 0.263690
C56   C     C_R   0.903795 0.844205 0.759974 0.257007
C57   C     C_R   0.554371 0.384526 0.588862 -0.129947
C58   C     C_R   0.100277 0.152862 0.240149 0.262382
C59   C     C_R   0.750555 0.189531 0.909528 0.264051
C60   C     C_R   0.250587 0.811471 0.090154 0.266673
C61   C     C_R   0.182793 0.754745 0.122265 0.255505
C62   C     C_R   0.818103 0.243434 0.872916 0.256329
C63   C     C_R   0.186787 0.120741 0.220790 0.263638
C64   C     C_R   0.817271 0.877884 0.777156 0.265214
C65   C     C_R   0.881802 0.185787 0.215474 0.260224
C66   C     C_R   0.181295 0.756787 0.874664 0.264939
C67   C     C_R   0.814758 0.868595 0.217915 0.268898
C68   C     C_R   0.445738 0.615436 0.411124 -0.130092
C69   C     C_R   0.179459 0.121212 0.775389 0.257400
C70   C     C_3   0.666599 0.794717 0.356234 -0.977198
C71   C     C_3   0.333975 0.211081 0.656601 -0.977892
C72   C     C_3   0.804135 0.322062 0.420367 -0.990052
C73   C     C_3   0.262589 0.611763 0.734084 -0.986797
C74   C     C_3   0.341900 0.212139 0.341289 -0.988436
C75   C     C_3   0.666097 0.796258 0.640462 -0.978363
C76   C     C_3   0.264167 0.610924 0.260561 -0.975877
C77   C     C_3   0.734412 0.394139 0.741379 -0.973853
C78   C     C_3   0.555326 0.315431 0.772076 -0.986327
C79   C     C_R   0.130444 0.930271 0.934135 -0.137853
C80   C     C_3   0.443785 0.685087 0.227251 -0.982382
C81   C     C_3   0.807786 0.672286 0.584635 -0.989397
C82   C     C_3   0.198029 0.314854 0.425868 -0.994793
C83   C     C_3   0.440480 0.691193 0.769324 -0.982642
C84   C     C_3   0.659472 0.203712 0.358810 -0.976219
C85   C     C_3   0.194053 0.321192 0.575504 -1.003047
C86   C     C_3   0.807076 0.673236 0.421711 -0.988504
C87   C     C_3   0.055766 0.186719 0.727862 -0.981216
C88   C     C_3   0.941096 0.814138 0.271597 -0.980371
C89   C     C_3   0.306187 0.826843 0.914161 -0.990804
C90   C     C_R   0.875184 0.064501 0.078081 -0.131386
C91   C     C_3   0.743982 0.128087 0.214488 -0.988092
C92   C     C_3   0.942658 0.817088 0.728336 -0.985383
C93   C     C_3   0.061910 0.178073 0.273556 -1.001618
C94   C     C_3   0.695459 0.178734 0.924208 -0.991966
C95   C     C_3   0.306097 0.824228 0.078556 -0.989493
C96   C     C_3   0.164927 0.706206 0.147949 -0.975273
C97   C     C_3   0.835798 0.290471 0.844762 -0.976929
C98   C     C_3   0.243776 0.113331 0.230779 -0.987605
C99   C     C_3   0.760277 0.884901 0.766766 -0.988861
C100  C     C_3   0.918785 0.218392 0.244995 -0.992937
C101  C     C_R   0.945369 0.884631 0.911376 -0.131521
C102  C     C_3   0.161102 0.709583 0.848480 -0.988940
C103  C     C_3   0.757415 0.872966 0.227178 -0.989724
C104  C     C_3   0.235231 0.112396 0.761877 -0.976463
C105  C     C_R   0.384554 0.554293 0.588500 -0.132515
C106  C     C_R   0.057080 0.116664 0.087632 -0.130074
C107  C     C_R   0.869634 0.069644 0.933204 -0.136115
C108  C     C_R   0.130550 0.930115 0.066149 -0.135463
C109  C     C_R   0.054252 0.115677 0.911295 -0.129667
C110  C     C_R   0.944595 0.882465 0.087216 -0.133471
C111  C     C_R   0.117230 0.054911 0.087464 -0.133238
C112  C     C_R   0.884017 0.945453 0.911549 -0.133501
C113  C     C_R   0.935902 0.125444 0.077074 -0.143679
C114  C     C_R   0.069844 0.869546 0.934077 -0.148896
C115  C     C_R   0.882160 0.941989 0.086502 -0.128107
C116  C     C_R   0.431164 0.369847 0.432596 -0.129783
C117  C     C_R   0.115424 0.054701 0.911448 -0.132975
C118  C     C_R   0.069939 0.869442 0.066232 -0.147214
C119  C     C_R   0.930269 0.130338 0.933067 -0.150154
C120  C     C_R   0.661182 0.660771 0.413265 0.041487
C121  C     C_R   0.339541 0.339061 0.588430 0.035769
C122  C     C_R   0.658656 0.338078 0.413814 0.040839
C123  C     C_R   0.387782 0.612194 0.663535 0.041509
C124  C     C_R   0.341692 0.338290 0.410136 0.043380
C125  C     C_R   0.661508 0.661191 0.586675 0.041571
C126  C     C_R   0.388030 0.611717 0.335342 0.037006
C127  C     C_R   0.570336 0.630618 0.565489 -0.147517
C128  C     C_R   0.611876 0.388755 0.664899 0.041698
C129  C     C_R   0.111667 0.112574 0.835862 0.037025
C130  C     C_R   0.884473 0.881907 0.160346 0.041748
C131  C     C_R   0.160146 0.839511 0.911209 0.046002
C132  C     C_R   0.867917 0.135260 0.142244 0.049226
C133  C     C_R   0.886696 0.888062 0.836303 0.046062
C134  C     C_R   0.116755 0.112571 0.162047 0.046114
C135  C     C_R   0.840015 0.160496 0.909594 0.040218
C136  C     C_R   0.160624 0.838876 0.088117 0.041024
C137  C     C_R   0.737146 0.733617 0.387661 0.029387
C138  C     C_R   0.384386 0.554413 0.411260 -0.131813
C139  C     C_R   0.263961 0.266960 0.616680 0.019108
C140  C     C_R   0.731896 0.264235 0.387114 0.030232
C141  C     C_R   0.351995 0.652023 0.751946 0.031941
C142  C     C_R   0.268830 0.263084 0.383157 0.040585
C143  C     C_R   0.737144 0.734113 0.613562 0.030293
C144  C     C_R   0.353977 0.648867 0.244455 0.018559
C145  C     C_R   0.645519 0.353449 0.756692 0.028835
C146  C     C_R   0.145494 0.150374 0.745390 0.018026
C147  C     C_R   0.849847 0.843659 0.250165 0.030924
C148  C     C_R   0.234626 0.767722 0.881068 0.041655
C149  C     C_R   0.615635 0.445604 0.588705 -0.134668
C150  C     C_R   0.831650 0.172502 0.231321 0.042884
C151  C     C_R   0.851353 0.850481 0.746295 0.041385
C152  C     C_R   0.152913 0.146685 0.252837 0.043086
C153  C     C_R   0.765216 0.234413 0.883370 0.029299
C154  C     C_R   0.235885 0.765344 0.114293 0.028475
C155  C     C_R   0.224197 0.236624 0.641884 0.148735
C156  C     C_R   0.775835 0.762397 0.359657 0.131919
C157  C     C_R   0.330113 0.683336 0.790779 0.136488
C158  C     C_R   0.767327 0.239904 0.353211 0.130922
C159  C     C_R   0.775301 0.764153 0.641239 0.130785
C160  C     C_R   0.570280 0.630555 0.434169 -0.150163
C161  C     C_R   0.229933 0.233635 0.356398 0.125155
C162  C     C_R   0.667434 0.323396 0.797286 0.131341
C163  C     C_R   0.332783 0.678390 0.203232 0.145591
C164  C     C_R   0.830312 0.815661 0.292580 0.136411
C165  C     C_R   0.166600 0.180046 0.704352 0.147544
C166  C     C_R   0.811874 0.195603 0.275634 0.122127
C167  C     C_R   0.272627 0.739039 0.852906 0.125467
C168  C     C_R   0.174440 0.177053 0.292725 0.124580
C169  C     C_R   0.830297 0.820471 0.705788 0.123307
C170  C     C_R   0.275025 0.734779 0.140384 0.133732
C171  C     C_R   0.430008 0.369422 0.566197 -0.150476
C172  C     C_R   0.725734 0.265655 0.858560 0.131240
C173  C     C_R   0.620272 0.378659 0.422702 0.085499
C174  C     C_R   0.404895 0.595170 0.615248 0.084582
C175  C     C_R   0.379810 0.378743 0.421268 0.089349
C176  C     C_R   0.621878 0.621449 0.576550 0.093846
C177  C     C_R   0.404659 0.595301 0.384319 0.083493
C178  C     C_R   0.595437 0.404715 0.615688 0.085339
C179  C     C_R   0.621541 0.621051 0.422757 0.088578
C180  C     C_R   0.378754 0.378704 0.577470 0.093211
C181  C     C_R   0.121137 0.878955 0.922742 0.093859
C182  C     C_R   0.630721 0.569961 0.565644 -0.137327
C183  C     C_R   0.890168 0.110952 0.099070 0.089633
C184  C     C_R   0.904040 0.904674 0.884813 0.084137
C185  C     C_R   0.098594 0.096387 0.113749 0.083662
C186  C     C_R   0.879059 0.120842 0.921063 0.091498
C187  C     C_R   0.121354 0.878693 0.077631 0.091970
C188  C     C_R   0.095145 0.095741 0.884621 0.083608
C189  C     C_R   0.902208 0.900458 0.112706 0.083456
C190  C     C_R   0.646776 0.708711 0.393748 -0.202376
C191  C     C_R   0.353974 0.293744 0.612842 -0.203537
C192  C     C_R   0.711125 0.346527 0.423814 -0.214681
H1    H     H_    0.667508 0.448790 0.435874 0.088513
H2    H     H_    0.332019 0.447400 0.436261 0.087811
H3    H     H_    0.182821 0.350017 0.407448 0.253296
H4    H     H_    0.442465 0.673994 0.806386 0.253756
H5    H     H_    0.480185 0.691831 0.754155 0.247771
H6    H     H_    0.426821 0.731742 0.771885 0.255195
H7    H     H_    0.674446 0.169732 0.379255 0.256470
H8    H     H_    0.616606 0.201200 0.358709 0.243988
H9    H     H_    0.672562 0.201940 0.320442 0.252415
H10   H     H_    0.178006 0.287257 0.555907 0.255114
H11   H     H_    0.170810 0.328405 0.608566 0.260843
H12   H     H_    0.190214 0.355594 0.551405 0.243906
H13   H     H_    0.470643 0.647372 0.598411 0.097199
H14   H     H_    0.833794 0.706288 0.415989 0.255453
H15   H     H_    0.811135 0.660966 0.460254 0.244857
H16   H     H_    0.818990 0.640783 0.397994 0.253891
H17   H     H_    0.054715 0.168968 0.691159 0.253242
H18   H     H_    0.016020 0.185338 0.742904 0.246687
H19   H     H_    0.067200 0.227949 0.724564 0.256265
H20   H     H_    0.940469 0.833763 0.307438 0.253752
H21   H     H_    0.931360 0.772648 0.276621 0.255589
H22   H     H_    0.981077 0.816550 0.257223 0.247333
H23   H     H_    0.332837 0.794790 0.905174 0.255918
H24   H     H_    0.550268 0.332380 0.437171 0.090778
H25   H     H_    0.316697 0.861207 0.891916 0.252897
H26   H     H_    0.312204 0.836166 0.953122 0.245567
H27   H     H_    0.729270 0.149312 0.246400 0.254977
H28   H     H_    0.718321 0.138113 0.183326 0.248308
H29   H     H_    0.740688 0.085953 0.221839 0.253151
H30   H     H_    0.927103 0.807235 0.691864 0.254281
H31   H     H_    0.976699 0.842626 0.722736 0.251565
H32   H     H_    0.955608 0.780930 0.746583 0.252352
H33   H     H_    0.078250 0.186822 0.309982 0.258257
H34   H     H_    0.048115 0.214746 0.256876 0.254474
H35   H     H_    0.332174 0.448487 0.563239 0.086936
H36   H     H_    0.028648 0.151563 0.279197 0.252613
H37   H     H_    0.669331 0.211884 0.917099 0.254612
H38   H     H_    0.680717 0.144546 0.904120 0.253938
H39   H     H_    0.693989 0.170387 0.963860 0.248835
H40   H     H_    0.332298 0.790764 0.083872 0.255724
H41   H     H_    0.309202 0.836291 0.039905 0.244358
H42   H     H_    0.319451 0.856564 0.101925 0.253641
H43   H     H_    0.182920 0.703638 0.184657 0.251707
H44   H     H_    0.122323 0.705434 0.152684 0.244162
H45   H     H_    0.175658 0.671779 0.126299 0.257289
H46   H     H_    0.667341 0.550111 0.435416 0.086369
H47   H     H_    0.816004 0.292067 0.808831 0.251537
H48   H     H_    0.827020 0.326005 0.865608 0.257014
H49   H     H_    0.878102 0.289935 0.838115 0.244471
H50   H     H_    0.256878 0.129006 0.266100 0.255325
H51   H     H_    0.252917 0.071395 0.230457 0.251523
H52   H     H_    0.266529 0.132862 0.201852 0.250586
H53   H     H_    0.746463 0.865180 0.733565 0.257050
H54   H     H_    0.737496 0.869096 0.797607 0.248424
H55   H     H_    0.751668 0.926777 0.762938 0.253153
H56   H     H_    0.905966 0.224814 0.282880 0.258732
H57   H     H_    0.529591 0.352612 0.598867 0.096145
H58   H     H_    0.956570 0.198563 0.247303 0.250204
H59   H     H_    0.924278 0.256424 0.226812 0.255858
H60   H     H_    0.191676 0.682999 0.836106 0.255553
H61   H     H_    0.135221 0.687471 0.873112 0.251338
H62   H     H_    0.138587 0.721865 0.815916 0.250914
H63   H     H_    0.744294 0.852369 0.260225 0.255580
H64   H     H_    0.746855 0.914380 0.230607 0.252813
H65   H     H_    0.735671 0.856249 0.196022 0.248469
H66   H     H_    0.255055 0.150044 0.756094 0.250945
H67   H     H_    0.256659 0.091131 0.790803 0.244270
H68   H     H_    0.470550 0.647347 0.401139 0.097599
H69   H     H_    0.237246 0.089045 0.728173 0.257584
H70   H     H_    0.167741 0.948942 0.936705 0.085454
H71   H     H_    0.838728 0.045002 0.082883 0.084811
H72   H     H_    0.969948 0.852735 0.901438 0.097521
H73   H     H_    0.353106 0.529078 0.598712 0.098801
H74   H     H_    0.035213 0.150412 0.097187 0.092030
H75   H     H_    0.832244 0.051150 0.935620 0.087400
H76   H     H_    0.167870 0.948673 0.063428 0.085125
H77   H     H_    0.029647 0.147728 0.901345 0.096801
H78   H     H_    0.969125 0.850186 0.096722 0.097751
H79   H     H_    0.148846 0.029734 0.097322 0.099127
H80   H     H_    0.852401 0.970444 0.901281 0.099048
H81   H     H_    0.954923 0.162463 0.079870 0.090642
H82   H     H_    0.051934 0.831901 0.937593 0.093365
H83   H     H_    0.848258 0.963820 0.095512 0.091834
H84   H     H_    0.449788 0.332518 0.435198 0.091750
H85   H     H_    0.146729 0.029582 0.901163 0.098964
H86   H     H_    0.052080 0.831805 0.062571 0.093228
H87   H     H_    0.948045 0.168062 0.936342 0.095698
H88   H     H_    0.606426 0.716651 0.386258 0.127629
H89   H     H_    0.394131 0.287696 0.622651 0.128775
H90   H     H_    0.723957 0.382157 0.440515 0.133407
H91   H     H_    0.311205 0.580105 0.655638 0.136876
H92   H     H_    0.397524 0.289557 0.375079 0.139156
H93   H     H_    0.606376 0.718021 0.610148 0.127039
H94   H     H_    0.311091 0.581039 0.343042 0.128029
H95   H     H_    0.552479 0.668177 0.561532 0.092347
H96   H     H_    0.687893 0.421949 0.658294 0.127171
H97   H     H_    0.538734 0.353830 0.683581 0.137667
H98   H     H_    0.461917 0.644295 0.315975 0.130706
H99   H     H_    0.726150 0.614635 0.563458 0.130492
H100  H     H_    0.277775 0.376667 0.444875 0.131012
H101  H     H_    0.460896 0.646740 0.683080 0.130169
H102  H     H_    0.601971 0.282915 0.388722 0.128543
H103  H     H_    0.276531 0.380414 0.554393 0.123023
H104  H     H_    0.725028 0.615230 0.440852 0.130418
H105  H     H_    0.037837 0.145283 0.816212 0.130218
H106  H     H_    0.353002 0.529120 0.400928 0.099393
H107  H     H_    0.959653 0.855003 0.183046 0.131253
H108  H     H_    0.225214 0.883671 0.938205 0.131114
H109  H     H_    0.793710 0.097769 0.135700 0.134407
H110  H     H_    0.960722 0.857099 0.815648 0.138759
H111  H     H_    0.042601 0.141633 0.184721 0.136406
H112  H     H_    0.776332 0.118573 0.941741 0.134240
H113  H     H_    0.224730 0.883095 0.059512 0.131019
H114  H     H_    0.105501 0.784483 0.116883 0.127802
H115  H     H_    0.895042 0.212424 0.877017 0.128394
H116  H     H_    0.194342 0.085042 0.151013 0.137158
H117  H     H_    0.646930 0.470990 0.599019 0.098299
H118  H     H_    0.809210 0.916576 0.845440 0.136856
H119  H     H_    0.938107 0.176839 0.159983 0.131728
H120  H     H_    0.104203 0.785259 0.883191 0.136466
H121  H     H_    0.805767 0.906149 0.148700 0.136332
H122  H     H_    0.188533 0.081907 0.843869 0.127858
H123  H     H_    0.682870 0.797270 0.318996 0.251089
H124  H     H_    0.623844 0.796734 0.352917 0.244772
H125  H     H_    0.679495 0.828526 0.377898 0.257508
H126  H     H_    0.314583 0.210808 0.692552 0.251027
H127  H     H_    0.324259 0.175082 0.636693 0.257353
H128  H     H_    0.552833 0.668251 0.438157 0.094313
H129  H     H_    0.376368 0.211214 0.663202 0.244685
H130  H     H_    0.829771 0.288980 0.411929 0.253696
H131  H     H_    0.815981 0.355859 0.397948 0.254795
H132  H     H_    0.809757 0.331529 0.459415 0.250023
H133  H     H_    0.249608 0.629820 0.768283 0.255059
H134  H     H_    0.238038 0.627310 0.704165 0.250460
H135  H     H_    0.255755 0.569469 0.737206 0.251802
H136  H     H_    0.311967 0.184073 0.330016 0.255708
H137  H     H_    0.359969 0.227772 0.307715 0.251368
H138  H     H_    0.371674 0.190679 0.362440 0.250313
H139  H     H_    0.447655 0.331739 0.562821 0.094414
H140  H     H_    0.681554 0.799745 0.678082 0.251876
H141  H     H_    0.679601 0.829467 0.618143 0.257416
H142  H     H_    0.623288 0.798455 0.642412 0.244881
H143  H     H_    0.244440 0.648519 0.254461 0.250823
H144  H     H_    0.261933 0.587379 0.226962 0.257564
H145  H     H_    0.242792 0.589801 0.289455 0.244388
H146  H     H_    0.755361 0.357230 0.747569 0.251660
H147  H     H_    0.755396 0.416038 0.712737 0.243498
H148  H     H_    0.735487 0.417708 0.775008 0.257375
H149  H     H_    0.569550 0.307969 0.809585 0.253931
H150  H     H_    0.667872 0.551287 0.562862 0.083811
H151  H     H_    0.519456 0.338678 0.775162 0.250710
H152  H     H_    0.545718 0.277924 0.754693 0.253296
H153  H     H_    0.444556 0.667115 0.190648 0.252703
H154  H     H_    0.432548 0.726307 0.223669 0.256618
H155  H     H_    0.483602 0.683762 0.242523 0.247080
H156  H     H_    0.834539 0.705377 0.589953 0.255350
H157  H     H_    0.818579 0.640778 0.610301 0.254171
H158  H     H_    0.813185 0.658373 0.546903 0.243930
H159  H     H_    0.172455 0.281736 0.416902 0.255397
H160  H     H_    0.196314 0.320520 0.465807 0.256292
N1    N     N_R   0.586860 0.450690 0.451700 -0.041555
N2    N     N_R   0.413140 0.450690 0.451700 -0.038883
N3    N     N_R   0.450690 0.586860 0.548300 -0.041479
N4    N     N_R   0.549310 0.413140 0.451700 -0.040596
N5    N     N_R   0.413140 0.450690 0.548300 -0.038023
N6    N     N_R   0.586860 0.549310 0.451700 -0.039400
N7    N     N_R   0.549310 0.413140 0.548300 -0.040969
N8    N     N_R   0.450690 0.586860 0.451700 -0.041595
N9    N     N_R   0.086860 0.950690 0.951700 -0.038160
N10   N     N_R   0.913140 0.049310 0.048300 -0.038348
N11   N     N_R   0.950690 0.913140 0.951700 -0.041557
N12   N     N_R   0.413140 0.549310 0.548300 -0.041998
N13   N     N_R   0.049310 0.086860 0.048300 -0.040727
N14   N     N_R   0.913140 0.049310 0.951700 -0.039094
N15   N     N_R   0.086860 0.950690 0.048300 -0.038371
N16   N     N_R   0.049310 0.086860 0.951700 -0.041643
N17   N     N_R   0.950690 0.913140 0.048300 -0.041296
N18   N     N_R   0.086860 0.049310 0.048300 -0.042013
N19   N     N_R   0.913140 0.950690 0.951700 -0.042199
N20   N     N_R   0.950690 0.086860 0.048300 -0.037134
N21   N     N_R   0.049310 0.913140 0.951700 -0.037426
N22   N     N_R   0.913140 0.950690 0.048300 -0.041758
N23   N     N_R   0.450690 0.413140 0.451700 -0.038475
N24   N     N_R   0.086860 0.049310 0.951700 -0.042347
N25   N     N_R   0.049310 0.913140 0.048300 -0.037513
N26   N     N_R   0.950690 0.086860 0.951700 -0.038151
N27   N     N_R   0.193844 0.156496 0.668709 -0.072565
N28   N     N_R   0.806746 0.840935 0.329479 -0.071202
N29   N     N_R   0.284232 0.689011 0.863322 -0.075835
N30   N     N_R   0.807638 0.247622 0.278097 -0.067171
N31   N     N_R   0.807233 0.843891 0.667090 -0.071967
N32   N     N_R   0.195816 0.154162 0.332544 -0.075671
N33   N     N_R   0.725184 0.317927 0.862556 -0.072161
N34   N     N_R   0.549310 0.586860 0.548300 -0.037394
N35   N     N_R   0.276775 0.682514 0.136539 -0.071536
N36   N     N_R   0.304125 0.758383 0.174897 -0.070117
N37   N     N_R   0.695062 0.242711 0.824856 -0.068728
N38   N     N_R   0.179182 0.228782 0.286521 -0.063887
N39   N     N_R   0.827274 0.768430 0.710521 -0.066585
N40   N     N_R   0.795354 0.165930 0.313344 -0.069812
N41   N     N_R   0.291736 0.761177 0.812048 -0.065422
N42   N     N_R   0.828051 0.763418 0.290949 -0.072969
N43   N     N_R   0.167270 0.232318 0.707110 -0.076994
N44   N     N_R   0.801294 0.737235 0.323956 -0.068325
N45   N     N_R   0.413140 0.549310 0.451700 -0.042105
N46   N     N_R   0.195554 0.260106 0.676423 -0.077150
N47   N     N_R   0.772950 0.187798 0.351523 -0.072471
N48   N     N_R   0.319951 0.733739 0.781435 -0.070804
N49   N     N_R   0.206549 0.256624 0.317839 -0.063730
N50   N     N_R   0.800222 0.740748 0.678784 -0.067499
N51   N     N_R   0.332436 0.730673 0.205809 -0.075631
N52   N     N_R   0.666441 0.271088 0.794725 -0.068926
N53   N     N_R   0.696430 0.346369 0.832384 -0.071901
N54   N     N_R   0.305211 0.654731 0.167532 -0.072352
N55   N     N_R   0.779981 0.816100 0.635310 -0.072819
N56   N     N_R   0.586860 0.450690 0.548300 -0.041781
N57   N     N_R   0.223288 0.182143 0.364018 -0.076130
N58   N     N_R   0.312568 0.661451 0.832563 -0.075269
N59   N     N_R   0.785607 0.269377 0.316241 -0.066392
N60   N     N_R   0.222246 0.184366 0.637943 -0.072202
N61   N     N_R   0.779792 0.814643 0.362537 -0.072726
N62   N     N_R   0.549310 0.586860 0.451700 -0.038247
N63   N     N_R   0.450690 0.413140 0.548300 -0.037688
N64   N     N_R   0.586860 0.549310 0.548300 -0.038463
Ni1   Ni    Ni4+2 0.586090 0.500000 0.500000 0.208230
Ni2   Ni    Ni4+2 0.413910 0.500000 0.500000 0.211097
Ni3   Ni    Ni4+2 0.500000 0.413910 0.500000 0.212385
Ni4   Ni    Ni4+2 0.500000 0.586090 0.500000 0.214485
Ni5   Ni    Ni4+2 0.086090 0.000000 0.000000 0.211197
Ni6   Ni    Ni4+2 0.913910 0.000000 0.000000 0.213577
Ni7   Ni    Ni4+2 0.000000 0.913910 0.000000 0.214630
Ni8   Ni    Ni4+2 0.000000 0.086090 0.000000 0.217221

loop_
_geom_bond_atom_site_label_1
_geom_bond_atom_site_label_2
_ccdc_geom_bond_type
C72   H132  S    
C29   C133  A    
C13   N3    A    
C36   C191  A    
C96   H45   S    
C59   C153  A    
N2    N23   A    
C112  C184  A    
C124  C175  S    
C176  C182  A    
C190  H88   S    
C35   H35   S    
N5    Ni2   S    
C63   C98   S    
C147  C164  S    
C71   H126  S    
C119  H87   S    
C57   C178  A    
C33   C129  A    
N16   Ni8   S    
C80   H153  S    
C81   H157  S    
C154  C170  S    
N34   N64   A    
C7    C42   A    
C78   H152  S    
C116  H84   S    
C109  H77   S    
C82   H159  S    
C74   H138  S    
C164  N28   A    
C172  N33   A    
C168  N38   A    
C68   N8    A    
C35   N5    A    
C170  N36   A    
C167  N29   A    
C25   C60   A    
C70   H124  S    
C7    C128  A    
C83   H5    S    
C10   C125  A    
C159  N55   A    
C135  C186  S    
C98   H52   S    
C36   C71   S    
C33   C69   A    
N27   N60   A    
N30   N59   A    
C29   C64   A    
C18   H107  S    
C19   C131  A    
C103  H64   S    
C70   H123  S    
C20   C132  A    
C17   C52   A    
C21   C133  A    
C58   C152  A    
N24   Ni5   S    
C121  C180  S    
C17   H105  S    
C79   N9    A    
C25   H113  S    
C114  N21   A    
C168  N32   A    
C127  H95   S    
C169  N39   A    
C95   H40   S    
C191  H89   S    
C68   H68   S    
C165  N27   A    
N12   Ni2   S    
C104  H67   S    
C1    H1    S    
C43   C145  A    
C133  C184  S    
C56   C151  A    
N11   N19   A    
C82   H3    S    
C101  C184  A    
N32   N57   A    
C141  C157  S    
C11   H100  S    
C166  N30   A    
C67   C147  A    
C87   H18   S    
N63   Ni3   S    
C18   C130  A    
C29   H118  S    
C77   H147  S    
C57   H57   S    
C123  C174  S    
N16   N24   A    
C165  N43   A    
C12   H101  S    
C182  H150  S    
C52   C146  A    
C86   H14   S    
C164  N42   A    
C46   C179  A    
C26   C61   A    
C45   C81   S    
C65   C100  S    
C86   H15   S    
C22   C58   A    
C114  C181  A    
C156  N44   A    
C102  H61   S    
N64   Ni1   S    
C119  C186  A    
N14   N26   A    
C41   C76   S    
N21   Ni7   S    
C57   N7    A    
C63   C152  A    
C98   H50   S    
C26   C136  A    
N17   N22   A    
C115  C189  A    
C28   C63   A    
C93   H33   S    
C155  N46   A    
C90   C183  A    
N5    N63   A    
C88   H20   S    
C109  N16   A    
C1    N1    A    
C148  C167  S    
N35   N54   A    
C42   C145  A    
C118  N25   A    
C73   H133  S    
C166  N40   A    
N15   N25   A    
C11   C124  A    
C16   C51   A    
C142  C161  S    
C61   C96   S    
C67   C103  S    
C23   C59   A    
C110  N17   A    
C1    C173  A    
N10   Ni6   S    
C49   C84   S    
C120  C179  S    
C66   C148  A    
C16   C120  A    
C132  C183  S    
C39   C74   S    
C105  H73   S    
C150  C166  S    
C68   C177  A    
C4    C124  A    
C119  N26   A    
C108  H76   S    
C31   C131  A    
C85   H12   S    
C140  C158  S    
C157  N48   A    
C8    C128  A    
C64   C99   S    
C158  N47   A    
C76   H145  S    
C7    H96   S    
C138  H106  S    
C30   H119  S    
C169  N31   A    
C50   C85   S    
N62   Ni4   S    
C80   H155  S    
C127  N34   A    
C163  N51   A    
C28   H116  S    
C161  N49   A    
N2    Ni2   S    
C8    H97   S    
C84   H7    S    
C97   H47   S    
C75   H142  S    
N11   Ni7   S    
C71   H129  S    
C88   H21   S    
C34   C190  A    
C2    N2    A    
N23   Ni3   S    
C172  N37   A    
C110  H78   S    
N22   Ni6   S    
N3    Ni4   S    
C101  N11   A    
C60   C95   S    
C27   C62   A    
C2    C175  A    
C62   C97   S    
C76   H143  S    
C139  C155  S    
N39   N50   A    
C10   C45   A    
N37   N52   A    
C104  H66   S    
C46   N6    A    
C90   N10   A    
C32   C67   A    
C73   H135  S    
C19   C54   A    
C95   H42   S    
C146  C165  S    
C26   H114  S    
C38   C141  A    
C149  N56   A    
C99   H55   S    
C94   H38   S    
C54   C148  A    
C79   H70   S    
C116  C175  A    
C87   H19   S    
C117  C188  A    
C121  C191  A    
C118  C187  A    
C167  N41   A    
C122  C192  A    
N7    Ni3   S    
C151  C169  S    
C48   C83   S    
C113  N20   A    
C27   C135  A    
N36   N51   A    
C24   H24   S    
C113  C183  A    
C12   C123  A    
C30   C132  A    
C153  C172  S    
C149  C178  A    
C4    H92   S    
C96   H43   S    
C48   C141  A    
C5    H93   S    
C36   C139  A    
C60   C154  A    
C30   C65   A    
C82   H160  S    
C37   C192  A    
C42   C77   S    
C101  H72   S    
C5    C125  A    
N8    N45   A    
N20   Ni8   S    
C138  C177  A    
C162  N52   A    
C84   H9    S    
C75   H140  S    
C14   C122  A    
C103  H63   S    
C11   C47   A    
C8    C43   A    
C111  H79   S    
C12   C48   A    
C100  H59   S    
C61   C154  A    
C43   C78   S    
N3    N12   A    
C107  C186  A    
C160  H128  S    
C16   H104  S    
C28   C134  A    
C58   C93   S    
N40   N47   A    
C160  N62   A    
C9    H98   S    
N43   N46   A    
C19   H108  S    
C21   H110  S    
C91   H28   S    
N38   N49   A    
C55   C91   S    
C23   H112  S    
C18   C53   A    
C89   H26   S    
C24   N4    A    
C3    C123  A    
C138  N45   A    
C59   C94   S    
C99   H53   S    
C34   C70   S    
N56   Ni1   S    
C116  N23   A    
C72   H131  S    
C69   C146  A    
C87   H17   S    
N6    N62   A    
C77   H146  S    
C24   C173  A    
C51   C86   S    
C152  C168  S    
C74   H136  S    
C80   H154  S    
C13   C174  A    
C106  H74   S    
C64   C151  A    
C44   C80   S    
C6    C126  A    
C41   C144  A    
C86   H16   S    
C155  N60   A    
C50   C139  A    
C112  N19   A    
C79   C181  A    
C102  H62   S    
C78   H151  S    
N33   N53   A    
C100  H56   S    
C74   H137  S    
C120  C190  A    
C39   C142  A    
C92   H32   S    
C83   H6    S    
C98   H51   S    
N42   N44   A    
N7    N56   A    
C51   C137  A    
N41   N48   A    
N1    Ni1   S    
C144  C163  S    
C13   H13   S    
C104  H69   S    
C192  H90   S    
N1    N4    A    
C114  H82   S    
N18   Ni5   S    
C118  H86   S    
N34   Ni4   S    
C92   H31   S    
C106  C185  A    
C157  N58   A    
C21   C56   A    
C62   C153  A    
C143  C159  S    
C10   H99   S    
C110  C189  A    
C20   H109  S    
C40   C75   S    
C23   C135  A    
C22   H111  S    
C162  N53   A    
C131  C181  S    
C81   H158  S    
C32   H121  S    
N6    Ni1   S    
C27   H115  S    
C117  N24   A    
N4    Ni3   S    
C171  N63   A    
C111  N18   A    
C161  N57   A    
C85   H11   S    
C97   H49   S    
C129  C188  S    
C45   C143  A    
C77   H148  S    
C2    H2    S    
C106  N13   A    
C31   C66   A    
C170  N35   A    
C163  N54   A    
C14   H102  S    
N14   Ni6   S    
C66   C102  S    
C108  C187  A    
C115  N22   A    
C112  H80   S    
C32   C130  A    
C84   H8    S    
C149  H117  S    
C75   H141  S    
C47   C142  A    
C15   H103  S    
C88   H22   S    
C22   C134  A    
C102  H60   S    
C78   H149  S    
C6    H94   S    
C127  C176  A    
C100  H58   S    
C107  N14   A    
C15   C50   A    
C14   C49   A    
C145  C162  S    
C53   C147  A    
C126  C177  S    
C47   C82   S    
C65   C150  A    
C25   C136  A    
C117  H85   S    
N31   N55   A    
C93   H34   S    
C76   H144  S    
C3    C38   A    
C6    C41   A    
N15   Ni5   S    
C91   H29   S    
C108  N15   A    
C89   H23   S    
C71   H127  S    
C73   H134  S    
C3    H91   S    
N45   Ni2   S    
C103  H65   S    
C134  C185  S    
N9    N21   A    
C37   C72   S    
C20   C55   A    
C113  H81   S    
C158  N59   A    
C105  N12   A    
C94   H39   S    
C109  C188  A    
C72   H130  S    
N25   Ni7   S    
C111  C185  A    
N26   Ni8   S    
C17   C129  A    
C54   C89   S    
C137  C156  S    
N10   N20   A    
C99   H54   S    
C160  C179  A    
C33   H122  S    
N13   Ni8   S    
C4    C39   A    
C44   C144  A    
N28   N61   A    
C96   H44   S    
N19   Ni6   S    
C90   H71   S    
N13   N18   A    
C85   H10   S    
C105  C174  A    
C136  C187  S    
C107  H75   S    
C171  C180  A    
C40   C143  A    
C128  C178  S    
C182  N64   A    
N29   N58   A    
C55   C150  A    
C69   C104  S    
C35   C180  A    
C97   H48   S    
C156  N61   A    
C9    C44   A    
C15   C121  A    
C83   H4    S    
C81   H156  S    
C52   C87   S    
C70   H125  S    
N8    Ni4   S    
N17   Ni7   S    
C130  C189  S    
C31   H120  S    
C122  C173  S    
C95   H41   S    
C34   C137  A    
C9    C126  A    
C92   H30   S    
C171  H139  S    
C159  N50   A    
C93   H36   S    
N9    Ni5   S    
C125  C176  S    
C53   C88   S    
C46   H46   S    
C91   H27   S    
C89   H25   S    
C115  H83   S    
C56   C92   S    
C49   C140  A    
C37   C140  A    
C5    C40   A    
C94   H37   S    
C38   C73   S    
