data_mof_unit_46536.cif
_audit_creation_date              2012-12-10T17:01:38-0500
_audit_creation_method            fapswitch 2.2
_symmetry_space_group_name_H-M    P1
_symmetry_Int_Tables_number       1
_space_group_crystal_system       triclinic
_cell_length_a                    9.805353
_cell_length_b                    11.156952
_cell_length_c                    13.039897
_cell_angle_alpha                 89.888138
_cell_angle_beta                  75.963396
_cell_angle_gamma                 110.641581
_cell_volume                      1289.07535372

loop_
_atom_site_label
_atom_site_type_symbol
_atom_type_description
_atom_site_fract_x
_atom_site_fract_y
_atom_site_fract_z
_atom_type_partial_charge
C1    C     C_R   0.441205 0.254842 0.506665 0.869246
C2    C     C_R   0.559118 0.744651 0.494423 0.878277
C3    C     C_2   0.082832 0.510938 0.491657 -0.081315
C4    C     C_2   0.917153 0.488941 0.508237 -0.072149
C5    C     C_R   0.474638 0.497965 0.702147 0.832855
C6    C     C_R   0.525368 0.502292 0.297875 0.825971
C7    C     C_R   0.539437 0.511014 0.184526 -0.148313
C8    C     C_R   0.460561 0.493708 0.815649 -0.143181
C9    C     C_R   0.308652 0.393393 0.990354 0.293766
C10   C     C_R   0.686161 0.622728 0.011911 0.281710
C11   C     C_R   0.327613 0.407804 0.881779 -0.335882
C12   C     C_R   0.670551 0.600551 0.119543 -0.326054
C13   C     C_R   0.576600 0.573340 0.857956 0.205068
C14   C     C_R   0.422257 0.434968 0.141888 0.205258
C15   C     C_R   0.565520 0.553840 0.967323 -0.022687
C16   C     C_R   0.430794 0.460219 0.033960 -0.012989
C17   C     C_2   0.411673 0.117641 0.513221 -0.399626
C18   C     C_2   0.591748 0.881319 0.489329 -0.403650
C19   C     C_2   0.523314 0.070618 0.503071 0.232759
C20   C     C_2   0.484675 0.931199 0.525031 0.211473
Cu1   Cu    Cu3+1 0.647370 0.522180 0.481340 0.932946
Cu2   Cu    Cu3+1 0.352630 0.477820 0.518660 0.938558
N1    N     N_2   0.131210 0.444490 0.546730 -0.284995
N2    N     N_2   0.868790 0.555510 0.453270 -0.288717
O1    O     O_R   0.578710 0.332530 0.490040 -0.533479
O2    O     O_R   0.421290 0.667470 0.509960 -0.538891
O3    O     O_R   0.329810 0.295070 0.521560 -0.589313
O4    O     O_R   0.670190 0.704930 0.478440 -0.590649
O5    O     O_R   0.604230 0.515670 0.637800 -0.593561
O6    O     O_R   0.395770 0.484330 0.362200 -0.595075
O7    O     O_R   0.355330 0.478200 0.669330 -0.575012
O8    O     O_R   0.644670 0.521800 0.330670 -0.583728
N3    N     N_2   0.302413 0.326584 0.204416 -0.388530
H1    H     H_    0.233029 0.346365 0.269587 0.276751
C21   C     C_3   0.341732 0.216347 0.222166 -0.661485
H2    H     H_    0.238154 0.134004 0.262356 0.220305
H3    H     H_    0.421390 0.238261 0.273270 0.200242
H4    H     H_    0.393915 0.188062 0.145169 0.226098
N4    N     N_2   0.701221 0.675448 0.792089 -0.384499
H5    H     H_    0.772056 0.647944 0.733074 0.273832
C22   C     C_3   0.668274 0.784576 0.760703 -0.649573
H6    H     H_    0.775468 0.864763 0.722914 0.220392
H7    H     H_    0.606953 0.817939 0.831103 0.215904
H8    H     H_    0.598656 0.758856 0.702978 0.208469
H9    H     H_    0.762069 0.655629 0.153016 0.172977
H10   H     H_    0.236120 0.351338 0.848804 0.166038
N5    N     N_2   0.164375 0.313553 0.054511 -0.390710
H11   H     H_    0.110355 0.233992 0.019459 0.241426
C23   C     C_3   0.066849 0.383003 0.097511 -0.691068
H12   H     H_    0.959196 0.315256 0.149231 0.222230
H13   H     H_    0.041442 0.428597 0.032230 0.218533
H14   H     H_    0.120851 0.458297 0.145896 0.230233
N6    N     N_2   0.826649 0.710629 0.949122 -0.392929
H15   H     H_    0.916655 0.684782 0.952784 0.239326
C24   C     C_3   0.855273 0.844546 0.966068 -0.670566
H16   H     H_    0.956882 0.906041 0.904726 0.221336
H17   H     H_    0.875742 0.863791 0.045643 0.203062
H18   H     H_    0.758165 0.870686 0.959697 0.237482
N7    N     N_2   0.335917 0.850283 0.582822 -0.391770
H19   H     H_    0.251260 0.847908 0.548099 0.241222
C25   C     C_3   0.300309 0.860877 0.695910 -0.675374
H20   H     H_    0.187743 0.787505 0.734414 0.230997
H21   H     H_    0.297722 0.957796 0.712391 0.210726
H22   H     H_    0.385174 0.843416 0.730692 0.226153
N8    N     N_2   0.678813 0.154308 0.474661 -0.401112
H23   H     H_    0.746137 0.132050 0.515315 0.232609
C26   C     C_3   0.747424 0.187514 0.361676 -0.645366
H24   H     H_    0.862847 0.260771 0.349031 0.224447
H25   H     H_    0.680714 0.228525 0.324626 0.233208
H26   H     H_    0.755334 0.101658 0.321605 0.199127
H27   H     H_    0.707382 0.941059 0.450765 0.132047
H28   H     H_    0.294131 0.054667 0.531784 0.124278
H29   H     H_    0.835140 0.414545 0.568729 0.171041
H30   H     H_    0.164838 0.585276 0.431113 0.160106
H31   H     H_    0.949149 0.626156 0.396861 0.185891
H32   H     H_    0.050832 0.373771 0.603075 0.187875

loop_
_geom_bond_atom_site_label_1
_geom_bond_atom_site_label_2
_ccdc_geom_bond_type
Cu1   O5    S    
C25   H22   S    
C6    O8    A    
C24   H16   S    
N2    H31   S    
C19   N8    S    
C8    C13   A    
C2    C18   S    
C9    C11   A    
C22   H6    S    
C19   C20   S    
C18   C20   D    
C21   H2    S    
C13   C15   A    
N1    H32   S    
Cu2   O3    S    
C23   H14   S    
C1    O3    A    
Cu2   O7    S    
C26   H26   S    
C14   N3    S    
N6    C24   S    
N3    H1    S    
N8    H23   S    
N7    H19   S    
C2    O2    A    
N6    H15   S    
C20   N7    S    
C1    O1    A    
C22   H7    S    
N3    C21   S    
C4    H29   S    
C6    C7    S    
C10   C12   A    
C8    C11   A    
N5    C23   S    
C17   C19   D    
C9    C16   A    
C9    N5    S    
C5    O5    A    
C10   C15   A    
C24   H17   S    
C7    C12   A    
C4    N2    D    
C22   H8    S    
C14   C16   A    
C13   N4    S    
C5    C8    S    
N7    C25   S    
C25   H20   S    
Cu1   O4    S    
C15   C16   A    
N4    H5    S    
Cu1   O8    S    
C2    O4    A    
N5    H11   S    
C21   H4    S    
C10   N6    S    
C17   H28   S    
N4    C22   S    
C23   H12   S    
Cu2   O2    S    
Cu1   N2    S    
C26   H25   S    
C18   H27   S    
C25   H21   S    
C3    H30   S    
C24   H18   S    
Cu2   N1    S    
C11   H10   S    
Cu1   O1    S    
Cu2   O6    S    
C5    O7    A    
C3    N1    D    
Cu1   Cu2   S    
C23   H13   S    
C1    C17   S    
C6    O6    A    
C7    C14   A    
C3    C4    S    
C26   H24   S    
C21   H3    S    
C12   H9    S    
N8    C26   S    
