data_mof_unit_54427.cif
_audit_creation_date              2012-12-10T20:30:13-0500
_audit_creation_method            fapswitch 2.2
_symmetry_space_group_name_H-M    P1
_symmetry_Int_Tables_number       1
_space_group_crystal_system       triclinic
_cell_length_a                    9.848954
_cell_length_b                    10.673818
_cell_length_c                    13.214177
_cell_angle_alpha                 90.595994
_cell_angle_beta                  71.211588
_cell_angle_gamma                 89.918701
_cell_volume                      1315.0431584

loop_
_atom_site_label
_atom_site_type_symbol
_atom_type_description
_atom_site_fract_x
_atom_site_fract_y
_atom_site_fract_z
_atom_type_partial_charge
C1    C     C_R   0.498271 0.740244 0.504038 0.888687
C2    C     C_R   0.375872 0.469900 0.818339 -0.115302
C3    C     C_R   0.362813 0.936604 0.539097 0.130744
C4    C     C_R   0.422240 0.489710 0.703000 0.860631
C5    C     C_R   0.490771 0.871682 0.523768 -0.108425
C6    C     C_R   0.611116 0.935600 0.532324 -0.226525
C7    C     C_R   0.610878 0.065051 0.532908 -0.234712
C8    C     C_R   0.490188 0.129098 0.525151 -0.104931
C9    C     C_R   0.362136 0.064618 0.540657 0.143567
C10   C     C_3   0.253902 0.071636 0.483417 -0.504996
C11   C     C_3   0.256407 0.929686 0.480158 -0.480722
C12   C     C_R   0.438945 0.448098 0.980784 0.104182
C13   C     C_R   0.911204 0.600497 0.540306 0.217022
C14   C     C_R   0.948864 0.405674 0.452330 -0.157627
C15   C     C_R   0.092772 0.405651 0.452625 -0.096771
C16   C     C_R   0.498195 0.259871 0.504471 0.860120
C17   C     C_R   0.053564 0.599856 0.541192 0.214353
C18   C     C_3   0.009390 0.646157 0.654084 -0.524570
C19   C     C_3   0.856272 0.649871 0.652117 -0.503690
C20   C     C_R   0.578161 0.491521 0.296718 0.904869
C21   C     C_R   0.802292 0.434840 0.008851 -0.209091
C22   C     C_R   0.622689 0.464140 0.182419 -0.175203
C23   C     C_R   0.474964 0.430398 0.869527 0.081520
C24   C     C_R   0.236541 0.506672 0.879376 -0.200091
C25   C     C_R   0.198755 0.516473 0.989644 -0.193123
C26   C     C_R   0.299889 0.492184 0.039830 -0.139489
C27   C     C_3   0.403261 0.242834 0.188807 0.111964
C28   C     C_3   0.259497 0.186514 0.193409 -0.858919
C29   C     C_R   0.547952 0.433407 0.027751 -0.038624
C30   C     C_R   0.692592 0.418985 0.963477 0.118790
C31   C     C_R   0.722747 0.383668 0.856931 -0.249116
C32   C     C_R   0.612165 0.379763 0.812799 -0.216369
C33   C     C_R   0.516858 0.429336 0.137855 0.394985
C34   C     C_R   0.766906 0.465900 0.117421 -0.275989
H1    H     H_    0.851281 0.485559 0.151218 0.177069
H2    H     H_    0.052875 0.740291 0.661938 0.198579
H3    H     H_    0.784514 0.583344 0.708250 0.237957
H4    H     H_    0.830826 0.358431 0.808145 0.148776
H5    H     H_    0.812745 0.746560 0.655854 0.195023
H6    H     H_    0.913895 0.427140 0.960084 0.150959
H7    H     H_    0.159248 0.535442 0.841496 0.150124
H8    H     H_    0.269238 0.514954 0.124009 0.190867
H9    H     H_    0.093421 0.550905 0.035816 0.144845
H10   H     H_    0.637937 0.341725 0.732729 0.182409
H11   H     H_    0.708835 0.886917 0.529620 0.168330
H12   H     H_    0.708507 0.113492 0.530368 0.167963
H13   H     H_    0.437997 0.205663 0.254604 0.136832
H14   H     H_    0.482991 0.209702 0.112077 0.132619
H15   H     H_    0.227322 0.220695 0.125306 0.263431
H16   H     H_    0.268655 0.082773 0.188179 0.211623
H17   H     H_    0.175206 0.212686 0.269043 0.242369
H18   H     H_    0.149933 0.111396 0.534966 0.201398
H19   H     H_    0.296625 0.113660 0.403294 0.205216
H20   H     H_    0.152982 0.888149 0.528541 0.199015
H21   H     H_    0.302857 0.889977 0.398005 0.206515
H22   H     H_    0.910640 0.328358 0.415524 0.147745
H23   H     H_    0.163148 0.328370 0.417071 0.164295
H24   H     H_    0.026582 0.574982 0.709643 0.209312
N1    N     N_R   0.856940 0.500860 0.500710 -0.106231
N2    N     N_R   0.142580 0.500820 0.500710 -0.106615
O1    O     O_R   0.385310 0.683210 0.499990 -0.615525
O2    O     O_R   0.614650 0.683240 0.500000 -0.617430
O3    O     O_R   0.328390 0.499940 0.653610 -0.618650
O4    O     O_R   0.557730 0.499980 0.653620 -0.623222
O5    O     O_R   0.385350 0.316760 0.500000 -0.620822
O6    O     O_R   0.614690 0.316790 0.500010 -0.636711
O7    O     O_R   0.442270 0.500020 0.346380 -0.560654
O8    O     O_R   0.671610 0.500060 0.346390 -0.620248
O9    O     O_3   0.390012 0.374987 0.200075 -0.615084
Zn1   Zn    Zn3+2 0.346870 0.499980 0.499990 0.958359
Zn2   Zn    Zn3+2 0.653130 0.500020 0.500010 0.932415

loop_
_geom_bond_atom_site_label_1
_geom_bond_atom_site_label_2
_ccdc_geom_bond_type
C27   H14   S    
O1    Zn1   S    
C14   H22   S    
C31   H4    S    
C20   O8    A    
C6    C7    A    
C13   N1    A    
C6    H11   S    
N2    Zn1   S    
C12   C29   A    
C21   C30   A    
C4    O4    A    
C20   O7    A    
C2    C4    S    
C31   C32   A    
C12   C23   A    
O3    Zn1   S    
C33   O9    S    
O7    Zn1   S    
C10   H18   S    
C23   C32   A    
C25   H9    S    
C17   C18   S    
C32   H10   S    
C11   H21   S    
C7    C8    A    
C8    C16   S    
C1    O2    A    
C24   H7    S    
C15   H23   S    
C4    O3    A    
N1    Zn2   S    
C29   C30   A    
C21   H6    S    
C19   H5    S    
C13   C17   A    
O8    Zn2   S    
C3    C9    A    
C5    C6    A    
C11   H20   S    
C20   C22   S    
O2    Zn2   S    
C18   C19   S    
C2    C24   A    
C30   C31   A    
C22   C34   A    
C28   H17   S    
C1    C5    S    
C3    C11   S    
C10   C11   S    
C13   C19   S    
C17   N2    A    
C1    O1    A    
O5    Zn1   S    
C7    H12   S    
C29   C33   A    
C27   C28   S    
C16   O6    A    
C24   C25   A    
C26   H8    S    
C34   H1    S    
C9    C10   S    
O4    Zn2   S    
C27   H13   S    
C2    C23   A    
C10   H19   S    
C22   C33   A    
C28   H16   S    
C14   C15   A    
C8    C9    A    
C16   O5    A    
C19   H3    S    
C14   N1    A    
C25   C26   A    
C18   H2    S    
C21   C34   A    
C15   N2    A    
O6    Zn2   S    
C12   C26   A    
C18   H24   S    
C3    C5    A    
C28   H15   S    
C27   O9    S    
