data_mof_unit_36189.cif
_audit_creation_date              2012-12-10T20:49:47-0500
_audit_creation_method            fapswitch 2.2
_symmetry_space_group_name_H-M    P1
_symmetry_Int_Tables_number       1
_space_group_crystal_system       triclinic
_cell_length_a                    8.094348
_cell_length_b                    8.918772
_cell_length_c                    16.887625
_cell_angle_alpha                 89.928311
_cell_angle_beta                  86.117837
_cell_angle_gamma                 89.999194
_cell_volume                      1216.34701649

loop_
_atom_site_label
_atom_site_type_symbol
_atom_type_description
_atom_site_fract_x
_atom_site_fract_y
_atom_site_fract_z
_atom_type_partial_charge
Br1   Br    Br    0.810530 0.326605 0.244795 -0.543689
Br2   Br    Br    0.122983 0.350784 0.726289 -0.452321
C1    C     C_R   0.499970 0.782034 0.500218 0.915485
C2    C     C_R   0.408955 0.631023 0.232610 0.375515
C3    C     C_R   0.609243 0.429082 0.860400 0.443607
C4    C     C_R   0.386447 0.633720 0.151529 0.413503
C5    C     C_R   0.457860 0.387419 0.899733 -0.097360
C6    C     C_R   0.494066 0.550659 0.100250 -0.179262
C7    C     C_R   0.317580 0.366489 0.858118 -0.265015
C8    C     C_R   0.625918 0.469920 0.128973 -0.247461
C9    C     C_R   0.322075 0.397313 0.777460 0.257993
C10   C     C_R   0.641810 0.457937 0.209886 0.210714
C11   C     C_2   0.439522 0.399730 0.985583 0.409665
C12   C     C_R   0.500011 0.217954 0.499901 0.936511
C13   C     C_2   0.462122 0.537612 0.016366 0.494301
C14   C     C_3   0.114448 0.640873 0.125565 -0.183083
C15   C     C_3   0.819898 0.306318 0.914363 -0.281366
C16   C     C_3   0.759838 0.688407 0.758239 -0.149049
C17   C     C_3   0.380509 0.856570 0.293169 -0.207337
C18   C     C_3   0.566372 0.772951 0.982780 -0.231552
C19   C     C_3   0.288730 0.241821 0.068378 -0.277409
C20   C     C_1   0.499980 0.934784 0.500143 -0.190114
C21   C     C_1   0.499987 0.065200 0.500006 -0.168173
C22   C     C_R   0.478412 0.491834 0.653516 0.935202
C23   C     C_R   0.521099 0.505610 0.346899 0.970611
C24   C     C_R   0.468281 0.458151 0.738723 -0.333633
C25   C     C_R   0.527705 0.533016 0.262161 -0.286326
C26   C     C_R   0.611697 0.475301 0.781581 0.416400
H1    H     H_    0.202620 0.331620 0.889015 0.177471
H2    H     H_    0.652396 0.744189 0.732694 0.114214
H3    H     H_    0.874124 0.734614 0.727440 0.190768
H4    H     H_    0.393068 0.919409 0.236074 0.179877
H5    H     H_    0.503430 0.845101 0.318457 0.128288
H6    H     H_    0.300304 0.923662 0.335579 0.194151
H7    H     H_    0.692515 0.723246 0.983463 0.164068
H8    H     H_    0.533941 0.834065 0.038938 0.199497
H9    H     H_    0.569588 0.856470 0.933974 0.176654
H10   H     H_    0.289066 0.127707 0.094590 0.224130
H11   H     H_    0.188879 0.244706 0.026215 0.142306
H12   H     H_    0.710704 0.408947 0.088352 0.212973
H13   H     H_    0.261461 0.321848 0.117841 0.163885
H14   H     H_    0.080268 0.596302 0.186092 0.200092
H15   H     H_    0.121099 0.548442 0.081415 0.132860
H16   H     H_    0.013568 0.717211 0.109763 0.184762
H17   H     H_    0.863703 0.253653 0.857085 0.206538
H18   H     H_    0.732455 0.229823 0.948115 0.183400
H19   H     H_    0.928094 0.321333 0.950407 0.171758
H20   H     H_    0.762850 0.715993 0.822335 0.165121
N1    N     N_1   0.926360 0.500000 0.499990 0.006957
N2    N     N_1   0.073640 0.500000 0.500010 0.009889
O1    O     O_R   0.363150 0.714660 0.500000 -0.609122
O2    O     O_3   0.749506 0.448219 0.901822 -0.606127
O3    O     O_3   0.757649 0.532017 0.746135 -0.532191
O4    O     O_3   0.305523 0.715713 0.283489 -0.574855
O5    O     O_3   0.445664 0.663773 0.968416 -0.609489
O6    O     O_3   0.446107 0.269494 0.030292 -0.637327
O7    O     O_R   0.636850 0.285340 0.500000 -0.607040
O8    O     O_R   0.636850 0.714660 0.500000 -0.624178
O9    O     O_R   0.363150 0.285340 0.500000 -0.613717
O10   O     O_R   0.346950 0.500000 0.615800 -0.580956
O11   O     O_R   0.653050 0.500000 0.384200 -0.590748
O12   O     O_R   0.620700 0.500000 0.615800 -0.572519
O13   O     O_R   0.379300 0.500000 0.384200 -0.583965
O14   O     O_3   0.263951 0.722583 0.122456 -0.586100
Zn1   Zn    Zn3+2 0.317220 0.500000 0.500010 1.058508
Zn2   Zn    Zn3+2 0.682780 0.500000 0.499990 1.053810

loop_
_geom_bond_atom_site_label_1
_geom_bond_atom_site_label_2
_ccdc_geom_bond_type
C12   C21   S    
C1    O1    A    
C19   O6    S    
C4    C6    A    
C26   O3    S    
O13   Zn1   S    
C3    O2    S    
C9    C24   A    
C18   H9    S    
C23   C25   S    
C3    C26   A    
C14   H16   S    
C24   C26   A    
C19   H11   S    
C7    H1    S    
O7    Zn2   S    
C22   O10   A    
C11   O6    S    
C13   O5    S    
C23   O11   A    
O9    Zn1   S    
C12   O9    A    
C7    C9    A    
C14   H15   S    
Br1   C10   S    
C8    C10   A    
C18   O5    S    
C19   H13   S    
Br2   C9    S    
C17   O4    S    
C8    H12   S    
C22   C24   S    
O10   Zn1   S    
C6    C13   S    
C5    C7    A    
C11   C13   D    
O1    Zn1   S    
C16   H2    S    
N2    Zn1   S    
C2    C4    A    
N1    Zn2   S    
C17   H4    S    
C10   C25   A    
C18   H8    S    
C1    O8    A    
C14   H14   S    
C5    C11   S    
C2    C25   A    
C15   H18   S    
C15   O2    S    
C6    C8    A    
N1    N2    T    
C23   O13   A    
C4    O14   S    
C3    C5    A    
C12   O7    A    
O12   Zn2   S    
C20   C21   T    
C1    C20   S    
C22   O12   A    
C16   H3    S    
C14   O14   S    
C16   O3    S    
C2    O4    S    
C17   H5    S    
C18   H7    S    
O11   Zn2   S    
O8    Zn2   S    
C19   H10   S    
C15   H19   S    
C15   H17   S    
C17   H6    S    
C16   H20   S    
