data_mof_unit_13409.cif
_audit_creation_date              2012-12-10T20:37:29-0500
_audit_creation_method            fapswitch 2.2
_symmetry_space_group_name_H-M    P1
_symmetry_Int_Tables_number       1
_space_group_crystal_system       triclinic
_cell_length_a                    15.701266
_cell_length_b                    10.598515
_cell_length_c                    9.914838
_cell_angle_alpha                 91.283001
_cell_angle_beta                  90.382584
_cell_angle_gamma                 90.373979
_cell_volume                      1649.44201324

loop_
_atom_site_label
_atom_site_type_symbol
_atom_type_description
_atom_site_fract_x
_atom_site_fract_y
_atom_site_fract_z
_atom_type_partial_charge
C1    C     C_R   0.499907 0.260510 0.498970 0.887757
C2    C     C_R   0.500756 0.128493 0.496043 -0.065070
C3    C     C_R   0.431826 0.062417 0.438646 -0.235547
C4    C     C_R   0.338041 0.500008 0.499621 0.915863
C5    C     C_R   0.431848 0.932247 0.439401 -0.198848
C6    C     C_R   0.499389 0.871098 0.502088 -0.060754
C7    C     C_R   0.571274 0.936940 0.546812 0.097938
C8    C     C_3   0.615352 0.935058 0.680701 -0.489334
C9    C     C_3   0.616438 0.078102 0.677328 -0.464686
C10   C     C_R   0.439550 0.433792 0.066866 0.147007
C11   C     C_R   0.555387 0.573372 0.074320 -0.132318
C12   C     C_3   0.082910 0.498017 0.502800 0.131402
C13   C     C_R   0.555839 0.572635 0.930631 -0.124091
C14   C     C_R   0.437495 0.437936 0.925168 0.134590
C15   C     C_3   0.414327 0.302345 0.906781 -0.076525
C16   C     C_R   0.499928 0.739357 0.501230 0.866438
C17   C     C_3   0.415625 0.294375 0.062142 0.081519
C18   C     C_R   0.661978 0.499845 0.500464 0.897139
C19   C     C_3   0.972796 0.460083 0.624427 0.176221
C20   C     C_3   0.027636 0.381371 0.526154 0.095234
C21   C     C_1   0.249115 0.499705 0.499312 -0.163522
C22   C     C_1   0.750940 0.498885 0.501747 -0.171108
C23   C     C_3   0.972007 0.615018 0.481007 -0.183515
C24   C     C_3   0.029326 0.577539 0.601124 -0.195784
C25   C     C_3   0.063209 0.249984 0.552182 -0.392594
C26   C     C_3   0.992967 0.148866 0.547761 -0.342534
C27   C     C_3   0.028863 0.019010 0.578165 -0.850263
C28   C     C_3   0.327857 0.267888 0.128953 -0.362891
C29   C     C_3   0.261372 0.374601 0.121600 -0.322264
C30   C     C_3   0.173436 0.327695 0.162568 -0.848297
C31   C     C_3   0.483660 0.195488 0.104238 -0.422164
C32   C     C_3   0.577680 0.234309 0.086878 -0.323946
C33   C     C_3   0.636486 0.122093 0.107029 -0.878703
C34   C     C_3   0.917193 0.497425 0.504403 0.133477
C35   C     C_3   0.027305 0.535678 0.382714 -0.168544
C36   C     C_3   0.970786 0.417847 0.405696 -0.206494
C37   C     C_1   0.173799 0.499159 0.500626 -0.050949
C38   C     C_1   0.826292 0.498059 0.503189 -0.029375
C39   C     C_R   0.572002 0.065954 0.543792 0.092751
H1    H     H_    0.679856 0.892907 0.673680 0.201040
H2    H     H_    0.055295 0.642771 0.680589 0.162485
H3    H     H_    0.377164 0.111102 0.398860 0.137515
H4    H     H_    0.378031 0.879793 0.397399 0.147453
H5    H     H_    0.574450 0.897077 0.761713 0.214365
H6    H     H_    0.077647 0.991859 0.502434 0.259915
H7    H     H_    0.058075 0.019446 0.680533 0.275023
H8    H     H_    0.976739 0.947677 0.574156 0.241936
H9    H     H_    0.943107 0.172373 0.622973 0.249855
H10   H     H_    0.962822 0.145025 0.446004 0.217538
H11   H     H_    0.111480 0.226987 0.474294 0.198868
H12   H     H_    0.576548 0.122853 0.756913 0.212969
H13   H     H_    0.095217 0.251711 0.652509 0.243886
H14   H     H_    0.151731 0.249728 0.093659 0.279428
H15   H     H_    0.175297 0.293786 0.267582 0.249593
H16   H     H_    0.127044 0.405844 0.156466 0.255067
H17   H     H_    0.280202 0.453942 0.190266 0.234227
H18   H     H_    0.256694 0.413858 0.019495 0.249796
H19   H     H_    0.301158 0.178783 0.084476 0.221205
H20   H     H_    0.338613 0.251258 0.237722 0.190114
H21   H     H_    0.627590 0.083152 0.209162 0.264981
H22   H     H_    0.623049 0.047055 0.029617 0.261673
H23   H     H_    0.681561 0.118664 0.668218 0.206147
H24   H     H_    0.703813 0.153020 0.097075 0.260251
H25   H     H_    0.588908 0.271978 0.984946 0.211848
H26   H     H_    0.595415 0.308301 0.162908 0.262462
H27   H     H_    0.474103 0.167512 0.209096 0.231330
H28   H     H_    0.471290 0.107468 0.043692 0.201645
H29   H     H_    0.601297 0.630808 0.130100 0.157844
H30   H     H_    0.602265 0.629262 0.878656 0.152175
H31   H     H_    0.466928 0.250511 0.856666 0.157047
H32   H     H_    0.944929 0.353047 0.325751 0.153254
H33   H     H_    0.051399 0.568205 0.284358 0.150135
H34   H     H_    0.947028 0.710882 0.462453 0.146184
I1    I     I_    0.299274 0.263629 0.792322 -0.437799
I2    I     I_    0.927855 0.407106 0.818501 -0.447007
N1    N     N_R   0.499430 0.499140 0.142800 -0.121377
N2    N     N_R   0.499430 0.499180 0.857150 -0.117779
O1    O     O_R   0.500010 0.316790 0.614690 -0.610981
O2    O     O_R   0.500000 0.316760 0.385350 -0.636894
O3    O     O_R   0.376780 0.500010 0.614650 -0.576128
O4    O     O_R   0.376770 0.499970 0.385310 -0.635286
O5    O     O_R   0.500000 0.683240 0.614650 -0.617334
O6    O     O_R   0.499990 0.683210 0.385310 -0.617934
O7    O     O_R   0.623230 0.500030 0.614690 -0.610313
O8    O     O_R   0.623220 0.499990 0.385350 -0.623610
Zn1   Zn    Zn3+2 0.500010 0.500020 0.653130 0.963859
Zn2   Zn    Zn3+2 0.499990 0.499980 0.346870 0.932115

loop_
_geom_bond_atom_site_label_1
_geom_bond_atom_site_label_2
_ccdc_geom_bond_type
C31   H27   S    
O6    Zn2   S    
C3    H3    S    
C1    O1    A    
C35   C36   S    
C9    H12   S    
O2    Zn2   S    
C7    C8    S    
C31   H28   S    
C30   H15   S    
C26   C27   S    
C28   C29   S    
O7    Zn1   S    
C4    O3    A    
C11   N1    A    
C5    C6    A    
C20   C25   S    
C10   C17   S    
C22   C38   T    
C9    C39   S    
C1    C2    S    
C14   N2    A    
C12   C37   S    
C25   H11   S    
O3    Zn1   S    
C10   N1    A    
C2    C39   A    
C4    O4    A    
C19   C20   S    
C8    C9    S    
C18   O7    A    
C23   C24   S    
C36   H32   S    
C26   H9    S    
C27   H6    S    
C5    H4    S    
C34   C38   S    
C24   H2    S    
C23   H34   S    
O8    Zn2   S    
C30   H14   S    
C13   N2    A    
C18   O8    A    
C9    H23   S    
C32   H25   S    
C10   C14   A    
C26   H10   S    
C25   C26   S    
O5    Zn1   S    
C16   O6    A    
C29   C30   S    
C31   C32   S    
C33   H24   S    
C23   C34   S    
C12   C20   S    
C16   O5    A    
C12   C35   S    
N1    Zn2   S    
O4    Zn2   S    
C27   H7    S    
C29   H18   S    
C35   H33   S    
C33   H21   S    
C23   C35   S    
C17   C31   S    
C11   H29   S    
C28   H20   S    
C27   H8    S    
C15   C17   S    
C15   H31   S    
C18   C22   S    
C17   C28   S    
C8    H5    S    
C3    C5    A    
C19   C34   S    
N2    Zn1   S    
C6    C7    A    
C29   H17   S    
C28   H19   S    
C30   H16   S    
C12   C24   S    
C32   C33   S    
C19   I2    S    
C2    C3    A    
C25   H13   S    
C4    C21   S    
C11   C13   A    
O1    Zn1   S    
C13   H30   S    
C1    O2    A    
C19   C24   S    
C34   C36   S    
C6    C16   S    
C20   C36   S    
C15   I1    S    
C21   C37   T    
C33   H22   S    
C7    C39   A    
C14   C15   S    
C8    H1    S    
C32   H26   S    
