data_mof_unit_34895.cif
_audit_creation_date              2013-03-05T16:44:41-0500
_audit_creation_method            fapswitch 2.2
_symmetry_space_group_name_H-M    P1
_symmetry_Int_Tables_number       1
_space_group_crystal_system       triclinic
_cell_length_a                    27.204335
_cell_length_b                    10.672653
_cell_length_c                    9.848738
_cell_angle_alpha                 90.27217
_cell_angle_beta                  90.829551
_cell_angle_gamma                 90.225025
_cell_volume                      2859.15169976

loop_
_atom_site_label
_atom_site_type_symbol
_atom_site_description
_atom_site_fract_x
_atom_site_fract_y
_atom_site_fract_z
_atom_type_partial_charge
O1    O     O_R   0.500010 0.316790 0.614690 -0.618531
O2    O     O_R   0.500000 0.316760 0.385350 -0.625983
C1    C     C_R   0.500969 0.259971 0.499808 0.877541
O3    O     O_R   0.428760 0.500040 0.614660 -0.615752
O4    O     O_R   0.428750 0.500000 0.385310 -0.580890
C2    C     C_R   0.405749 0.498725 0.499286 0.898461
Zn1   Zn    Zn3+2 0.500000 0.500020 0.653130 0.978764
Zn2   Zn    Zn3+2 0.500000 0.499980 0.346870 1.015363
O5    O     O_R   0.500000 0.683240 0.614650 -0.595622
O6    O     O_R   0.499990 0.683210 0.385310 -0.603329
O7    O     O_R   0.571250 0.500000 0.614690 -0.637884
O8    O     O_R   0.571240 0.499960 0.385340 -0.597169
C3    C     C_R   0.501679 0.740014 0.500417 0.946724
C4    C     C_R   0.594293 0.498525 0.501072 0.959902
C5    C     C_R   0.177375 0.341853 0.416293 0.595150
O9    O     O_2   0.203068 0.301752 0.308536 -0.507513
N1    N     N_R   0.199822 0.419343 0.508722 -0.348512
C6    C     C_R   0.175212 0.471156 0.614463 0.580403
C7    C     C_R   0.271307 0.532720 0.412697 0.023352
C8    C     C_R   0.322343 0.550786 0.412316 -0.321231
C9    C     C_R   0.332758 0.391937 0.585668 -0.204892
C10   C     C_R   0.282500 0.371306 0.585388 -0.120134
C11   C     C_R   0.251552 0.440962 0.500247 0.303810
C12   C     C_R   0.100576 0.368283 0.534951 -0.088705
C13   C     C_R   0.127711 0.307284 0.432042 -0.044999
C14   C     C_R   0.103700 0.217369 0.347195 -0.001769
C15   C     C_R   0.124086 0.454983 0.624534 -0.031140
C16   C     C_R   0.352801 0.481268 0.498998 -0.009607
H1    H     H_    0.356131 0.336645 0.651989 0.143149
H2    H     H_    0.267268 0.301566 0.652539 0.149420
C17   C     C_R   0.646332 0.467310 0.505085 -0.113390
C18   C     C_R   0.972685 0.266571 0.446795 0.079039
C19   C     C_R   0.972954 0.367084 0.671257 -0.105064
C20   C     C_R   0.946930 0.316480 0.558981 0.016182
C21   C     C_R   0.945397 0.220654 0.334101 -0.198069
C22   C     C_R   0.894544 0.228718 0.329914 -0.084745
C23   C     C_R   0.869147 0.281215 0.438525 -0.011451
C24   C     C_R   0.895002 0.320690 0.556496 -0.053609
C25   C     C_R   0.869134 0.369248 0.668969 -0.188790
C26   C     C_R   0.817690 0.384629 0.654165 0.589152
N2    N     N_R   0.794397 0.354423 0.534418 -0.326798
C27   C     C_R   0.818469 0.299965 0.429373 0.522454
C28   C     C_R   0.707685 0.319370 0.585811 0.605288
C29   C     C_R   0.659400 0.361756 0.581852 -0.352098
C30   C     C_R   0.682358 0.532880 0.431031 -0.025545
C31   C     C_R   0.731035 0.490893 0.438305 -0.290971
C32   C     C_R   0.743754 0.386581 0.517074 0.214267
O10   O     O_2   0.793384 0.266180 0.315629 -0.549060
C33   C     C_R   0.024793 0.269983 0.448224 0.065374
C34   C     C_R   0.049622 0.344007 0.547093 0.083985
C35   C     C_R   0.023352 0.396640 0.656036 0.055370
C36   C     C_R   0.052748 0.204011 0.352697 -0.306223
H3    H     H_    0.631793 0.310689 0.637807 0.173068
H4    H     H_    0.875282 0.196684 0.239073 0.209946
H5    H     H_    0.962482 0.184711 0.243956 0.133188
H6    H     H_    0.035798 0.135178 0.286069 0.129023
O11   O     O_2   0.200784 0.535191 0.710640 -0.516006
C37   C     C_R   0.095705 0.520406 0.721401 -0.029962
H7    H     H_    0.338354 0.621111 0.347179 0.165421
C38   C     C_R   0.947265 0.389837 0.793299 0.466219
C39   C     C_R   0.895685 0.398317 0.790808 -0.121892
O12   O     O_2   0.790817 0.431385 0.756349 -0.565568
C40   C     C_R   0.046618 0.487713 0.738245 -0.245978
H8    H     H_    0.759741 0.541597 0.386374 0.160844
H9    H     H_    0.025556 0.543700 0.808093 0.191888
C41   C     C_R   0.503612 0.064831 0.622856 -0.011206
C42   C     C_R   0.507660 0.128612 0.500866 -0.043841
C43   C     C_R   0.520827 0.064433 0.382416 -0.235406
H10   H     H_    0.527651 0.113218 0.288300 0.163157
C44   C     C_R   0.521401 0.934840 0.383086 -0.158786
H11   H     H_    0.528329 0.885150 0.289131 0.176864
C45   C     C_R   0.509081 0.871483 0.502460 -0.095146
C46   C     C_R   0.505136 0.937122 0.624429 -0.023270
C47   C     C_3   0.467254 0.930149 0.734958 1.005484
C48   C     C_3   0.465070 0.073308 0.729463 -0.610830
H12   H     H_    0.429813 0.110399 0.687820 0.191325
H13   H     H_    0.478296 0.122308 0.822675 0.181885
C49   C     C_R   0.472578 0.414447 0.069182 0.118997
N3    N     N_R   0.499670 0.499140 0.142800 -0.102038
C50   C     C_R   0.530764 0.576191 0.073718 -0.069669
H14   H     H_    0.554820 0.639575 0.129493 0.156211
C51   C     C_R   0.530795 0.576025 0.929564 -0.049006
H15   H     H_    0.555138 0.638315 0.876229 0.138455
N4    N     N_R   0.499670 0.499180 0.857150 -0.087133
C52   C     C_R   0.473458 0.412211 0.926692 0.110749
C53   C     C_3   0.419650 0.386545 0.912090 -0.605224
C54   C     C_3   0.417547 0.394259 0.067553 0.440196
H16   H     H_    0.400098 0.463572 0.858469 0.214146
H17   H     H_    0.412197 0.293269 0.866467 0.189794
C55   C     C_2   0.240545 0.612530 0.322655 0.472192
H18   H     H_    0.258111 0.676499 0.252828 0.071136
O13   O     O_2   0.195722 0.609658 0.325515 -0.541827
C56   C     C_2   0.113438 0.630887 0.800053 0.520807
H19   H     H_    0.102401 0.643009 0.904776 0.051617
O14   O     O_2   0.137151 0.713740 0.746029 -0.495623
O15   O     O_3   0.972054 0.408290 0.915834 -0.603387
C57   C     C_3   0.989872 0.291968 0.962480 -0.240993
H20   H     H_    0.017995 0.252793 0.893512 0.153218
H21   H     H_    0.959391 0.223375 0.975730 0.174335
H22   H     H_    0.007888 0.306662 0.063079 0.187906
C58   C     C_2   0.671966 0.647615 0.350884 0.390936
H23   H     H_    0.699735 0.684000 0.283339 0.077166
O16   O     O_2   0.633458 0.704934 0.361356 -0.602663
C59   C     C_2   0.871457 0.441378 0.916687 0.592389
H24   H     H_    0.847736 0.522760 0.915110 0.086259
O17   O     O_2   0.878717 0.387512 0.024158 -0.550924
O18   O     O_3   0.423540 0.872025 0.685177 -0.640824
C60   C     C_3   0.387174 0.869988 0.785960 -0.190900
H25   H     H_    0.381655 0.963823 0.832816 0.133913
H26   H     H_    0.396303 0.799689 0.865249 0.224108
H27   H     H_    0.351772 0.841109 0.737819 0.186698
O19   O     O_3   0.483605 0.878788 0.862059 -0.611923
C61   C     C_3   0.533183 0.906195 0.896998 -0.377298
H28   H     H_    0.540777 0.008302 0.900814 0.163622
H29   H     H_    0.558816 0.858935 0.826715 0.172562
H30   H     H_    0.540797 0.869167 0.000183 0.196632
C62   C     C_2   0.387538 0.506337 0.110159 0.433728
H31   H     H_    0.348644 0.493850 0.129060 0.077830
O20   O     O_2   0.405439 0.611332 0.118282 -0.592857
O21   O     O_3   0.401165 0.284934 0.137204 -0.608911
C63   C     C_3   0.425159 0.172161 0.101363 -0.224495
H32   H     H_    0.465562 0.181979 0.091389 0.131499
H33   H     H_    0.408513 0.131414 0.007634 0.159098
H34   H     H_    0.419136 0.103275 0.183507 0.204705
C64   C     C_2   0.129545 0.129393 0.256015 0.531834
H35   H     H_    0.113415 0.105445 0.157761 0.028338
O22   O     O_2   0.166841 0.075701 0.293653 -0.497290
O23   O     O_3   0.720552 0.217836 0.665064 -0.582523
C65   C     C_3   0.707741 0.107327 0.593772 -0.296981
H36   H     H_    0.726612 0.102111 0.494292 0.182209
H37   H     H_    0.667219 0.099137 0.578844 0.160180
H38   H     H_    0.719927 0.025723 0.654737 0.204927

loop_
_geom_bond_atom_site_label_1
_geom_bond_atom_site_label_2
_geom_bond_distance
_ccdc_geom_bond_type
C49   C54   1.511499 S    
C40   H9    1.081087 S    
C56   H19   1.085655 S    
N2    C27   1.361579 A    
C7    C8    1.401041 A    
C12   C15   1.419486 A    
C4    C17   1.455668 S    
C28   C29   1.391034 A    
O23   C65   1.409728 S    
C59   O17   1.220839 D    
C57   H20   1.111942 S    
C52   C53   1.492922 S    
Zn1   O7    1.980308 S    
N1    C11   1.428894 S    
C22   C23   1.397952 A    
C37   C56   1.482946 S    
C54   C62   1.512015 S    
C62   O20   1.221872 D    
C47   O19   1.434448 S    
C24   C25   1.418029 A    
O7    C4    1.290575 A    
C53   H16   1.112235 S    
C5    C13   1.410078 A    
C5    O9    1.348147 S    
C26   O12   1.347467 S    
C60   H25   1.112316 S    
Zn1   O5    1.993595 S    
C46   C47   1.511702 S    
C23   C27   1.395546 A    
O5    C3    1.281689 A    
C56   O14   1.221102 D    
O19   C61   1.416176 S    
C63   H34   1.109250 S    
C47   O18   1.419100 S    
C29   H3    1.084624 S    
C2    C16   1.451643 S    
C21   C22   1.386458 A    
C60   H26   1.111671 S    
C43   H10   1.083305 S    
Zn2   N3    2.009699 S    
O18   C60   1.411701 S    
O6    C3    1.283186 A    
C44   H11   1.083586 S    
C61   H30   1.109143 S    
C41   C42   1.389238 A    
C58   O16   1.220600 D    
O1    Zn1   1.990096 S    
C9    C10   1.383959 A    
O3    Zn1   1.969335 S    
C59   H24   1.084105 S    
C57   H21   1.113461 S    
C34   C35   1.413205 A    
C12   C34   1.416038 A    
C25   C39   1.423896 A    
O2    Zn2   1.993596 S    
C17   C29   1.403761 A    
C21   H5    1.077725 S    
C42   C43   1.401722 A    
C58   H23   1.085694 S    
C39   C59   1.484338 S    
C35   C40   1.404907 A    
C12   C13   1.419553 A    
C50   C51   1.419740 A    
C47   C48   1.530456 S    
C25   C26   1.415254 A    
C53   C54   1.534842 S    
C45   C46   1.393402 A    
C8    C16   1.398656 A    
C13   C14   1.420396 A    
C30   C31   1.400628 A    
C41   C46   1.363944 A    
C9    H1    1.083396 S    
C15   C37   1.418804 A    
C31   H8    1.084042 S    
C38   C39   1.406326 A    
O1    C1    1.281807 A    
C14   C64   1.482500 S    
C18   C20   1.419562 A    
C7    C11   1.417256 A    
C48   H12   1.112657 S    
C18   C21   1.411109 A    
C23   C24   1.411213 A    
C14   C36   1.394744 A    
C6    O11   1.348810 S    
C55   O13   1.220384 D    
Zn2   O8    1.969335 S    
C33   C36   1.406358 A    
O15   C57   1.411008 S    
N1    C6    1.362414 A    
N2    C32   1.429144 S    
C27   O10   1.350088 S    
N4    C52   1.361649 A    
C8    H7    1.083829 S    
C48   H13   1.109100 S    
C63   H32   1.109537 S    
C30   C58   1.485899 S    
C38   O15   1.386754 S    
C49   C52   1.403989 A    
O3    C2    1.289343 A    
C26   N2    1.367298 A    
C9    C16   1.397147 A    
O8    C4    1.293156 A    
C51   H15   1.079985 S    
C19   C38   1.419495 A    
C51   N4    1.367377 A    
C64   H35   1.085697 S    
C57   H22   1.109192 S    
O21   C63   1.417073 S    
C61   H28   1.108720 S    
C37   C40   1.391351 A    
C5    N1    1.363188 A    
C31   C32   1.401580 A    
C10   H2    1.083187 S    
C20   C24   1.413416 A    
C1    C42   1.414493 S    
C6    C15   1.405850 A    
C50   H14   1.081767 S    
C53   H17   1.107052 S    
C28   O23   1.381715 S    
O4    Zn2   1.980310 S    
C3    C45   1.416729 S    
C19   C35   1.415883 A    
C60   H27   1.109225 S    
C65   H38   1.109240 S    
O2    C1    1.282393 A    
C65   H36   1.113928 S    
C54   O21   1.429311 S    
C7    C55   1.484446 S    
C62   H31   1.084785 S    
C49   N3    1.363452 A    
C55   H18   1.085737 S    
O4    C2    1.293130 A    
C41   C48   1.497226 S    
C19   C20   1.408654 A    
Zn1   N4    2.009552 S    
C18   C33   1.417766 A    
C63   H33   1.108532 S    
C22   H4    1.083519 S    
N3    C50   1.367913 A    
Zn2   O6    1.990095 S    
C33   C34   1.413507 A    
C17   C30   1.415026 A    
C64   O22   1.221028 D    
C43   C44   1.383301 A    
C10   C11   1.398222 A    
C44   C45   1.403208 A    
C65   H37   1.113065 S    
C28   C32   1.397848 A    
C36   H6    1.080224 S    
C61   H29   1.110515 S    
