data_mof_unit_31704.cif
_audit_creation_date              2012-12-11T15:49:57-0500
_audit_creation_method            fapswitch 2.2
_symmetry_space_group_name_H-M    P1
_symmetry_Int_Tables_number       1
_space_group_crystal_system       triclinic
_cell_length_a                    8.322656
_cell_length_b                    19.028628
_cell_length_c                    26.652608
_cell_angle_alpha                 94.241859
_cell_angle_beta                  92.302447
_cell_angle_gamma                 85.587716
_cell_volume                      4194.37694696

loop_
_atom_site_label
_atom_site_type_symbol
_atom_type_description
_atom_site_fract_x
_atom_site_fract_y
_atom_site_fract_z
_atom_type_partial_charge
Ba1   Ba    Ba6+2 0.854000 0.466860 0.523710 1.678241
Ba2   Ba    Ba6+2 0.335820 0.533080 0.476290 1.683469
Br1   Br    Br    0.193037 0.799127 0.604035 -0.561932
Br2   Br    Br    0.242225 0.648415 0.239188 -0.530711
Br3   Br    Br    0.671794 0.764978 0.249546 -0.509421
Br4   Br    Br    0.068996 0.359584 0.689703 -0.625513
Br5   Br    Br    0.291069 0.320080 0.010873 -0.641642
Br6   Br    Br    0.012514 0.745950 0.039499 -0.522389
Br7   Br    Br    0.495621 0.097485 0.401688 -0.700118
C1    C     C_3   0.692267 0.208186 0.665276 -0.343629
C2    C     C_R   0.922128 0.573436 0.176697 0.667960
C3    C     C_2   0.753504 0.524314 0.267888 -0.078597
C4    C     C_3   0.160622 0.271931 0.658291 0.590922
C5    C     C_3   0.708445 0.515303 0.322021 -0.088210
C6    C     C_1   0.989677 0.489495 0.342063 0.043761
C7    C     C_2   0.032922 0.490483 0.294631 -0.074792
C8    C     C_2   0.909503 0.510313 0.254190 0.215135
C9    C     C_R   0.070246 0.521188 0.103714 -0.086785
C10   C     C_R   0.105287 0.458248 0.129005 -0.050829
C11   C     C_R   0.195624 0.400136 0.103136 0.019887
C12   C     C_3   0.670419 0.277664 0.640300 0.403166
C13   C     C_R   0.978469 0.578495 0.127824 -0.062970
C14   C     C_2   0.852973 0.521007 0.357200 -0.287338
C15   C     C_2   0.335656 0.481205 0.642875 -0.230426
C16   C     C_3   0.181009 0.215264 0.696052 -0.345908
C17   C     C_R   0.305496 0.483855 0.986024 0.049452
C18   C     C_R   0.127634 0.590911 0.976733 0.036638
C19   C     C_R   0.241978 0.538696 0.956518 0.049142
C20   C     C_R   0.447668 0.444720 0.969879 -0.041559
C21   C     C_R   0.505699 0.450385 0.921895 -0.066000
C22   C     C_R   0.421926 0.494822 0.888403 -0.035306
C23   C     C_3   0.522794 0.629929 0.628058 0.308196
C24   C     C_R   0.293630 0.540830 0.906320 -0.080066
C25   C     C_R   0.224699 0.591692 0.874758 -0.039342
C26   C     C_R   0.270813 0.587958 0.823755 0.601283
C27   C     C_R   0.460773 0.494310 0.837129 0.581692
C28   C     C_3   0.184839 0.317960 0.420568 0.282045
C29   C     C_2   0.406624 0.437076 0.728986 0.042992
C30   C     C_3   0.423495 0.425446 0.671978 -0.057451
C31   C     C_1   0.212539 0.520010 0.662189 0.056941
C32   C     C_2   0.196052 0.531152 0.712853 -0.007960
C33   C     C_2   0.328957 0.499315 0.749141 0.173922
C34   C     C_3   0.538813 0.643917 0.684879 -0.331908
C35   C     C_R   0.229677 0.472322 0.031547 0.001920
C36   C     C_R   0.128683 0.527815 0.054564 -0.002925
C37   C     C_R   0.086891 0.590289 0.028603 -0.005803
C38   C     C_R   0.245489 0.406368 0.053457 0.221227
C39   C     C_R   0.952493 0.641935 0.104059 -0.010692
C40   C     C_3   0.173556 0.238718 0.411102 -0.327397
C41   C     C_R   0.055603 0.639979 0.943580 -0.047185
C42   C     C_R   0.107130 0.642008 0.894246 -0.056019
C43   C     C_R   0.009779 0.649271 0.056374 0.239450
C44   C     C_R   0.406009 0.299288 0.525624 -0.290088
C45   C     C_3   0.166368 0.698242 0.340239 0.295684
C46   C     C_R   0.544269 0.277011 0.499698 0.067313
C47   C     C_R   0.597885 0.205182 0.495891 -0.076692
C48   C     C_R   0.508143 0.154855 0.516151 0.020654
C49   C     C_R   0.363858 0.177918 0.540244 -0.132131
C50   C     C_R   0.312015 0.250102 0.543783 -0.013277
C51   C     C_R   0.593960 0.037876 0.549294 -0.113970
C52   C     C_3   0.996845 0.682987 0.581451 0.332355
C53   C     C_R   0.644566 0.966171 0.542602 -0.072750
C54   C     C_R   0.661087 0.932350 0.494250 0.019616
C55   C     C_R   0.622171 0.972000 0.451609 0.025523
C56   C     C_3   0.143227 0.720669 0.285912 0.109872
C57   C     C_R   0.568258 0.044717 0.458801 0.247643
C58   C     C_R   0.557581 0.078085 0.507834 0.027698
C59   C     C_R   0.857769 0.829028 0.467763 -0.107822
C60   C     C_R   0.902318 0.755979 0.464443 0.047728
C61   C     C_R   0.660089 0.734441 0.505868 0.038398
C62   C     C_R   0.614749 0.807087 0.510088 -0.119001
C63   C     C_R   0.711364 0.855115 0.489943 -0.013466
C64   C     C_3   0.982071 0.762199 0.596187 0.077424
C65   C     C_R   0.799126 0.709411 0.481164 -0.288460
C66   C     C_3   0.689273 0.369519 0.372264 0.313789
C67   C     C_3   0.683406 0.689202 0.338755 0.388185
C68   C     C_3   0.725840 0.338449 0.319265 -0.354662
C69   C     C_3   0.214902 0.790950 0.277682 -0.157041
C70   C     C_3   0.139672 0.854548 0.309506 -0.269476
C71   C     C_3   0.200930 0.923434 0.294713 -0.407718
C72   C     C_3   0.245079 0.331147 0.127321 -0.131454
C73   C     C_3   0.108413 0.280775 0.123341 -0.159628
C74   C     C_3   0.150420 0.217015 0.154143 -0.388289
C75   C     C_3   0.449384 0.369667 0.756570 -0.112059
C76   C     C_3   0.328842 0.351963 0.795732 -0.213453
C77   C     C_3   0.408042 0.300213 0.831996 -0.386215
C78   C     C_3   0.678566 0.764220 0.322374 0.090703
C79   C     C_3   0.032212 0.561463 0.732426 -0.153167
C80   C     C_3   0.964410 0.521492 0.774277 -0.179123
C81   C     C_3   0.834240 0.568066 0.802265 -0.372277
C82   C     C_3   0.629001 0.937562 0.398508 -0.168525
C83   C     C_3   0.771791 0.960986 0.370409 -0.199638
C84   C     C_3   0.734008 0.961821 0.313928 -0.383110
C85   C     C_R   0.044553 0.455645 0.178585 0.596283
H1    H     H_    0.739933 0.272993 0.605341 0.088054
H2    H     H_    0.597981 0.414938 0.370410 0.023031
H3    H     H_    0.821843 0.194134 0.673384 0.147602
H4    H     H_    0.808249 0.289870 0.321188 0.144793
H5    H     H_    0.785359 0.376483 0.298091 0.067956
H6    H     H_    0.612337 0.324944 0.298708 0.122830
H7    H     H_    0.540549 0.286574 0.629840 -0.117285
H8    H     H_    0.643484 0.165646 0.639760 0.057879
H9    H     H_    0.396166 0.619635 0.617657 0.022569
H10   H     H_    0.604293 0.582743 0.617194 0.052899
H11   H     H_    0.452855 0.688599 0.697629 0.172724
H12   H     H_    0.239037 0.219132 0.376744 0.170417
H13   H     H_    0.512290 0.596193 0.703582 0.061545
H14   H     H_    0.663765 0.656943 0.695956 0.111733
H15   H     H_    0.626553 0.212441 0.700950 0.104043
H16   H     H_    0.282456 0.225695 0.723093 0.072066
H17   H     H_    0.291012 0.705893 0.354409 0.098887
H18   H     H_    0.140515 0.641849 0.340353 0.077710
H19   H     H_    0.012627 0.724824 0.275540 0.151034
H20   H     H_    0.790633 0.658653 0.322557 0.014399
H21   H     H_    0.694552 0.691800 0.380514 -0.093458
H22   H     H_    0.786652 0.790114 0.337620 0.045401
H23   H     H_    0.227458 0.210920 0.443464 0.107317
H24   H     H_    0.570317 0.795015 0.337335 0.030289
H25   H     H_    0.156715 0.476081 0.284704 0.141772
H26   H     H_    0.611899 0.417607 0.910411 0.117954
H27   H     H_    0.516323 0.410092 0.994552 0.124367
H28   H     H_    0.659152 0.536334 0.239839 0.137430
H29   H     H_    0.893162 0.688008 0.123779 0.183627
H30   H     H_    0.952299 0.674748 0.954093 0.134393
H31   H     H_    0.282478 0.280184 0.645606 -0.085968
H32   H     H_    0.049023 0.681107 0.870656 0.121299
H33   H     H_    0.848679 0.555258 0.391677 0.063029
H34   H     H_    0.045166 0.226724 0.405847 0.126953
H35   H     H_    0.378933 0.489174 0.605950 0.039468
H36   H     H_    0.506494 0.826180 0.529588 0.123989
H37   H     H_    0.671950 0.936725 0.575551 0.099167
H38   H     H_    0.583834 0.062191 0.587144 0.083180
H39   H     H_    0.704965 0.188096 0.475163 0.117532
H40   H     H_    0.069334 0.213611 0.717172 0.139736
H41   H     H_    0.936369 0.865089 0.453512 0.080303
H42   H     H_    0.288326 0.139824 0.553570 0.085357
H43   H     H_    0.832423 0.653188 0.477606 0.059320
H44   H     H_    0.362939 0.354513 0.527339 0.063937
H45   H     H_    0.875471 0.664463 0.573857 -0.057552
H46   H     H_    0.209220 0.162768 0.675988 0.101151
H47   H     H_    0.312666 0.329071 0.426732 0.012997
H48   H     H_    0.116076 0.336109 0.454542 0.069434
H49   H     H_    0.334548 0.921486 0.298835 0.153114
H50   H     H_    0.163619 0.932694 0.255122 0.163548
H51   H     H_    0.149482 0.968230 0.319607 0.145607
H52   H     H_    0.006565 0.856983 0.304044 0.159961
H53   H     H_    0.172034 0.849431 0.349960 0.162549
H54   H     H_    0.346142 0.785722 0.285980 0.172197
H55   H     H_    0.196353 0.801128 0.237216 0.181501
H56   H     H_    0.070764 0.672302 0.547581 0.056091
H57   H     H_    0.166898 0.234351 0.194627 0.157608
H58   H     H_    0.262899 0.187563 0.140767 0.150709
H59   H     H_    0.051007 0.181079 0.149955 0.140500
H60   H     H_    0.993638 0.308172 0.136567 0.158450
H61   H     H_    0.087361 0.261816 0.083380 0.170839
H62   H     H_    0.352776 0.303625 0.109362 0.136434
H63   H     H_    0.290347 0.341544 0.166654 0.143983
H64   H     H_    0.449661 0.249931 0.810995 0.133770
H65   H     H_    0.512818 0.322933 0.852467 0.159126
H66   H     H_    0.319662 0.288770 0.859880 0.168616
H67   H     H_    0.912165 0.791131 0.567217 0.007671
H68   H     H_    0.274970 0.398839 0.817463 0.122907
H69   H     H_    0.225622 0.326729 0.776768 0.161761
H70   H     H_    0.451783 0.324005 0.728072 0.063996
H71   H     H_    0.576037 0.367206 0.770999 0.178255
H72   H     H_    0.872602 0.622157 0.811496 0.121395
H73   H     H_    0.721076 0.571753 0.778762 0.167539
H74   H     H_    0.811654 0.545531 0.838304 0.169993
H75   H     H_    0.911664 0.472883 0.757880 0.211649
H76   H     H_    0.057271 0.503000 0.801889 0.099794
H77   H     H_    0.036333 0.618579 0.742711 0.153304
H78   H     H_    0.918518 0.772593 0.632148 0.104030
H79   H     H_    0.937762 0.561739 0.702667 0.140497
H80   H     H_    0.703029 0.908929 0.298121 0.164640
H81   H     H_    0.631167 0.000837 0.306502 0.181871
H82   H     H_    0.840553 0.977008 0.294659 0.136582
H83   H     H_    0.803618 0.014735 0.384545 0.170120
H84   H     H_    0.879653 0.924343 0.376973 0.105881
H85   H     H_    0.639168 0.879337 0.398402 0.077524
H86   H     H_    0.512285 0.950516 0.378317 0.149517
H87   H     H_    0.802499 0.386886 0.390633 0.015733
N1    N     N_R   0.957402 0.513035 0.201959 -0.416718
N2    N     N_R   0.353812 0.527079 0.803072 -0.418943
O1    O     O_2   0.913240 0.537010 0.617740 -0.462659
O2    O     O_2   0.240565 0.751037 0.453565 -0.478003
O3    O     O_3   0.057509 0.739354 0.370737 -0.684448
O4    O     O_3   0.145240 0.536960 0.557560 -0.484859
O5    O     O_3   0.557280 0.416300 0.475860 -0.491927
O6    O     O_2   0.376710 0.670070 0.522470 -0.432372
O7    O     O_3   0.564412 0.689543 0.605062 -0.613669
O8    O     O_2   0.375941 0.550168 0.324089 -0.466446
O9    O     O_3   0.540768 0.659046 0.321552 -0.563126
O10   O     O_2   0.066298 0.401955 0.200919 -0.625739
O11   O     O_2   0.589047 0.466023 0.823432 -0.627552
O12   O     O_3   0.626623 0.317437 0.398172 -0.614124
O13   O     O_2   0.844522 0.623755 0.197296 -0.527993
O14   O     O_2   0.242850 0.639028 0.798978 -0.593329
O15   O     O_3   0.669960 0.410470 0.588880 -0.471563
O16   O     O_2   0.742192 0.470007 0.679065 -0.473970
O17   O     O_3   0.068549 0.649445 0.622077 -0.628083
O18   O     O_3   0.725753 0.332363 0.673536 -0.546214
O19   O     O_2   0.812980 0.329910 0.477500 -0.465855
O20   O     O_3   0.078660 0.374870 0.564770 -0.448162
O21   O     O_2   0.988959 0.249274 0.523882 -0.492109
O22   O     O_3   0.054248 0.249872 0.619142 -0.591892
O23   O     O_2   0.276450 0.462960 0.382230 -0.467563
O24   O     O_3   0.044470 0.462980 0.442430 -0.490516
O25   O     O_3   0.519740 0.589470 0.411120 -0.470842
O26   O     O_3   0.121985 0.350402 0.377935 -0.630175
O27   O     O_3   0.632420 0.583650 0.524140 -0.486226
O28   O     O_3   0.111040 0.625070 0.435230 -0.490197
P1    P     P_3+3 0.082480 0.557670 0.610090 1.008591
P2    P     P_3+3 0.635220 0.340300 0.462910 0.998757
P3    P     P_3+3 0.108898 0.281730 0.562953 0.975273
P4    P     P_3+3 0.107220 0.442270 0.389900 0.992342
P5    P     P_3+3 0.084573 0.717531 0.433263 0.928186
P6    P     P_3+3 0.639345 0.412498 0.653426 0.994838
P7    P     P_3+3 0.558932 0.671209 0.539701 0.994370
P8    P     P_3+3 0.537834 0.576147 0.345467 0.994357

loop_
_geom_bond_atom_site_label_1
_geom_bond_atom_site_label_2
_ccdc_geom_bond_type
O23   P4    D    
C34   H13   S    
C13   C39   A    
C46   C47   A    
C4    H31   S    
C37   C43   A    
C81   H73   S    
C85   O10   D    
C32   C33   S    
O20   P3    S    
Ba1   O15   S    
O16   P6    D    
Ba2   O6    S    
C51   H38   S    
C39   H29   S    
C47   H39   S    
C44   C50   A    
C50   P3    S    
C17   C35   A    
C45   C56   S    
C36   C37   A    
O6    P7    D    
C2    N1    Am   
Ba2   O28   S    
O17   P1    S    
C72   H62   S    
C28   H47   S    
C68   H6    S    
C69   H54   S    
C80   H76   S    
C25   C26   A    
C21   C22   A    
C19   C24   A    
C26   N2    Am   
C6    C7    D    
O21   P3    D    
C84   H80   S    
C67   H21   S    
C47   C48   A    
C1    H15   S    
C51   C53   A    
C9    C10   A    
C34   H11   S    
C81   H74   S    
C40   H34   S    
Ba2   O4    S    
C64   H67   S    
C75   H71   S    
Br7   C57   S    
C15   H35   S    
C40   H23   S    
C10   C11   A    
C51   C58   A    
C59   C60   A    
C71   H50   S    
C82   H85   S    
C3    C8    D    
C61   C65   A    
C67   H20   S    
C22   C24   A    
C68   H5    S    
C61   C62   A    
Ba2   O23   S    
C66   H87   S    
C35   C38   A    
C52   H56   S    
Br6   C43   S    
C75   H70   S    
C18   C41   A    
C59   C63   A    
C12   H7    S    
O25   P8    S    
C6    C14   D    
O28   P5    S    
Ba2   P4    S    
C79   H77   S    
C11   C72   S    
C81   H72   S    
Ba1   P1    S    
C76   H68   S    
C4    C16   S    
C60   P5    S    
C48   C58   S    
Br1   C64   S    
Ba1   O19   S    
C8    N1    S    
C52   O17   S    
Ba1   O1    S    
C66   H2    S    
O1    P1    D    
C70   H52   S    
C74   H57   S    
Ba1   O4    S    
C1    C12   S    
C75   C76   S    
C65   H43   S    
Ba2   O27   S    
C72   H63   S    
C28   H48   S    
C45   H18   S    
C44   H44   S    
C12   O18   S    
C1    H8    S    
C16   H46   S    
C41   H30   S    
C2    O13   D    
C78   H24   S    
C6    P4    S    
C7    H25   S    
O8    P8    D    
C82   C83   S    
C69   C70   S    
C7    C8    S    
C70   H53   S    
C12   H1    S    
C52   C64   S    
C49   C50   A    
C76   C77   S    
C84   H81   S    
C72   C73   S    
C79   H79   S    
C54   C55   A    
O3    P5    S    
Br5   C38   S    
C5    C14   S    
C1    H3    S    
C20   C21   A    
C67   O9    S    
C28   C40   S    
C68   H4    S    
O7    P7    S    
C71   H49   S    
C82   H86   S    
C53   C54   A    
O24   P4    S    
C24   C25   A    
C25   C42   A    
C23   H9    S    
C23   O7    S    
C60   C65   A    
C41   C42   A    
C27   N2    Am   
C61   P7    S    
C54   C63   S    
C64   H78   S    
C16   H40   S    
C66   C68   S    
C67   C78   S    
C28   O26   S    
C78   H22   S    
C10   C85   A    
C83   H84   S    
C16   H16   S    
C73   H61   S    
C18   C37   A    
C71   H51   S    
C3    C5    S    
O22   P3    S    
Ba1   P2    S    
C76   H69   S    
C4    O22   S    
C5    P8    S    
O15   P6    S    
Ba2   O25   S    
C44   C46   A    
Ba1   O20   S    
C9    C36   A    
C23   H10   S    
Br3   C78   S    
C35   C36   A    
C26   O14   D    
C14   H33   S    
C74   H58   S    
C77   H65   S    
Ba1   O5    S    
C32   C79   S    
C31   C32   D    
C56   C69   S    
C2    C13   A    
C29   C75   S    
Ba1   O27   S    
C9    C13   A    
C42   H32   S    
C56   H19   S    
C53   H37   S    
C30   P6    S    
C59   H41   S    
C52   H45   S    
O4    P1    S    
O27   P7    S    
C46   P2    S    
O5    P2    S    
C77   H64   S    
C29   C33   D    
C40   H12   S    
C74   H59   S    
C20   H27   S    
C33   N2    S    
C31   P1    S    
C84   H82   S    
C17   C19   A    
O26   P4    S    
O2    P5    D    
C49   H42   S    
C27   O11   D    
O18   P6    S    
C62   C63   A    
Br4   C4    S    
C48   C49   A    
C29   C30   S    
C21   H26   S    
Ba1   Ba2   S    
Br2   C56   S    
C83   C84   S    
C15   C31   D    
C23   C34   S    
C45   H17   S    
C57   C58   A    
C34   H14   S    
O19   P2    D    
Ba1   O24   S    
Ba2   O5    S    
O12   P2    S    
C11   C38   A    
C83   H83   S    
C80   H75   S    
C70   C71   S    
C73   H60   S    
C39   C43   A    
C3    H28   S    
C79   C80   S    
C17   C20   A    
C73   C74   S    
C45   O3    S    
C18   C19   A    
C22   C27   A    
Ba2   O24   S    
C85   N1    Am   
C55   C82   S    
C80   C81   S    
C77   H66   S    
C15   C30   S    
O9    P8    S    
C69   H55   S    
C55   C57   A    
C62   H36   S    
C66   O12   S    
